MODEL 1
REMARK VINA RESULT: -9.140452660      0.000      0.000
REMARK  20 active torsions:
REMARK  status: ('A' for Active; 'I' for Inactive)
REMARK    1  A    between atoms: C2_2  and  O1_5 
REMARK    2  A    between atoms: O1_5  and  C5_6 
REMARK       I    between atoms: C5_6  and  N1_8 
REMARK    3  A    between atoms: N1_8  and  C6_10 
REMARK    4  A    between atoms: C6_10  and  C7_11 
REMARK    5  A    between atoms: C6_10  and  C32_51 
REMARK    6  A    between atoms: C7_11  and  N2_12 
REMARK       I    between atoms: N2_12  and  C8_14 
REMARK    7  A    between atoms: C8_14  and  C9_16 
REMARK    8  A    between atoms: C9_16  and  C10_17 
REMARK    9  A    between atoms: C10_17  and  C11_18 
REMARK       I    between atoms: C11_18  and  N3_20 
REMARK   10  A    between atoms: N3_20  and  C12_22 
REMARK   11  A    between atoms: C12_22  and  C13_23 
REMARK   12  A    between atoms: C12_22  and  C28_47 
REMARK       I    between atoms: C13_23  and  N4_25 
REMARK   13  A    between atoms: N4_25  and  C14_27 
REMARK   14  A    between atoms: C14_27  and  C15_28 
REMARK   15  A    between atoms: C14_27  and  C22_37 
REMARK   16  A    between atoms: C15_28  and  O7_30 
REMARK   17  A    between atoms: O7_30  and  C16_31 
REMARK   18  A    between atoms: C25_40  and  N5_41 
REMARK   19  A    between atoms: C32_51  and  N6_52 
REMARK   20  A    between atoms: C32_51  and  O8_55 
ROOT
HETATM    1  C12 UNL     1      11.105  23.956   4.929  1.00  0.00     0.184 C 
ENDROOT
BRANCH   1   2
HETATM    2  N3  UNL     1       9.887  23.485   4.301  1.00  0.00    -0.347 N 
HETATM    3  C11 UNL     1       9.550  23.711   2.918  1.00  0.00     0.218 C 
HETATM    4  O4  UNL     1      10.370  24.340   2.239  1.00  0.00    -0.274 OA
ATOM      5  H3  UNL     1       9.226  22.960   4.874  1.00  0.00     0.163 HD
BRANCH   3   6
HETATM    6  C10 UNL     1       8.277  23.198   2.394  1.00  0.00     0.112 C 
BRANCH   6   7
HETATM    7  C9  UNL     1       7.035  23.598   3.041  1.00  0.00     0.112 C 
BRANCH   7   8
HETATM    8  C8  UNL     1       6.775  25.101   3.051  1.00  0.00     0.221 C 
HETATM    9  N2  UNL     1       6.679  25.795   4.230  1.00  0.00    -0.338 N 
ATOM     10  H2  UNL     1       6.809  25.123   4.987  1.00  0.00     0.167 HD
HETATM   11  O3  UNL     1       6.672  25.573   1.912  1.00  0.00    -0.273 OA
BRANCH   9  12
HETATM   12  C7  UNL     1       6.481  27.026   4.806  1.00  0.00     0.097 C 
BRANCH  12  13
HETATM   13  C6  UNL     1       5.929  27.296   6.134  1.00  0.00     0.199 C 
BRANCH  13  14
HETATM   14  N1  UNL     1       6.901  26.651   7.135  1.00  0.00    -0.320 N 
HETATM   15  C5  UNL     1       7.246  27.340   8.296  1.00  0.00     0.362 C 
HETATM   16  O2  UNL     1       6.718  28.481   8.484  1.00  0.00    -0.238 OA
ATOM     17  H1  UNL     1       7.290  25.726   6.950  1.00  0.00     0.166 HD
BRANCH  15  18
HETATM   18  O1  UNL     1       8.108  26.893   9.261  1.00  0.00    -0.294 OA
BRANCH  18  19
HETATM   19  C2  UNL     1       9.355  27.497   9.545  1.00  0.00     0.061 C 
HETATM   20  C1  UNL     1       9.905  28.205   8.320  1.00  0.00     0.046 C 
HETATM   21  C3  UNL     1      10.399  26.473   9.954  1.00  0.00     0.046 C 
HETATM   22  C4  UNL     1       9.189  28.491  10.664  1.00  0.00     0.046 C 
ENDBRANCH  18  19
ENDBRANCH  15  18
ENDBRANCH  13  14
BRANCH  13  23
HETATM   23  C32 UNL     1       4.660  26.762   6.603  1.00  0.00     0.137 C 
BRANCH  23  24
HETATM   24  N6  UNL     1       3.813  27.282   7.548  1.00  0.00    -0.382 N 
ATOM     25  H62 UNL     1       4.251  27.796   8.311  1.00  0.00     0.158 HD
ATOM     26  H61 UNL     1       2.796  27.220   7.592  1.00  0.00     0.158 HD
ENDBRANCH  23  24
BRANCH  23  27
HETATM   27  O8  UNL     1       4.283  25.643   6.044  1.00  0.00    -0.348 OA
ATOM     28  H8  UNL     1       4.913  24.933   6.090  1.00  0.00     0.219 HD
ENDBRANCH  23  27
ENDBRANCH  13  23
ENDBRANCH  12  13
ENDBRANCH   9  12
ENDBRANCH   7   8
ENDBRANCH   6   7
ENDBRANCH   3   6
ENDBRANCH   1   2
BRANCH   1  29
HETATM   29  C13 UNL     1      11.956  22.842   5.333  1.00  0.00     0.241 C 
HETATM   30  O5  UNL     1      11.432  22.007   6.148  1.00  0.00    -0.271 OA
HETATM   31  N4  UNL     1      13.253  22.630   4.918  1.00  0.00    -0.345 N 
ATOM     32  H4  UNL     1      13.667  23.308   4.278  1.00  0.00     0.163 HD
BRANCH  31  33
HETATM   33  C14 UNL     1      14.078  21.487   5.339  1.00  0.00     0.188 C 
BRANCH  33  34
HETATM   34  C15 UNL     1      15.364  22.050   5.794  1.00  0.00     0.282 C 
HETATM   35  O6  UNL     1      15.621  23.245   5.509  1.00  0.00    -0.263 OA
BRANCH  34  36
HETATM   36  O7  UNL     1      16.339  21.399   6.520  1.00  0.00    -0.314 OA
BRANCH  36  37
HETATM   37  C16 UNL     1      16.140  20.842   7.789  1.00  0.00     0.132 C 
HETATM   38  C17 UNL     1      17.372  20.642   8.594  1.00  0.00     0.032 C 
HETATM   39  C18 UNL     1      17.022  19.869   9.852  1.00  0.00     0.002 C 
HETATM   40  C19 UNL     1      15.697  20.227  10.433  1.00  0.00     0.000 C 
HETATM   41  C20 UNL     1      15.381  21.660  10.030  1.00  0.00     0.002 C 
HETATM   42  C21 UNL     1      15.131  21.647   8.536  1.00  0.00     0.032 C 
ENDBRANCH  36  37
ENDBRANCH  34  36
ENDBRANCH  33  34
BRANCH  33  43
HETATM   43  C22 UNL     1      14.159  20.447   4.289  1.00  0.00     0.018 C 
HETATM   44  C23 UNL     1      14.682  20.955   2.971  1.00  0.00     0.009 C 
HETATM   45  C24 UNL     1      15.114  19.892   2.029  1.00  0.00     0.033 C 
HETATM   46  C25 UNL     1      15.794  18.708   2.618  1.00  0.00     0.183 C 
HETATM   47  C26 UNL     1      14.901  18.135   3.711  1.00  0.00     0.033 C 
HETATM   48  C27 UNL     1      14.848  19.229   4.787  1.00  0.00     0.009 C 
BRANCH  46  49
HETATM   49  N5  UNL     1      17.123  18.972   3.129  1.00  0.00    -0.075 N 
ATOM     50  H53 UNL     1      17.697  18.131   3.077  1.00  0.00     0.274 HD
ATOM     51  H52 UNL     1      17.638  19.575   2.487  1.00  0.00     0.274 HD
ATOM     52  H51 UNL     1      17.144  19.359   4.073  1.00  0.00     0.274 HD
ENDBRANCH  46  49
ENDBRANCH  33  43
ENDBRANCH  31  33
ENDBRANCH   1  29
BRANCH   1  53
HETATM   53  C28 UNL     1      10.845  25.027   5.931  1.00  0.00    -0.022 C 
HETATM   54  C29 UNL     1       9.790  24.431   6.902  1.00  0.00     0.017 C 
HETATM   55  C30 UNL     1      10.096  26.218   5.317  1.00  0.00     0.017 C 
HETATM   56  C31 UNL     1      12.004  25.453   6.752  1.00  0.00     0.017 C 
ENDBRANCH   1  53
TORSDOF 20
ENDMDL
MODEL 2
REMARK VINA RESULT: -8.917342744      1.241      1.659
REMARK  20 active torsions:
REMARK  status: ('A' for Active; 'I' for Inactive)
REMARK    1  A    between atoms: C2_2  and  O1_5 
REMARK    2  A    between atoms: O1_5  and  C5_6 
REMARK       I    between atoms: C5_6  and  N1_8 
REMARK    3  A    between atoms: N1_8  and  C6_10 
REMARK    4  A    between atoms: C6_10  and  C7_11 
REMARK    5  A    between atoms: C6_10  and  C32_51 
REMARK    6  A    between atoms: C7_11  and  N2_12 
REMARK       I    between atoms: N2_12  and  C8_14 
REMARK    7  A    between atoms: C8_14  and  C9_16 
REMARK    8  A    between atoms: C9_16  and  C10_17 
REMARK    9  A    between atoms: C10_17  and  C11_18 
REMARK       I    between atoms: C11_18  and  N3_20 
REMARK   10  A    between atoms: N3_20  and  C12_22 
REMARK   11  A    between atoms: C12_22  and  C13_23 
REMARK   12  A    between atoms: C12_22  and  C28_47 
REMARK       I    between atoms: C13_23  and  N4_25 
REMARK   13  A    between atoms: N4_25  and  C14_27 
REMARK   14  A    between atoms: C14_27  and  C15_28 
REMARK   15  A    between atoms: C14_27  and  C22_37 
REMARK   16  A    between atoms: C15_28  and  O7_30 
REMARK   17  A    between atoms: O7_30  and  C16_31 
REMARK   18  A    between atoms: C25_40  and  N5_41 
REMARK   19  A    between atoms: C32_51  and  N6_52 
REMARK   20  A    between atoms: C32_51  and  O8_55 
ROOT
HETATM    1  C12 UNL     1      12.365  23.321   4.969  1.00  0.00     0.184 C 
ENDROOT
BRANCH   1   2
HETATM    2  N3  UNL     1      11.118  23.176   4.244  1.00  0.00    -0.347 N 
HETATM    3  C11 UNL     1      10.840  23.807   2.978  1.00  0.00     0.218 C 
HETATM    4  O4  UNL     1      11.738  24.503   2.493  1.00  0.00    -0.274 OA
ATOM      5  H3  UNL     1      10.392  22.590   4.656  1.00  0.00     0.163 HD
BRANCH   3   6
HETATM    6  C10 UNL     1       9.532  23.598   2.343  1.00  0.00     0.112 C 
BRANCH   6   7
HETATM    7  C9  UNL     1       8.326  23.723   3.152  1.00  0.00     0.112 C 
BRANCH   7   8
HETATM    8  C8  UNL     1       7.650  25.089   3.083  1.00  0.00     0.221 C 
HETATM    9  N2  UNL     1       6.962  25.592   4.156  1.00  0.00    -0.338 N 
ATOM     10  H2  UNL     1       7.017  24.899   4.903  1.00  0.00     0.167 HD
HETATM   11  O3  UNL     1       7.806  25.642   1.988  1.00  0.00    -0.273 OA
BRANCH   9  12
HETATM   12  C7  UNL     1       6.227  26.649   4.636  1.00  0.00     0.097 C 
BRANCH  12  13
HETATM   13  C6  UNL     1       6.472  27.404   5.864  1.00  0.00     0.199 C 
BRANCH  13  14
HETATM   14  N1  UNL     1       7.751  26.811   6.478  1.00  0.00    -0.320 N 
HETATM   15  C5  UNL     1       8.633  27.644   7.162  1.00  0.00     0.362 C 
HETATM   16  O2  UNL     1       8.326  28.874   7.262  1.00  0.00    -0.238 OA
ATOM     17  H1  UNL     1       7.951  25.815   6.385  1.00  0.00     0.166 HD
BRANCH  15  18
HETATM   18  O1  UNL     1       9.811  27.254   7.741  1.00  0.00    -0.294 OA
BRANCH  18  19
HETATM   19  C2  UNL     1       9.957  26.972   9.119  1.00  0.00     0.061 C 
HETATM   20  C1  UNL     1       9.085  25.799   9.527  1.00  0.00     0.046 C 
HETATM   21  C3  UNL     1       9.529  28.145   9.984  1.00  0.00     0.046 C 
HETATM   22  C4  UNL     1      11.397  26.652   9.417  1.00  0.00     0.046 C 
ENDBRANCH  18  19
ENDBRANCH  15  18
ENDBRANCH  13  14
BRANCH  13  23
HETATM   23  C32 UNL     1       5.583  27.382   7.015  1.00  0.00     0.137 C 
BRANCH  23  24
HETATM   24  N6  UNL     1       5.326  28.385   7.915  1.00  0.00    -0.382 N 
ATOM     25  H62 UNL     1       4.425  28.852   7.823  1.00  0.00     0.158 HD
ATOM     26  H61 UNL     1       5.922  28.731   8.668  1.00  0.00     0.158 HD
ENDBRANCH  23  24
BRANCH  23  27
HETATM   27  O8  UNL     1       4.944  26.258   7.207  1.00  0.00    -0.348 OA
ATOM     28  H8  UNL     1       4.885  25.973   8.112  1.00  0.00     0.219 HD
ENDBRANCH  23  27
ENDBRANCH  13  23
ENDBRANCH  12  13
ENDBRANCH   9  12
ENDBRANCH   7   8
ENDBRANCH   6   7
ENDBRANCH   3   6
ENDBRANCH   1   2
BRANCH   1  29
HETATM   29  C13 UNL     1      13.006  22.028   5.182  1.00  0.00     0.241 C 
HETATM   30  O5  UNL     1      12.304  21.152   5.796  1.00  0.00    -0.271 OA
HETATM   31  N4  UNL     1      14.282  21.688   4.786  1.00  0.00    -0.345 N 
ATOM     32  H4  UNL     1      14.839  22.398   4.308  1.00  0.00     0.163 HD
BRANCH  31  33
HETATM   33  C14 UNL     1      14.892  20.369   5.008  1.00  0.00     0.188 C 
BRANCH  33  34
HETATM   34  C15 UNL     1      16.246  20.622   5.538  1.00  0.00     0.282 C 
HETATM   35  O6  UNL     1      17.229  20.242   4.857  1.00  0.00    -0.263 OA
BRANCH  34  36
HETATM   36  O7  UNL     1      16.563  21.250   6.724  1.00  0.00    -0.314 OA
BRANCH  36  37
HETATM   37  C16 UNL     1      16.395  20.678   7.991  1.00  0.00     0.132 C 
HETATM   38  C17 UNL     1      17.587  20.731   8.875  1.00  0.00     0.032 C 
HETATM   39  C18 UNL     1      17.314  19.917  10.126  1.00  0.00     0.002 C 
HETATM   40  C19 UNL     1      15.909  20.014  10.615  1.00  0.00     0.000 C 
HETATM   41  C20 UNL     1      15.347  21.353  10.161  1.00  0.00     0.002 C 
HETATM   42  C21 UNL     1      15.201  21.276   8.655  1.00  0.00     0.032 C 
ENDBRANCH  36  37
ENDBRANCH  34  36
ENDBRANCH  33  34
BRANCH  33  43
HETATM   43  C22 UNL     1      14.815  19.513   3.803  1.00  0.00     0.018 C 
HETATM   44  C23 UNL     1      14.904  20.280   2.510  1.00  0.00     0.009 C 
HETATM   45  C24 UNL     1      15.195  19.443   1.318  1.00  0.00     0.033 C 
HETATM   46  C25 UNL     1      16.143  18.313   1.504  1.00  0.00     0.183 C 
HETATM   47  C26 UNL     1      15.647  17.455   2.661  1.00  0.00     0.033 C 
HETATM   48  C27 UNL     1      15.752  18.364   3.894  1.00  0.00     0.009 C 
BRANCH  46  49
HETATM   49  N5  UNL     1      17.519  18.713   1.716  1.00  0.00    -0.075 N 
ATOM     50  H53 UNL     1      17.711  19.591   1.235  1.00  0.00     0.274 HD
ATOM     51  H52 UNL     1      17.658  19.009   2.682  1.00  0.00     0.274 HD
ATOM     52  H51 UNL     1      18.209  18.007   1.458  1.00  0.00     0.274 HD
ENDBRANCH  46  49
ENDBRANCH  33  43
ENDBRANCH  31  33
ENDBRANCH   1  29
BRANCH   1  53
HETATM   53  C28 UNL     1      12.232  24.229   6.142  1.00  0.00    -0.022 C 
HETATM   54  C29 UNL     1      12.636  25.635   5.620  1.00  0.00     0.017 C 
HETATM   55  C30 UNL     1      13.301  23.951   7.208  1.00  0.00     0.017 C 
HETATM   56  C31 UNL     1      10.874  24.352   6.725  1.00  0.00     0.017 C 
ENDBRANCH   1  53
TORSDOF 20
ENDMDL
MODEL 3
REMARK VINA RESULT: -8.754518670      2.699     10.781
REMARK  20 active torsions:
REMARK  status: ('A' for Active; 'I' for Inactive)
REMARK    1  A    between atoms: C2_2  and  O1_5 
REMARK    2  A    between atoms: O1_5  and  C5_6 
REMARK       I    between atoms: C5_6  and  N1_8 
REMARK    3  A    between atoms: N1_8  and  C6_10 
REMARK    4  A    between atoms: C6_10  and  C7_11 
REMARK    5  A    between atoms: C6_10  and  C32_51 
REMARK    6  A    between atoms: C7_11  and  N2_12 
REMARK       I    between atoms: N2_12  and  C8_14 
REMARK    7  A    between atoms: C8_14  and  C9_16 
REMARK    8  A    between atoms: C9_16  and  C10_17 
REMARK    9  A    between atoms: C10_17  and  C11_18 
REMARK       I    between atoms: C11_18  and  N3_20 
REMARK   10  A    between atoms: N3_20  and  C12_22 
REMARK   11  A    between atoms: C12_22  and  C13_23 
REMARK   12  A    between atoms: C12_22  and  C28_47 
REMARK       I    between atoms: C13_23  and  N4_25 
REMARK   13  A    between atoms: N4_25  and  C14_27 
REMARK   14  A    between atoms: C14_27  and  C15_28 
REMARK   15  A    between atoms: C14_27  and  C22_37 
REMARK   16  A    between atoms: C15_28  and  O7_30 
REMARK   17  A    between atoms: O7_30  and  C16_31 
REMARK   18  A    between atoms: C25_40  and  N5_41 
REMARK   19  A    between atoms: C32_51  and  N6_52 
REMARK   20  A    between atoms: C32_51  and  O8_55 
ROOT
HETATM    1  C12 UNL     1      13.765  23.383   5.796  1.00  0.00     0.184 C 
ENDROOT
BRANCH   1   2
HETATM    2  N3  UNL     1      13.866  22.619   7.024  1.00  0.00    -0.347 N 
HETATM    3  C11 UNL     1      15.051  22.553   7.842  1.00  0.00     0.218 C 
HETATM    4  O4  UNL     1      16.030  23.203   7.458  1.00  0.00    -0.274 OA
ATOM      5  H3  UNL     1      13.045  22.096   7.329  1.00  0.00     0.163 HD
BRANCH   3   6
HETATM    6  C10 UNL     1      15.040  21.733   9.060  1.00  0.00     0.112 C 
BRANCH   6   7
HETATM    7  C9  UNL     1      16.309  21.357   9.669  1.00  0.00     0.112 C 
BRANCH   7   8
HETATM    8  C8  UNL     1      16.660  19.877   9.552  1.00  0.00     0.221 C 
HETATM    9  N2  UNL     1      17.608  19.443   8.662  1.00  0.00    -0.338 N 
ATOM     10  H2  UNL     1      17.960  20.265   8.171  1.00  0.00     0.167 HD
HETATM   11  O3  UNL     1      16.007  19.170  10.330  1.00  0.00    -0.273 OA
BRANCH   9  12
HETATM   12  C7  UNL     1      18.278  18.352   8.163  1.00  0.00     0.097 C 
BRANCH  12  13
HETATM   13  C6  UNL     1      18.643  18.108   6.768  1.00  0.00     0.199 C 
BRANCH  13  14
HETATM   14  N1  UNL     1      17.424  18.526   5.932  1.00  0.00    -0.320 N 
HETATM   15  C5  UNL     1      17.614  19.031   4.647  1.00  0.00     0.362 C 
HETATM   16  O2  UNL     1      18.807  19.106   4.213  1.00  0.00    -0.238 OA
ATOM     17  H1  UNL     1      16.482  18.435   6.314  1.00  0.00     0.166 HD
BRANCH  15  18
HETATM   18  O1  UNL     1      16.624  19.455   3.802  1.00  0.00    -0.294 OA
BRANCH  18  19
HETATM   19  C2  UNL     1      15.847  18.587   3.000  1.00  0.00     0.061 C 
HETATM   20  C1  UNL     1      14.984  19.373   2.029  1.00  0.00     0.046 C 
HETATM   21  C3  UNL     1      14.897  17.746   3.835  1.00  0.00     0.046 C 
HETATM   22  C4  UNL     1      16.755  17.667   2.230  1.00  0.00     0.046 C 
ENDBRANCH  18  19
ENDBRANCH  15  18
ENDBRANCH  13  14
BRANCH  13  23
HETATM   23  C32 UNL     1      18.906  16.785   6.224  1.00  0.00     0.137 C 
BRANCH  23  24
HETATM   24  N6  UNL     1      19.812  16.423   5.260  1.00  0.00    -0.382 N 
ATOM     25  H62 UNL     1      19.853  17.020   4.434  1.00  0.00     0.158 HD
ATOM     26  H61 UNL     1      20.453  15.629   5.256  1.00  0.00     0.158 HD
ENDBRANCH  23  24
BRANCH  23  27
HETATM   27  O8  UNL     1      18.183  15.819   6.727  1.00  0.00    -0.348 OA
ATOM     28  H8  UNL     1      18.477  14.940   6.518  1.00  0.00     0.219 HD
ENDBRANCH  23  27
ENDBRANCH  13  23
ENDBRANCH  12  13
ENDBRANCH   9  12
ENDBRANCH   7   8
ENDBRANCH   6   7
ENDBRANCH   3   6
ENDBRANCH   1   2
BRANCH   1  29
HETATM   29  C13 UNL     1      12.680  24.355   5.866  1.00  0.00     0.241 C 
HETATM   30  O5  UNL     1      13.028  25.584   5.807  1.00  0.00    -0.271 OA
HETATM   31  N4  UNL     1      11.340  24.056   5.992  1.00  0.00    -0.345 N 
ATOM     32  H4  UNL     1      11.073  23.073   6.051  1.00  0.00     0.163 HD
BRANCH  31  33
HETATM   33  C14 UNL     1      10.271  25.064   6.048  1.00  0.00     0.188 C 
BRANCH  33  34
HETATM   34  C15 UNL     1       9.816  25.108   7.451  1.00  0.00     0.282 C 
HETATM   35  O6  UNL     1       8.926  24.298   7.811  1.00  0.00    -0.263 OA
BRANCH  34  36
HETATM   36  O7  UNL     1      10.270  25.955   8.440  1.00  0.00    -0.314 OA
BRANCH  36  37
HETATM   37  C16 UNL     1       9.454  26.823   9.175  1.00  0.00     0.132 C 
HETATM   38  C17 UNL     1      10.169  27.902   9.902  1.00  0.00     0.032 C 
HETATM   39  C18 UNL     1       9.183  28.638  10.791  1.00  0.00     0.002 C 
HETATM   40  C19 UNL     1       7.828  28.795  10.190  1.00  0.00     0.000 C 
HETATM   41  C20 UNL     1       7.984  28.787   8.676  1.00  0.00     0.002 C 
HETATM   42  C21 UNL     1       8.392  27.380   8.289  1.00  0.00     0.032 C 
ENDBRANCH  36  37
ENDBRANCH  34  36
ENDBRANCH  33  34
BRANCH  33  43
HETATM   43  C22 UNL     1       9.224  24.817   5.032  1.00  0.00     0.018 C 
HETATM   44  C23 UNL     1       8.323  25.999   4.790  1.00  0.00     0.009 C 
HETATM   45  C24 UNL     1       7.516  25.914   3.547  1.00  0.00     0.033 C 
HETATM   46  C25 UNL     1       8.174  25.307   2.359  1.00  0.00     0.183 C 
HETATM   47  C26 UNL     1       8.709  23.937   2.753  1.00  0.00     0.033 C 
HETATM   48  C27 UNL     1       9.799  24.228   3.795  1.00  0.00     0.009 C 
BRANCH  46  49
HETATM   49  N5  UNL     1       9.222  26.118   1.774  1.00  0.00    -0.075 N 
ATOM     50  H53 UNL     1       9.035  26.282   0.785  1.00  0.00     0.274 HD
ATOM     51  H52 UNL     1       9.168  27.074   2.123  1.00  0.00     0.274 HD
ATOM     52  H51 UNL     1      10.164  25.746   1.901  1.00  0.00     0.274 HD
ENDBRANCH  46  49
ENDBRANCH  33  43
ENDBRANCH  31  33
ENDBRANCH   1  29
BRANCH   1  53
HETATM   53  C28 UNL     1      13.843  22.517   4.587  1.00  0.00    -0.022 C 
HETATM   54  C29 UNL     1      13.439  21.098   5.073  1.00  0.00     0.017 C 
HETATM   55  C30 UNL     1      15.290  22.310   4.120  1.00  0.00     0.017 C 
HETATM   56  C31 UNL     1      12.935  22.871   3.468  1.00  0.00     0.017 C 
ENDBRANCH   1  53
TORSDOF 20
ENDMDL
MODEL 4
REMARK VINA RESULT: -8.574357109      2.228     10.640
REMARK  20 active torsions:
REMARK  status: ('A' for Active; 'I' for Inactive)
REMARK    1  A    between atoms: C2_2  and  O1_5 
REMARK    2  A    between atoms: O1_5  and  C5_6 
REMARK       I    between atoms: C5_6  and  N1_8 
REMARK    3  A    between atoms: N1_8  and  C6_10 
REMARK    4  A    between atoms: C6_10  and  C7_11 
REMARK    5  A    between atoms: C6_10  and  C32_51 
REMARK    6  A    between atoms: C7_11  and  N2_12 
REMARK       I    between atoms: N2_12  and  C8_14 
REMARK    7  A    between atoms: C8_14  and  C9_16 
REMARK    8  A    between atoms: C9_16  and  C10_17 
REMARK    9  A    between atoms: C10_17  and  C11_18 
REMARK       I    between atoms: C11_18  and  N3_20 
REMARK   10  A    between atoms: N3_20  and  C12_22 
REMARK   11  A    between atoms: C12_22  and  C13_23 
REMARK   12  A    between atoms: C12_22  and  C28_47 
REMARK       I    between atoms: C13_23  and  N4_25 
REMARK   13  A    between atoms: N4_25  and  C14_27 
REMARK   14  A    between atoms: C14_27  and  C15_28 
REMARK   15  A    between atoms: C14_27  and  C22_37 
REMARK   16  A    between atoms: C15_28  and  O7_30 
REMARK   17  A    between atoms: O7_30  and  C16_31 
REMARK   18  A    between atoms: C25_40  and  N5_41 
REMARK   19  A    between atoms: C32_51  and  N6_52 
REMARK   20  A    between atoms: C32_51  and  O8_55 
ROOT
HETATM    1  C12 UNL     1       9.002  25.523   3.610  1.00  0.00     0.184 C 
ENDROOT
BRANCH   1   2
HETATM    2  N3  UNL     1       9.460  24.616   4.643  1.00  0.00    -0.347 N 
HETATM    3  C11 UNL     1      10.842  24.442   5.015  1.00  0.00     0.218 C 
HETATM    4  O4  UNL     1      11.672  25.128   4.408  1.00  0.00    -0.274 OA
ATOM      5  H3  UNL     1       8.759  24.065   5.139  1.00  0.00     0.163 HD
BRANCH   3   6
HETATM    6  C10 UNL     1      11.189  23.481   6.069  1.00  0.00     0.112 C 
BRANCH   6   7
HETATM    7  C9  UNL     1      12.586  23.325   6.450  1.00  0.00     0.112 C 
BRANCH   7   8
HETATM    8  C8  UNL     1      13.045  21.880   6.617  1.00  0.00     0.221 C 
HETATM    9  N2  UNL     1      14.330  21.585   6.996  1.00  0.00    -0.338 N 
ATOM     10  H2  UNL     1      14.821  22.472   7.114  1.00  0.00     0.167 HD
HETATM   11  O3  UNL     1      12.146  21.065   6.380  1.00  0.00    -0.273 OA
BRANCH   9  12
HETATM   12  C7  UNL     1      15.225  20.582   7.281  1.00  0.00     0.097 C 
BRANCH  12  13
HETATM   13  C6  UNL     1      16.679  20.635   7.137  1.00  0.00     0.199 C 
BRANCH  13  14
HETATM   14  N1  UNL     1      17.018  19.745   5.931  1.00  0.00    -0.320 N 
HETATM   15  C5  UNL     1      16.643  20.151   4.652  1.00  0.00     0.362 C 
HETATM   16  O2  UNL     1      16.042  21.266   4.540  1.00  0.00    -0.238 OA
ATOM     17  H1  UNL     1      17.514  18.864   6.066  1.00  0.00     0.166 HD
BRANCH  15  18
HETATM   18  O1  UNL     1      16.865  19.452   3.496  1.00  0.00    -0.294 OA
BRANCH  18  19
HETATM   19  C2  UNL     1      15.955  18.515   2.955  1.00  0.00     0.061 C 
HETATM   20  C1  UNL     1      14.992  19.186   1.993  1.00  0.00     0.046 C 
HETATM   21  C3  UNL     1      15.103  17.866   4.033  1.00  0.00     0.046 C 
HETATM   22  C4  UNL     1      16.716  17.437   2.229  1.00  0.00     0.046 C 
ENDBRANCH  18  19
ENDBRANCH  15  18
ENDBRANCH  13  14
BRANCH  13  23
HETATM   23  C32 UNL     1      17.606  20.114   8.129  1.00  0.00     0.137 C 
BRANCH  23  24
HETATM   24  N6  UNL     1      17.397  19.127   9.059  1.00  0.00    -0.382 N 
ATOM     25  H62 UNL     1      16.663  18.454   8.842  1.00  0.00     0.158 HD
ATOM     26  H61 UNL     1      17.878  18.978   9.946  1.00  0.00     0.158 HD
ENDBRANCH  23  24
BRANCH  23  27
HETATM   27  O8  UNL     1      18.795  20.659   8.125  1.00  0.00    -0.348 OA
ATOM     28  H8  UNL     1      19.118  20.935   8.975  1.00  0.00     0.219 HD
ENDBRANCH  23  27
ENDBRANCH  13  23
ENDBRANCH  12  13
ENDBRANCH   9  12
ENDBRANCH   7   8
ENDBRANCH   6   7
ENDBRANCH   3   6
ENDBRANCH   1   2
BRANCH   1  29
HETATM   29  C13 UNL     1       7.988  26.439   4.122  1.00  0.00     0.241 C 
HETATM   30  O5  UNL     1       8.220  27.684   3.944  1.00  0.00    -0.271 OA
HETATM   31  N4  UNL     1       6.829  26.072   4.772  1.00  0.00    -0.345 N 
ATOM     32  H4  UNL     1       6.659  25.077   4.921  1.00  0.00     0.163 HD
BRANCH  31  33
HETATM   33  C14 UNL     1       5.823  27.024   5.266  1.00  0.00     0.188 C 
BRANCH  33  34
HETATM   34  C15 UNL     1       6.102  27.215   6.702  1.00  0.00     0.282 C 
HETATM   35  O6  UNL     1       5.311  26.705   7.532  1.00  0.00    -0.263 OA
BRANCH  34  36
HETATM   36  O7  UNL     1       7.164  27.902   7.252  1.00  0.00    -0.314 OA
BRANCH  36  37
HETATM   37  C16 UNL     1       8.136  27.326   8.079  1.00  0.00     0.132 C 
HETATM   38  C17 UNL     1       9.454  27.088   7.437  1.00  0.00     0.032 C 
HETATM   39  C18 UNL     1      10.333  26.298   8.388  1.00  0.00     0.002 C 
HETATM   40  C19 UNL     1      10.160  26.670   9.821  1.00  0.00     0.000 C 
HETATM   41  C20 UNL     1       9.689  28.117   9.875  1.00  0.00     0.002 C 
HETATM   42  C21 UNL     1       8.279  28.136   9.323  1.00  0.00     0.032 C 
ENDBRANCH  36  37
ENDBRANCH  34  36
ENDBRANCH  33  34
BRANCH  33  43
HETATM   43  C22 UNL     1       4.447  26.603   4.921  1.00  0.00     0.018 C 
HETATM   44  C23 UNL     1       3.534  27.748   4.567  1.00  0.00     0.009 C 
HETATM   45  C24 UNL     1       2.283  27.345   3.877  1.00  0.00     0.033 C 
HETATM   46  C25 UNL     1       2.383  26.230   2.898  1.00  0.00     0.183 C 
HETATM   47  C26 UNL     1       3.026  25.037   3.595  1.00  0.00     0.033 C 
HETATM   48  C27 UNL     1       4.452  25.500   3.926  1.00  0.00     0.009 C 
BRANCH  46  49
HETATM   49  N5  UNL     1       3.098  26.560   1.683  1.00  0.00    -0.075 N 
ATOM     50  H53 UNL     1       2.451  26.629   0.898  1.00  0.00     0.274 HD
ATOM     51  H52 UNL     1       3.434  27.522   1.718  1.00  0.00     0.274 HD
ATOM     52  H51 UNL     1       3.864  25.924   1.457  1.00  0.00     0.274 HD
ENDBRANCH  46  49
ENDBRANCH  33  43
ENDBRANCH  31  33
ENDBRANCH   1  29
BRANCH   1  53
HETATM   53  C28 UNL     1       8.715  24.819   2.329  1.00  0.00    -0.022 C 
HETATM   54  C29 UNL     1       8.204  23.412   2.741  1.00  0.00     0.017 C 
HETATM   55  C30 UNL     1       9.998  24.493   1.553  1.00  0.00     0.017 C 
HETATM   56  C31 UNL     1       7.674  25.428   1.466  1.00  0.00     0.017 C 
ENDBRANCH   1  53
TORSDOF 20
ENDMDL
MODEL 5
REMARK VINA RESULT: -8.559128785      3.338      7.350
REMARK  20 active torsions:
REMARK  status: ('A' for Active; 'I' for Inactive)
REMARK    1  A    between atoms: C2_2  and  O1_5 
REMARK    2  A    between atoms: O1_5  and  C5_6 
REMARK       I    between atoms: C5_6  and  N1_8 
REMARK    3  A    between atoms: N1_8  and  C6_10 
REMARK    4  A    between atoms: C6_10  and  C7_11 
REMARK    5  A    between atoms: C6_10  and  C32_51 
REMARK    6  A    between atoms: C7_11  and  N2_12 
REMARK       I    between atoms: N2_12  and  C8_14 
REMARK    7  A    between atoms: C8_14  and  C9_16 
REMARK    8  A    between atoms: C9_16  and  C10_17 
REMARK    9  A    between atoms: C10_17  and  C11_18 
REMARK       I    between atoms: C11_18  and  N3_20 
REMARK   10  A    between atoms: N3_20  and  C12_22 
REMARK   11  A    between atoms: C12_22  and  C13_23 
REMARK   12  A    between atoms: C12_22  and  C28_47 
REMARK       I    between atoms: C13_23  and  N4_25 
REMARK   13  A    between atoms: N4_25  and  C14_27 
REMARK   14  A    between atoms: C14_27  and  C15_28 
REMARK   15  A    between atoms: C14_27  and  C22_37 
REMARK   16  A    between atoms: C15_28  and  O7_30 
REMARK   17  A    between atoms: O7_30  and  C16_31 
REMARK   18  A    between atoms: C25_40  and  N5_41 
REMARK   19  A    between atoms: C32_51  and  N6_52 
REMARK   20  A    between atoms: C32_51  and  O8_55 
ROOT
HETATM    1  C12 UNL     1      17.897  19.699   8.930  1.00  0.00     0.184 C 
ENDROOT
BRANCH   1   2
HETATM    2  N3  UNL     1      16.614  20.337   8.712  1.00  0.00    -0.347 N 
HETATM    3  C11 UNL     1      16.425  21.762   8.609  1.00  0.00     0.218 C 
HETATM    4  O4  UNL     1      17.436  22.467   8.706  1.00  0.00    -0.274 OA
ATOM      5  H3  UNL     1      15.792  19.739   8.626  1.00  0.00     0.163 HD
BRANCH   3   6
HETATM    6  C10 UNL     1      15.072  22.296   8.402  1.00  0.00     0.112 C 
BRANCH   6   7
HETATM    7  C9  UNL     1      14.224  21.691   7.383  1.00  0.00     0.112 C 
BRANCH   7   8
HETATM    8  C8  UNL     1      13.652  22.672   6.364  1.00  0.00     0.221 C 
HETATM    9  N2  UNL     1      12.336  22.611   5.985  1.00  0.00    -0.338 N 
ATOM     10  H2  UNL     1      11.910  21.838   6.497  1.00  0.00     0.167 HD
HETATM   11  O3  UNL     1      14.495  23.481   5.957  1.00  0.00    -0.273 OA
BRANCH   9  12
HETATM   12  C7  UNL     1      11.357  23.166   5.197  1.00  0.00     0.097 C 
BRANCH  12  13
HETATM   13  C6  UNL     1      11.413  24.452   4.502  1.00  0.00     0.199 C 
BRANCH  13  14
HETATM   14  N1  UNL     1      10.425  25.373   5.237  1.00  0.00    -0.320 N 
HETATM   15  C5  UNL     1      10.795  25.943   6.453  1.00  0.00     0.362 C 
HETATM   16  O2  UNL     1      11.958  25.684   6.898  1.00  0.00    -0.238 OA
ATOM     17  H1  UNL     1       9.507  25.565   4.837  1.00  0.00     0.166 HD
BRANCH  15  18
HETATM   18  O1  UNL     1      10.012  26.765   7.219  1.00  0.00    -0.294 OA
BRANCH  18  19
HETATM   19  C2  UNL     1       9.407  26.369   8.434  1.00  0.00     0.061 C 
HETATM   20  C1  UNL     1       8.284  27.316   8.815  1.00  0.00     0.046 C 
HETATM   21  C3  UNL     1      10.394  26.388   9.589  1.00  0.00     0.046 C 
HETATM   22  C4  UNL     1       8.858  24.975   8.292  1.00  0.00     0.046 C 
ENDBRANCH  18  19
ENDBRANCH  15  18
ENDBRANCH  13  14
BRANCH  13  23
HETATM   23  C32 UNL     1      10.989  24.643   3.124  1.00  0.00     0.137 C 
BRANCH  23  24
HETATM   24  N6  UNL     1       9.744  24.455   2.580  1.00  0.00    -0.382 N 
ATOM     25  H62 UNL     1       9.688  23.796   1.804  1.00  0.00     0.158 HD
ATOM     26  H61 UNL     1       8.862  24.892   2.846  1.00  0.00     0.158 HD
ENDBRANCH  23  24
BRANCH  23  27
HETATM   27  O8  UNL     1      11.921  25.052   2.304  1.00  0.00    -0.348 OA
ATOM     28  H8  UNL     1      12.205  24.414   1.660  1.00  0.00     0.219 HD
ENDBRANCH  23  27
ENDBRANCH  13  23
ENDBRANCH  12  13
ENDBRANCH   9  12
ENDBRANCH   7   8
ENDBRANCH   6   7
ENDBRANCH   3   6
ENDBRANCH   1   2
BRANCH   1  29
HETATM   29  C13 UNL     1      18.445  19.175   7.685  1.00  0.00     0.241 C 
HETATM   30  O5  UNL     1      19.114  20.004   6.977  1.00  0.00    -0.271 OA
HETATM   31  N4  UNL     1      18.295  17.885   7.221  1.00  0.00    -0.345 N 
ATOM     32  H4  UNL     1      17.749  17.234   7.786  1.00  0.00     0.163 HD
BRANCH  31  33
HETATM   33  C14 UNL     1      18.872  17.388   5.963  1.00  0.00     0.188 C 
BRANCH  33  34
HETATM   34  C15 UNL     1      18.188  18.115   4.877  1.00  0.00     0.282 C 
HETATM   35  O6  UNL     1      18.889  18.601   3.956  1.00  0.00    -0.263 OA
BRANCH  34  36
HETATM   36  O7  UNL     1      16.830  18.325   4.752  1.00  0.00    -0.314 OA
BRANCH  36  37
HETATM   37  C16 UNL     1      16.231  19.009   3.688  1.00  0.00     0.132 C 
HETATM   38  C17 UNL     1      15.126  18.286   3.010  1.00  0.00     0.032 C 
HETATM   39  C18 UNL     1      14.706  19.064   1.777  1.00  0.00     0.002 C 
HETATM   40  C19 UNL     1      14.748  20.543   1.952  1.00  0.00     0.000 C 
HETATM   41  C20 UNL     1      14.549  20.845   3.431  1.00  0.00     0.002 C 
HETATM   42  C21 UNL     1      15.793  20.359   4.146  1.00  0.00     0.032 C 
ENDBRANCH  36  37
ENDBRANCH  34  36
ENDBRANCH  33  34
BRANCH  33  43
HETATM   43  C22 UNL     1      18.832  15.911   5.882  1.00  0.00     0.018 C 
HETATM   44  C23 UNL     1      19.546  15.350   4.680  1.00  0.00     0.009 C 
HETATM   45  C24 UNL     1      19.837  13.896   4.760  1.00  0.00     0.033 C 
HETATM   46  C25 UNL     1      20.225  13.360   6.091  1.00  0.00     0.183 C 
HETATM   47  C26 UNL     1      19.154  13.755   7.099  1.00  0.00     0.033 C 
HETATM   48  C27 UNL     1      19.230  15.287   7.170  1.00  0.00     0.009 C 
BRANCH  46  49
HETATM   49  N5  UNL     1      21.536  13.776   6.546  1.00  0.00    -0.075 N 
ATOM     50  H53 UNL     1      22.127  14.020   5.752  1.00  0.00     0.274 HD
ATOM     51  H52 UNL     1      21.480  14.684   7.008  1.00  0.00     0.274 HD
ATOM     52  H51 UNL     1      22.008  13.100   7.147  1.00  0.00     0.274 HD
ENDBRANCH  46  49
ENDBRANCH  33  43
ENDBRANCH  31  33
ENDBRANCH   1  29
BRANCH   1  53
HETATM   53  C28 UNL     1      17.884  18.797  10.115  1.00  0.00    -0.022 C 
HETATM   54  C29 UNL     1      18.424  19.656  11.291  1.00  0.00     0.017 C 
HETATM   55  C30 UNL     1      18.937  17.686  10.003  1.00  0.00     0.017 C 
HETATM   56  C31 UNL     1      16.557  18.276  10.527  1.00  0.00     0.017 C 
ENDBRANCH   1  53
TORSDOF 20
ENDMDL
