MODEL 1
REMARK VINA RESULT: -9.170798205      0.000      0.000
REMARK  16 active torsions:
REMARK  status: ('A' for Active; 'I' for Inactive)
REMARK    1  A    between atoms: C2_2  and  C3_3 
REMARK    2  A    between atoms: C3_3  and  C5_5 
REMARK    3  A    between atoms: C6_8  and  O1_9 
REMARK    4  A    between atoms: C7_12  and  C8_13 
REMARK       I    between atoms: N2_17  and  C12_18 
REMARK       I    between atoms: C12_18  and  N3_20 
REMARK    5  A    between atoms: N3_20  and  C13_22 
REMARK    6  A    between atoms: C13_22  and  C14_23 
REMARK    7  A    between atoms: C13_22  and  C26_43 
REMARK       I    between atoms: C14_23  and  N4_25 
REMARK    8  A    between atoms: N4_25  and  C15_27 
REMARK    9  A    between atoms: C15_27  and  C16_28 
REMARK   10  A    between atoms: C15_27  and  C20_32 
REMARK   11  A    between atoms: C16_28  and  C17_29 
REMARK   12  A    between atoms: C20_32  and  O5_33 
REMARK   13  A    between atoms: C20_32  and  C21_35 
REMARK       I    between atoms: C21_35  and  N5_37 
REMARK   14  A    between atoms: N5_37  and  C22_39 
REMARK   15  A    between atoms: C22_39  and  C23_40 
REMARK   16  A    between atoms: C26_43  and  C28_45 
ROOT
HETATM    1  C5  UNL     1      17.017  18.384   3.289  1.00  0.00     0.181 C 
HETATM    2  N1  UNL     1      17.704  19.436   3.940  1.00  0.00    -0.337 N 
ATOM      3  H1  UNL     1      18.376  19.923   3.346  1.00  0.00     0.164 HD
HETATM    4  C6  UNL     1      17.634  19.950   5.281  1.00  0.00     0.264 C 
HETATM    5  O2  UNL     1      16.598  20.587   5.782  1.00  0.00    -0.277 OA
HETATM    6  C7  UNL     1      16.007  21.425   6.641  1.00  0.00     0.076 C 
HETATM    7  C11 UNL     1      14.905  22.318   6.345  1.00  0.00     0.134 C 
HETATM    8  N2  UNL     1      14.047  22.191   5.216  1.00  0.00    -0.287 N 
HETATM    9  C12 UNL     1      13.180  23.290   4.943  1.00  0.00     0.326 C 
HETATM   10  O3  UNL     1      13.256  24.337   5.692  1.00  0.00    -0.246 OA
HETATM   11  N3  UNL     1      12.237  23.366   3.941  1.00  0.00    -0.329 N 
ATOM     12  H3  UNL     1      12.138  22.558   3.326  1.00  0.00     0.165 HD
HETATM   13  C30 UNL     1      14.017  21.074   4.369  1.00  0.00     0.075 C 
HETATM   14  C31 UNL     1      14.734  21.209   3.059  1.00  0.00     0.065 C 
HETATM   15  C32 UNL     1      14.649  19.955   2.224  1.00  0.00     0.128 C 
HETATM   16  N6  UNL     1      14.512  18.804   3.062  1.00  0.00    -0.359 N 
ATOM     17  H6  UNL     1      13.577  18.423   3.207  1.00  0.00     0.162 HD
HETATM   18  C33 UNL     1      15.610  18.157   3.707  1.00  0.00     0.240 C 
HETATM   19  O7  UNL     1      15.434  17.358   4.668  1.00  0.00    -0.271 OA
ENDROOT
BRANCH  11  20
HETATM   20  C13 UNL     1      11.355  24.534   3.684  1.00  0.00     0.182 C 
BRANCH  20  21
HETATM   21  C14 UNL     1      10.490  24.763   4.832  1.00  0.00     0.241 C 
HETATM   22  O4  UNL     1      10.074  23.727   5.467  1.00  0.00    -0.271 OA
HETATM   23  N4  UNL     1      10.050  25.991   5.367  1.00  0.00    -0.352 N 
ATOM     24  H4  UNL     1      10.327  26.849   4.890  1.00  0.00     0.163 HD
BRANCH  23  25
HETATM   25  C15 UNL     1       9.214  26.106   6.571  1.00  0.00     0.122 C 
BRANCH  25  26
HETATM   26  C16 UNL     1      10.172  26.595   7.620  1.00  0.00     0.032 C 
BRANCH  26  27
HETATM   27  C17 UNL     1      10.047  26.203   9.022  1.00  0.00    -0.021 C 
HETATM   28  C18 UNL     1       9.837  27.571   9.779  1.00  0.00     0.009 C 
HETATM   29  C19 UNL     1       8.872  25.397   9.465  1.00  0.00     0.009 C 
ENDBRANCH  26  27
ENDBRANCH  25  26
BRANCH  25  30
HETATM   30  C20 UNL     1       8.092  27.037   6.316  1.00  0.00     0.232 C 
BRANCH  30  31
HETATM   31  O5  UNL     1       8.480  28.389   6.404  1.00  0.00    -0.384 OA
ATOM     32  H5  UNL     1       7.859  28.974   5.989  1.00  0.00     0.210 HD
ENDBRANCH  30  31
BRANCH  30  33
HETATM   33  C21 UNL     1       7.366  26.873   5.036  1.00  0.00     0.248 C 
HETATM   34  O6  UNL     1       7.865  27.351   3.993  1.00  0.00    -0.271 OA
HETATM   35  N5  UNL     1       6.125  26.183   4.975  1.00  0.00    -0.358 N 
ATOM     36  H5  UNL     1       5.738  25.810   5.841  1.00  0.00     0.162 HD
BRANCH  35  37
HETATM   37  C22 UNL     1       5.384  25.980   3.757  1.00  0.00     0.126 C 
BRANCH  37  38
HETATM   38  C23 UNL     1       5.891  24.760   3.010  1.00  0.00    -0.005 C 
HETATM   39  C24 UNL     1       6.132  25.072   1.550  1.00  0.00     0.011 C 
HETATM   40  C25 UNL     1       4.840  23.672   3.078  1.00  0.00     0.011 C 
ENDBRANCH  37  38
ENDBRANCH  35  37
ENDBRANCH  30  33
ENDBRANCH  25  30
ENDBRANCH  23  25
ENDBRANCH  20  21
BRANCH  20  41
HETATM   41  C26 UNL     1      10.848  24.505   2.321  1.00  0.00     0.013 C 
HETATM   42  C27 UNL     1       9.791  25.626   2.115  1.00  0.00     0.012 C 
BRANCH  41  43
HETATM   43  C28 UNL     1      10.233  23.302   1.718  1.00  0.00     0.002 C 
HETATM   44  C29 UNL     1       8.922  22.856   2.261  1.00  0.00     0.005 C 
ENDBRANCH  41  43
ENDBRANCH  20  41
ENDBRANCH  11  20
BRANCH   6  45
HETATM   45  C8  UNL     1      15.698  20.749   8.018  1.00  0.00     0.036 C 
HETATM   46  C9  UNL     1      14.871  21.685   8.887  1.00  0.00     0.016 C 
HETATM   47  C10 UNL     1      16.928  20.425   8.781  1.00  0.00     0.016 C 
ENDBRANCH   6  45
BRANCH   4  48
HETATM   48  O1  UNL     1      18.785  19.658   5.877  1.00  0.00    -0.327 OA
ATOM     49  H1  UNL     1      19.477  20.066   5.371  1.00  0.00     0.221 HD
ENDBRANCH   4  48
BRANCH   1  50
HETATM   50  C3  UNL     1      17.816  17.088   3.218  1.00  0.00     0.013 C 
HETATM   51  C4  UNL     1      17.880  16.491   1.857  1.00  0.00     0.012 C 
BRANCH  50  52
HETATM   52  C2  UNL     1      19.204  17.220   3.774  1.00  0.00     0.002 C 
HETATM   53  C1  UNL     1      19.498  16.086   4.740  1.00  0.00     0.005 C 
ENDBRANCH  50  52
ENDBRANCH   1  50
TORSDOF 16
ENDMDL
MODEL 2
REMARK VINA RESULT: -9.162455796      1.492      2.182
REMARK  16 active torsions:
REMARK  status: ('A' for Active; 'I' for Inactive)
REMARK    1  A    between atoms: C2_2  and  C3_3 
REMARK    2  A    between atoms: C3_3  and  C5_5 
REMARK    3  A    between atoms: C6_8  and  O1_9 
REMARK    4  A    between atoms: C7_12  and  C8_13 
REMARK       I    between atoms: N2_17  and  C12_18 
REMARK       I    between atoms: C12_18  and  N3_20 
REMARK    5  A    between atoms: N3_20  and  C13_22 
REMARK    6  A    between atoms: C13_22  and  C14_23 
REMARK    7  A    between atoms: C13_22  and  C26_43 
REMARK       I    between atoms: C14_23  and  N4_25 
REMARK    8  A    between atoms: N4_25  and  C15_27 
REMARK    9  A    between atoms: C15_27  and  C16_28 
REMARK   10  A    between atoms: C15_27  and  C20_32 
REMARK   11  A    between atoms: C16_28  and  C17_29 
REMARK   12  A    between atoms: C20_32  and  O5_33 
REMARK   13  A    between atoms: C20_32  and  C21_35 
REMARK       I    between atoms: C21_35  and  N5_37 
REMARK   14  A    between atoms: N5_37  and  C22_39 
REMARK   15  A    between atoms: C22_39  and  C23_40 
REMARK   16  A    between atoms: C26_43  and  C28_45 
ROOT
HETATM    1  C5  UNL     1      17.011  18.381   3.287  1.00  0.00     0.181 C 
HETATM    2  N1  UNL     1      17.695  19.434   3.942  1.00  0.00    -0.337 N 
ATOM      3  H1  UNL     1      18.371  19.919   3.351  1.00  0.00     0.164 HD
HETATM    4  C6  UNL     1      17.616  19.951   5.281  1.00  0.00     0.264 C 
HETATM    5  O2  UNL     1      16.578  20.590   5.773  1.00  0.00    -0.277 OA
HETATM    6  C7  UNL     1      15.981  21.430   6.626  1.00  0.00     0.076 C 
HETATM    7  C11 UNL     1      14.882  22.324   6.321  1.00  0.00     0.134 C 
HETATM    8  N2  UNL     1      14.033  22.197   5.186  1.00  0.00    -0.287 N 
HETATM    9  C12 UNL     1      13.169  23.296   4.904  1.00  0.00     0.326 C 
HETATM   10  O3  UNL     1      13.241  24.344   5.652  1.00  0.00    -0.246 OA
HETATM   11  N3  UNL     1      12.234  23.371   3.895  1.00  0.00    -0.329 N 
ATOM     12  H3  UNL     1      12.137  22.562   3.282  1.00  0.00     0.165 HD
HETATM   13  C30 UNL     1      14.007  21.077   4.341  1.00  0.00     0.075 C 
HETATM   14  C31 UNL     1      14.734  21.209   3.036  1.00  0.00     0.065 C 
HETATM   15  C32 UNL     1      14.652  19.954   2.202  1.00  0.00     0.128 C 
HETATM   16  N6  UNL     1      14.509  18.805   3.041  1.00  0.00    -0.359 N 
ATOM     17  H6  UNL     1      13.572  18.425   3.180  1.00  0.00     0.162 HD
HETATM   18  C33 UNL     1      15.601  18.158   3.695  1.00  0.00     0.240 C 
HETATM   19  O7  UNL     1      15.417  17.361   4.657  1.00  0.00    -0.271 OA
ENDROOT
BRANCH  11  20
HETATM   20  C13 UNL     1      11.355  24.540   3.630  1.00  0.00     0.182 C 
BRANCH  20  21
HETATM   21  C14 UNL     1      10.557  24.838   4.811  1.00  0.00     0.241 C 
HETATM   22  O4  UNL     1       9.877  23.874   5.316  1.00  0.00    -0.271 OA
HETATM   23  N4  UNL     1      10.440  26.061   5.503  1.00  0.00    -0.352 N 
ATOM     24  H4  UNL     1      10.938  26.871   5.136  1.00  0.00     0.163 HD
BRANCH  23  25
HETATM   25  C15 UNL     1       9.641  26.235   6.726  1.00  0.00     0.122 C 
BRANCH  25  26
HETATM   26  C16 UNL     1      10.672  26.300   7.815  1.00  0.00     0.032 C 
BRANCH  26  27
HETATM   27  C17 UNL     1      10.425  27.007   9.071  1.00  0.00    -0.021 C 
HETATM   28  C18 UNL     1       9.694  25.936   9.969  1.00  0.00     0.009 C 
HETATM   29  C19 UNL     1      11.575  27.426   9.924  1.00  0.00     0.009 C 
ENDBRANCH  26  27
ENDBRANCH  25  26
BRANCH  25  30
HETATM   30  C20 UNL     1       8.818  27.461   6.616  1.00  0.00     0.232 C 
BRANCH  30  31
HETATM   31  O5  UNL     1       8.912  28.062   5.345  1.00  0.00    -0.384 OA
ATOM     32  H5  UNL     1       8.368  28.836   5.268  1.00  0.00     0.210 HD
ENDBRANCH  30  31
BRANCH  30  33
HETATM   33  C21 UNL     1       7.378  27.329   6.932  1.00  0.00     0.248 C 
HETATM   34  O6  UNL     1       7.029  26.556   7.853  1.00  0.00    -0.271 OA
HETATM   35  N5  UNL     1       6.395  28.064   6.216  1.00  0.00    -0.358 N 
ATOM     36  H5  UNL     1       6.707  28.682   5.466  1.00  0.00     0.162 HD
BRANCH  35  37
HETATM   37  C22 UNL     1       4.983  27.988   6.489  1.00  0.00     0.126 C 
BRANCH  37  38
HETATM   38  C23 UNL     1       4.567  29.047   7.494  1.00  0.00    -0.005 C 
HETATM   39  C24 UNL     1       3.329  28.625   8.254  1.00  0.00     0.011 C 
HETATM   40  C25 UNL     1       4.236  30.324   6.751  1.00  0.00     0.011 C 
ENDBRANCH  37  38
ENDBRANCH  35  37
ENDBRANCH  30  33
ENDBRANCH  25  30
ENDBRANCH  23  25
ENDBRANCH  20  21
BRANCH  20  41
HETATM   41  C26 UNL     1      10.773  24.454   2.300  1.00  0.00     0.013 C 
HETATM   42  C27 UNL     1       9.692  25.555   2.112  1.00  0.00     0.012 C 
BRANCH  41  43
HETATM   43  C28 UNL     1      10.141  23.222   1.777  1.00  0.00     0.002 C 
HETATM   44  C29 UNL     1       8.769  22.900   2.251  1.00  0.00     0.005 C 
ENDBRANCH  41  43
ENDBRANCH  20  41
ENDBRANCH  11  20
BRANCH   6  45
HETATM   45  C8  UNL     1      15.661  20.757   8.002  1.00  0.00     0.036 C 
HETATM   46  C9  UNL     1      14.847  21.705   8.872  1.00  0.00     0.016 C 
HETATM   47  C10 UNL     1      16.886  20.414   8.765  1.00  0.00     0.016 C 
ENDBRANCH   6  45
BRANCH   4  48
HETATM   48  O1  UNL     1      18.762  19.658   5.886  1.00  0.00    -0.327 OA
ATOM     49  H1  UNL     1      18.755  20.093   6.730  1.00  0.00     0.221 HD
ENDBRANCH   4  48
BRANCH   1  50
HETATM   50  C3  UNL     1      17.809  17.084   3.225  1.00  0.00     0.013 C 
HETATM   51  C4  UNL     1      17.889  16.490   1.863  1.00  0.00     0.012 C 
BRANCH  50  52
HETATM   52  C2  UNL     1      19.190  17.214   3.798  1.00  0.00     0.002 C 
HETATM   53  C1  UNL     1      19.389  16.221   4.929  1.00  0.00     0.005 C 
ENDBRANCH  50  52
ENDBRANCH   1  50
TORSDOF 16
ENDMDL
MODEL 3
REMARK VINA RESULT: -8.806762272      1.953     11.649
REMARK  16 active torsions:
REMARK  status: ('A' for Active; 'I' for Inactive)
REMARK    1  A    between atoms: C2_2  and  C3_3 
REMARK    2  A    between atoms: C3_3  and  C5_5 
REMARK    3  A    between atoms: C6_8  and  O1_9 
REMARK    4  A    between atoms: C7_12  and  C8_13 
REMARK       I    between atoms: N2_17  and  C12_18 
REMARK       I    between atoms: C12_18  and  N3_20 
REMARK    5  A    between atoms: N3_20  and  C13_22 
REMARK    6  A    between atoms: C13_22  and  C14_23 
REMARK    7  A    between atoms: C13_22  and  C26_43 
REMARK       I    between atoms: C14_23  and  N4_25 
REMARK    8  A    between atoms: N4_25  and  C15_27 
REMARK    9  A    between atoms: C15_27  and  C16_28 
REMARK   10  A    between atoms: C15_27  and  C20_32 
REMARK   11  A    between atoms: C16_28  and  C17_29 
REMARK   12  A    between atoms: C20_32  and  O5_33 
REMARK   13  A    between atoms: C20_32  and  C21_35 
REMARK       I    between atoms: C21_35  and  N5_37 
REMARK   14  A    between atoms: N5_37  and  C22_39 
REMARK   15  A    between atoms: C22_39  and  C23_40 
REMARK   16  A    between atoms: C26_43  and  C28_45 
ROOT
HETATM    1  C5  UNL     1       8.822  27.520   8.154  1.00  0.00     0.181 C 
HETATM    2  N1  UNL     1       9.195  27.802   6.817  1.00  0.00    -0.337 N 
ATOM      3  H1  UNL     1       9.640  28.713   6.694  1.00  0.00     0.164 HD
HETATM    4  C6  UNL     1       9.066  27.048   5.600  1.00  0.00     0.264 C 
HETATM    5  O2  UNL     1       9.723  25.941   5.337  1.00  0.00    -0.277 OA
HETATM    6  C7  UNL     1      10.247  25.024   4.515  1.00  0.00     0.076 C 
HETATM    7  C11 UNL     1      11.487  24.302   4.716  1.00  0.00     0.134 C 
HETATM    8  N2  UNL     1      12.155  24.182   5.968  1.00  0.00    -0.287 N 
HETATM    9  C12 UNL     1      13.480  23.656   5.941  1.00  0.00     0.326 C 
HETATM   10  O3  UNL     1      14.007  23.371   4.799  1.00  0.00    -0.246 OA
HETATM   11  N3  UNL     1      14.290  23.406   7.027  1.00  0.00    -0.329 N 
ATOM     12  H3  UNL     1      13.912  23.611   7.952  1.00  0.00     0.165 HD
HETATM   13  C30 UNL     1      11.596  24.554   7.199  1.00  0.00     0.075 C 
HETATM   14  C31 UNL     1      12.042  25.870   7.764  1.00  0.00     0.065 C 
HETATM   15  C32 UNL     1      11.382  26.182   9.085  1.00  0.00     0.128 C 
HETATM   16  N6  UNL     1      10.098  25.558   9.163  1.00  0.00    -0.359 N 
ATOM     17  H6  UNL     1      10.024  24.673   9.666  1.00  0.00     0.162 HD
HETATM   18  C33 UNL     1       8.915  26.101   8.578  1.00  0.00     0.240 C 
HETATM   19  O7  UNL     1       7.885  25.394   8.393  1.00  0.00    -0.271 OA
ENDROOT
BRANCH  11  20
HETATM   20  C13 UNL     1      15.671  22.862   6.956  1.00  0.00     0.182 C 
BRANCH  20  21
HETATM   21  C14 UNL     1      15.658  21.563   6.299  1.00  0.00     0.241 C 
HETATM   22  O4  UNL     1      14.815  20.697   6.731  1.00  0.00    -0.271 OA
HETATM   23  N4  UNL     1      16.449  21.121   5.219  1.00  0.00    -0.352 N 
ATOM     24  H4  UNL     1      17.155  21.756   4.848  1.00  0.00     0.163 HD
BRANCH  23  25
HETATM   25  C15 UNL     1      16.314  19.795   4.596  1.00  0.00     0.122 C 
BRANCH  25  26
HETATM   26  C16 UNL     1      15.602  20.083   3.305  1.00  0.00     0.032 C 
BRANCH  26  27
HETATM   27  C17 UNL     1      15.660  19.164   2.170  1.00  0.00    -0.021 C 
HETATM   28  C18 UNL     1      14.598  18.054   2.529  1.00  0.00     0.009 C 
HETATM   29  C19 UNL     1      15.216  19.623   0.822  1.00  0.00     0.009 C 
ENDBRANCH  26  27
ENDBRANCH  25  26
BRANCH  25  30
HETATM   30  C20 UNL     1      17.652  19.189   4.411  1.00  0.00     0.232 C 
BRANCH  30  31
HETATM   31  O5  UNL     1      18.674  19.940   5.024  1.00  0.00    -0.384 OA
ATOM     32  H5  UNL     1      19.065  20.573   4.434  1.00  0.00     0.210 HD
ENDBRANCH  30  31
BRANCH  30  33
HETATM   33  C21 UNL     1      17.816  17.786   4.851  1.00  0.00     0.248 C 
HETATM   34  O6  UNL     1      16.824  17.023   4.824  1.00  0.00    -0.271 OA
HETATM   35  N5  UNL     1      19.073  17.294   5.295  1.00  0.00    -0.358 N 
ATOM     36  H5  UNL     1      19.864  17.939   5.314  1.00  0.00     0.162 HD
BRANCH  35  37
HETATM   37  C22 UNL     1      19.295  15.937   5.721  1.00  0.00     0.126 C 
BRANCH  37  38
HETATM   38  C23 UNL     1      19.977  15.131   4.629  1.00  0.00    -0.005 C 
HETATM   39  C24 UNL     1      19.806  13.645   4.856  1.00  0.00     0.011 C 
HETATM   40  C25 UNL     1      21.461  15.430   4.655  1.00  0.00     0.011 C 
ENDBRANCH  37  38
ENDBRANCH  35  37
ENDBRANCH  30  33
ENDBRANCH  25  30
ENDBRANCH  23  25
ENDBRANCH  20  21
BRANCH  20  41
HETATM   41  C26 UNL     1      16.380  23.096   8.205  1.00  0.00     0.013 C 
HETATM   42  C27 UNL     1      17.664  22.223   8.267  1.00  0.00     0.012 C 
BRANCH  41  43
HETATM   43  C28 UNL     1      15.749  22.920   9.532  1.00  0.00     0.002 C 
HETATM   44  C29 UNL     1      15.424  21.534   9.959  1.00  0.00     0.005 C 
ENDBRANCH  41  43
ENDBRANCH  20  41
ENDBRANCH  11  20
BRANCH   6  45
HETATM   45  C8  UNL     1       9.184  23.988   4.020  1.00  0.00     0.036 C 
HETATM   46  C9  UNL     1       9.780  23.104   2.934  1.00  0.00     0.016 C 
HETATM   47  C10 UNL     1       7.985  24.638   3.438  1.00  0.00     0.016 C 
ENDBRANCH   6  45
BRANCH   4  48
HETATM   48  O1  UNL     1       8.183  27.680   4.835  1.00  0.00    -0.327 OA
ATOM     49  H1  UNL     1       7.635  27.019   4.430  1.00  0.00     0.221 HD
ENDBRANCH   4  48
BRANCH   1  50
HETATM   50  C3  UNL     1       7.503  28.164   8.565  1.00  0.00     0.013 C 
HETATM   51  C4  UNL     1       7.554  28.854   9.882  1.00  0.00     0.012 C 
BRANCH  50  52
HETATM   52  C2  UNL     1       6.955  29.101   7.529  1.00  0.00     0.002 C 
HETATM   53  C1  UNL     1       5.534  28.712   7.162  1.00  0.00     0.005 C 
ENDBRANCH  50  52
ENDBRANCH   1  50
TORSDOF 16
ENDMDL
MODEL 4
REMARK VINA RESULT: -8.596384388      2.100     11.618
REMARK  16 active torsions:
REMARK  status: ('A' for Active; 'I' for Inactive)
REMARK    1  A    between atoms: C2_2  and  C3_3 
REMARK    2  A    between atoms: C3_3  and  C5_5 
REMARK    3  A    between atoms: C6_8  and  O1_9 
REMARK    4  A    between atoms: C7_12  and  C8_13 
REMARK       I    between atoms: N2_17  and  C12_18 
REMARK       I    between atoms: C12_18  and  N3_20 
REMARK    5  A    between atoms: N3_20  and  C13_22 
REMARK    6  A    between atoms: C13_22  and  C14_23 
REMARK    7  A    between atoms: C13_22  and  C26_43 
REMARK       I    between atoms: C14_23  and  N4_25 
REMARK    8  A    between atoms: N4_25  and  C15_27 
REMARK    9  A    between atoms: C15_27  and  C16_28 
REMARK   10  A    between atoms: C15_27  and  C20_32 
REMARK   11  A    between atoms: C16_28  and  C17_29 
REMARK   12  A    between atoms: C20_32  and  O5_33 
REMARK   13  A    between atoms: C20_32  and  C21_35 
REMARK       I    between atoms: C21_35  and  N5_37 
REMARK   14  A    between atoms: N5_37  and  C22_39 
REMARK   15  A    between atoms: C22_39  and  C23_40 
REMARK   16  A    between atoms: C26_43  and  C28_45 
ROOT
HETATM    1  C5  UNL     1       8.793  27.503   8.132  1.00  0.00     0.181 C 
HETATM    2  N1  UNL     1       9.159  27.794   6.796  1.00  0.00    -0.337 N 
ATOM      3  H1  UNL     1       9.600  28.707   6.677  1.00  0.00     0.164 HD
HETATM    4  C6  UNL     1       9.027  27.047   5.574  1.00  0.00     0.264 C 
HETATM    5  O2  UNL     1       9.687  25.944   5.302  1.00  0.00    -0.277 OA
HETATM    6  C7  UNL     1      10.210  25.034   4.472  1.00  0.00     0.076 C 
HETATM    7  C11 UNL     1      11.454  24.315   4.663  1.00  0.00     0.134 C 
HETATM    8  N2  UNL     1      12.127  24.189   5.911  1.00  0.00    -0.287 N 
HETATM    9  C12 UNL     1      13.453  23.668   5.875  1.00  0.00     0.326 C 
HETATM   10  O3  UNL     1      13.976  23.392   4.729  1.00  0.00    -0.246 OA
HETATM   11  N3  UNL     1      14.269  23.414   6.956  1.00  0.00    -0.329 N 
ATOM     12  H3  UNL     1      13.894  23.611   7.885  1.00  0.00     0.165 HD
HETATM   13  C30 UNL     1      11.572  24.552   7.147  1.00  0.00     0.075 C 
HETATM   14  C31 UNL     1      12.017  25.865   7.719  1.00  0.00     0.065 C 
HETATM   15  C32 UNL     1      11.361  26.167   9.044  1.00  0.00     0.128 C 
HETATM   16  N6  UNL     1      10.079  25.538   9.124  1.00  0.00    -0.359 N 
ATOM     17  H6  UNL     1      10.010  24.650   9.621  1.00  0.00     0.162 HD
HETATM   18  C33 UNL     1       8.891  26.081   8.547  1.00  0.00     0.240 C 
HETATM   19  O7  UNL     1       7.863  25.371   8.362  1.00  0.00    -0.271 OA
ENDROOT
BRANCH  11  20
HETATM   20  C13 UNL     1      15.652  22.875   6.877  1.00  0.00     0.182 C 
BRANCH  20  21
HETATM   21  C14 UNL     1      15.632  21.550   6.273  1.00  0.00     0.241 C 
HETATM   22  O4  UNL     1      14.829  20.687   6.780  1.00  0.00    -0.271 OA
HETATM   23  N4  UNL     1      16.377  21.079   5.172  1.00  0.00    -0.352 N 
ATOM     24  H4  UNL     1      17.052  21.711   4.742  1.00  0.00     0.163 HD
BRANCH  23  25
HETATM   25  C15 UNL     1      16.238  19.727   4.609  1.00  0.00     0.122 C 
BRANCH  25  26
HETATM   26  C16 UNL     1      15.558  19.962   3.291  1.00  0.00     0.032 C 
BRANCH  26  27
HETATM   27  C17 UNL     1      15.437  18.908   2.286  1.00  0.00    -0.021 C 
HETATM   28  C18 UNL     1      14.541  19.559   1.163  1.00  0.00     0.009 C 
HETATM   29  C19 UNL     1      16.643  18.462   1.530  1.00  0.00     0.009 C 
ENDBRANCH  26  27
ENDBRANCH  25  26
BRANCH  25  30
HETATM   30  C20 UNL     1      17.572  19.096   4.483  1.00  0.00     0.232 C 
BRANCH  30  31
HETATM   31  O5  UNL     1      18.596  19.882   5.048  1.00  0.00    -0.384 OA
ATOM     32  H5  UNL     1      19.335  19.362   5.340  1.00  0.00     0.210 HD
ENDBRANCH  30  31
BRANCH  30  33
HETATM   33  C21 UNL     1      17.718  17.729   5.030  1.00  0.00     0.248 C 
HETATM   34  O6  UNL     1      16.788  16.908   4.863  1.00  0.00    -0.271 OA
HETATM   35  N5  UNL     1      18.890  17.336   5.730  1.00  0.00    -0.358 N 
ATOM     36  H5  UNL     1      19.630  18.027   5.858  1.00  0.00     0.162 HD
BRANCH  35  37
HETATM   37  C22 UNL     1      19.094  16.016   6.270  1.00  0.00     0.126 C 
BRANCH  37  38
HETATM   38  C23 UNL     1      19.627  16.088   7.690  1.00  0.00    -0.005 C 
HETATM   39  C24 UNL     1      21.026  15.520   7.780  1.00  0.00     0.011 C 
HETATM   40  C25 UNL     1      18.736  15.257   8.589  1.00  0.00     0.011 C 
ENDBRANCH  37  38
ENDBRANCH  35  37
ENDBRANCH  30  33
ENDBRANCH  25  30
ENDBRANCH  23  25
ENDBRANCH  20  21
BRANCH  20  41
HETATM   41  C26 UNL     1      16.386  23.162   8.098  1.00  0.00     0.013 C 
HETATM   42  C27 UNL     1      17.669  22.288   8.175  1.00  0.00     0.012 C 
BRANCH  41  43
HETATM   43  C28 UNL     1      15.782  23.051   9.445  1.00  0.00     0.002 C 
HETATM   44  C29 UNL     1      15.414  21.691   9.921  1.00  0.00     0.005 C 
ENDBRANCH  41  43
ENDBRANCH  20  41
ENDBRANCH  11  20
BRANCH   6  45
HETATM   45  C8  UNL     1       9.149  23.998   3.975  1.00  0.00     0.036 C 
HETATM   46  C9  UNL     1       9.769  23.066   2.944  1.00  0.00     0.016 C 
HETATM   47  C10 UNL     1       7.983  24.646   3.325  1.00  0.00     0.016 C 
ENDBRANCH   6  45
BRANCH   4  48
HETATM   48  O1  UNL     1       8.139  27.682   4.817  1.00  0.00    -0.327 OA
ATOM     49  H1  UNL     1       7.958  28.516   5.233  1.00  0.00     0.221 HD
ENDBRANCH   4  48
BRANCH   1  50
HETATM   50  C3  UNL     1       7.473  28.139   8.554  1.00  0.00     0.013 C 
HETATM   51  C4  UNL     1       7.528  28.823   9.874  1.00  0.00     0.012 C 
BRANCH  50  52
HETATM   52  C2  UNL     1       6.917  29.079   7.524  1.00  0.00     0.002 C 
HETATM   53  C1  UNL     1       5.518  28.650   7.117  1.00  0.00     0.005 C 
ENDBRANCH  50  52
ENDBRANCH   1  50
TORSDOF 16
ENDMDL
MODEL 5
REMARK VINA RESULT: -8.553483971      2.102     11.406
REMARK  16 active torsions:
REMARK  status: ('A' for Active; 'I' for Inactive)
REMARK    1  A    between atoms: C2_2  and  C3_3 
REMARK    2  A    between atoms: C3_3  and  C5_5 
REMARK    3  A    between atoms: C6_8  and  O1_9 
REMARK    4  A    between atoms: C7_12  and  C8_13 
REMARK       I    between atoms: N2_17  and  C12_18 
REMARK       I    between atoms: C12_18  and  N3_20 
REMARK    5  A    between atoms: N3_20  and  C13_22 
REMARK    6  A    between atoms: C13_22  and  C14_23 
REMARK    7  A    between atoms: C13_22  and  C26_43 
REMARK       I    between atoms: C14_23  and  N4_25 
REMARK    8  A    between atoms: N4_25  and  C15_27 
REMARK    9  A    between atoms: C15_27  and  C16_28 
REMARK   10  A    between atoms: C15_27  and  C20_32 
REMARK   11  A    between atoms: C16_28  and  C17_29 
REMARK   12  A    between atoms: C20_32  and  O5_33 
REMARK   13  A    between atoms: C20_32  and  C21_35 
REMARK       I    between atoms: C21_35  and  N5_37 
REMARK   14  A    between atoms: N5_37  and  C22_39 
REMARK   15  A    between atoms: C22_39  and  C23_40 
REMARK   16  A    between atoms: C26_43  and  C28_45 
ROOT
HETATM    1  C5  UNL     1       8.343  27.618   8.003  1.00  0.00     0.181 C 
HETATM    2  N1  UNL     1       8.759  27.909   6.681  1.00  0.00    -0.337 N 
ATOM      3  H1  UNL     1       9.219  28.815   6.582  1.00  0.00     0.164 HD
HETATM    4  C6  UNL     1       8.658  27.168   5.453  1.00  0.00     0.264 C 
HETATM    5  O2  UNL     1       9.309  26.055   5.199  1.00  0.00    -0.277 OA
HETATM    6  C7  UNL     1       9.846  25.141   4.384  1.00  0.00     0.076 C 
HETATM    7  C11 UNL     1      11.071  24.401   4.615  1.00  0.00     0.134 C 
HETATM    8  N2  UNL     1      11.698  24.260   5.885  1.00  0.00    -0.287 N 
HETATM    9  C12 UNL     1      13.017  23.717   5.893  1.00  0.00     0.326 C 
HETATM   10  O3  UNL     1      13.575  23.437   4.764  1.00  0.00    -0.246 OA
HETATM   11  N3  UNL     1      13.790  23.446   7.000  1.00  0.00    -0.329 N 
ATOM     12  H3  UNL     1      13.387  23.647   7.916  1.00  0.00     0.165 HD
HETATM   13  C30 UNL     1      11.107  24.627   7.103  1.00  0.00     0.075 C 
HETATM   14  C31 UNL     1      11.552  25.931   7.695  1.00  0.00     0.065 C 
HETATM   15  C32 UNL     1      10.857  26.239   8.998  1.00  0.00     0.128 C 
HETATM   16  N6  UNL     1       9.563  25.630   9.031  1.00  0.00    -0.359 N 
ATOM     17  H6  UNL     1       9.463  24.741   9.522  1.00  0.00     0.162 HD
HETATM   18  C33 UNL     1       8.404  26.194   8.415  1.00  0.00     0.240 C 
HETATM   19  O7  UNL     1       7.372  25.502   8.192  1.00  0.00    -0.271 OA
ENDROOT
BRANCH  11  20
HETATM   20  C13 UNL     1      15.167  22.886   6.966  1.00  0.00     0.182 C 
BRANCH  20  21
HETATM   21  C14 UNL     1      15.163  21.609   6.266  1.00  0.00     0.241 C 
HETATM   22  O4  UNL     1      14.266  20.757   6.606  1.00  0.00    -0.271 OA
HETATM   23  N4  UNL     1      16.017  21.176   5.231  1.00  0.00    -0.352 N 
ATOM     24  H4  UNL     1      16.767  21.800   4.934  1.00  0.00     0.163 HD
BRANCH  23  25
HETATM   25  C15 UNL     1      15.889  19.876   4.555  1.00  0.00     0.122 C 
BRANCH  25  26
HETATM   26  C16 UNL     1      15.609  20.248   3.127  1.00  0.00     0.032 C 
BRANCH  26  27
HETATM   27  C17 UNL     1      14.771  19.417   2.263  1.00  0.00    -0.021 C 
HETATM   28  C18 UNL     1      15.507  19.460   0.869  1.00  0.00     0.009 C 
HETATM   29  C19 UNL     1      14.653  17.954   2.530  1.00  0.00     0.009 C 
ENDBRANCH  26  27
ENDBRANCH  25  26
BRANCH  25  30
HETATM   30  C20 UNL     1      17.134  19.095   4.729  1.00  0.00     0.232 C 
BRANCH  30  31
HETATM   31  O5  UNL     1      17.935  19.089   3.570  1.00  0.00    -0.384 OA
ATOM     32  H5  UNL     1      18.082  19.961   3.224  1.00  0.00     0.210 HD
ENDBRANCH  30  31
BRANCH  30  33
HETATM   33  C21 UNL     1      18.008  19.475   5.862  1.00  0.00     0.248 C 
HETATM   34  O6  UNL     1      18.999  20.207   5.642  1.00  0.00    -0.271 OA
HETATM   35  N5  UNL     1      17.737  19.031   7.184  1.00  0.00    -0.358 N 
ATOM     36  H5  UNL     1      16.926  18.430   7.334  1.00  0.00     0.162 HD
BRANCH  35  37
HETATM   37  C22 UNL     1      18.542  19.381   8.325  1.00  0.00     0.126 C 
BRANCH  37  38
HETATM   38  C23 UNL     1      18.027  18.702   9.582  1.00  0.00    -0.005 C 
HETATM   39  C24 UNL     1      18.433  19.464  10.823  1.00  0.00     0.011 C 
HETATM   40  C25 UNL     1      18.634  17.318   9.675  1.00  0.00     0.011 C 
ENDBRANCH  37  38
ENDBRANCH  35  37
ENDBRANCH  30  33
ENDBRANCH  25  30
ENDBRANCH  23  25
ENDBRANCH  20  21
BRANCH  20  41
HETATM   41  C26 UNL     1      15.828  23.068   8.248  1.00  0.00     0.013 C 
HETATM   42  C27 UNL     1      17.133  23.893   8.070  1.00  0.00     0.012 C 
BRANCH  41  43
HETATM   43  C28 UNL     1      16.221  21.937   9.118  1.00  0.00     0.002 C 
HETATM   44  C29 UNL     1      15.181  21.369  10.017  1.00  0.00     0.005 C 
ENDBRANCH  41  43
ENDBRANCH  20  41
ENDBRANCH  11  20
BRANCH   6  45
HETATM   45  C8  UNL     1       8.786  24.123   3.847  1.00  0.00     0.036 C 
HETATM   46  C9  UNL     1       9.457  23.090   2.953  1.00  0.00     0.016 C 
HETATM   47  C10 UNL     1       7.732  24.777   3.034  1.00  0.00     0.016 C 
ENDBRANCH   6  45
BRANCH   4  48
HETATM   48  O1  UNL     1       7.807  27.820   4.668  1.00  0.00    -0.327 OA
ATOM     49  H1  UNL     1       7.139  27.200   4.401  1.00  0.00     0.221 HD
ENDBRANCH   4  48
BRANCH   1  50
HETATM   50  C3  UNL     1       7.020  28.275   8.381  1.00  0.00     0.013 C 
HETATM   51  C4  UNL     1       7.030  28.925   9.720  1.00  0.00     0.012 C 
BRANCH  50  52
HETATM   52  C2  UNL     1       6.531  29.252   7.352  1.00  0.00     0.002 C 
HETATM   53  C1  UNL     1       5.040  29.078   7.123  1.00  0.00     0.005 C 
ENDBRANCH  50  52
ENDBRANCH   1  50
TORSDOF 16
ENDMDL
