MODEL 1
REMARK VINA RESULT: -5.911895499      0.000      0.000
REMARK  20 active torsions:
REMARK  status: ('A' for Active; 'I' for Inactive)
REMARK    1  A    between atoms: C3_3  and  C4_4 
REMARK    2  A    between atoms: C13_13  and  O1_14 
REMARK    3  A    between atoms: C23_25  and  O2_26 
REMARK    4  A    between atoms: C23_25  and  C24_28 
REMARK    5  A    between atoms: C24_28  and  C25_29 
REMARK    6  A    between atoms: C25_29  and  C26_30 
REMARK       I    between atoms: C26_30  and  N1_32 
REMARK    7  A    between atoms: N1_32  and  C27_34 
REMARK    8  A    between atoms: C27_34  and  C28_35 
REMARK    9  A    between atoms: C28_35  and  N2_36 
REMARK   10  A    between atoms: N2_36  and  C30_38 
REMARK   11  A    between atoms: C30_38  and  C31_39 
REMARK   12  A    between atoms: C31_39  and  O4_40 
REMARK   13  A    between atoms: O4_40  and  C32_41 
REMARK   14  A    between atoms: C32_41  and  C33_42 
REMARK   15  A    between atoms: C33_42  and  O5_43 
REMARK   16  A    between atoms: O5_43  and  C34_44 
REMARK   17  A    between atoms: C34_44  and  C35_45 
REMARK   18  A    between atoms: C35_45  and  N3_46 
REMARK   19  A    between atoms: C36_50  and  O6_51 
REMARK   20  A    between atoms: C37_53  and  O7_54 
ROOT
HETATM    1  C1  UNL     1      14.975  15.804  11.540  1.00  0.00     0.112 C 
HETATM    2  C2  UNL     1      16.216  16.531  11.292  1.00  0.00    -0.110 C 
HETATM    3  C3  UNL     1      17.245  17.139  11.109  1.00  0.00    -0.093 C 
ENDROOT
BRANCH   3   4
HETATM    4  C4  UNL     1      18.534  17.903  10.916  1.00  0.00     0.063 C 
HETATM    5  C5  UNL     1      18.376  19.175  11.601  1.00  0.00     0.012 C 
HETATM    6  C6  UNL     1      18.980  19.355  12.946  1.00  0.00     0.007 C 
HETATM    7  C22 UNL     1      18.822  20.408  10.788  1.00  0.00     0.047 C 
HETATM    8  C7  UNL     1      19.987  18.320  13.356  1.00  0.00     0.007 C 
HETATM    9  C8  UNL     1      19.502  16.984  12.909  1.00  0.00     0.004 C 
HETATM   10  C9  UNL     1      20.081  15.815  13.665  1.00  0.00    -0.035 C 
HETATM   11  C20 UNL     1      19.597  16.944  11.423  1.00  0.00    -0.018 C 
HETATM   12  C10 UNL     1      21.554  15.819  13.787  1.00  0.00     0.016 C 
HETATM   13  C11 UNL     1      19.523  15.936  15.089  1.00  0.00     0.012 C 
HETATM   14  C17 UNL     1      19.467  14.594  13.068  1.00  0.00     0.004 C 
HETATM   15  C12 UNL     1      19.763  14.700  15.901  1.00  0.00     0.033 C 
HETATM   16  C13 UNL     1      19.340  13.427  15.267  1.00  0.00     0.126 C 
HETATM   17  C14 UNL     1      19.607  13.319  13.799  1.00  0.00    -0.017 C 
HETATM   18  C15 UNL     1      20.903  12.585  13.488  1.00  0.00     0.018 C 
HETATM   19  C16 UNL     1      18.502  12.393  13.251  1.00  0.00     0.018 C 
HETATM   20  C18 UNL     1      19.961  14.460  11.658  1.00  0.00     0.007 C 
HETATM   21  C19 UNL     1      19.426  15.579  10.814  1.00  0.00     0.012 C 
HETATM   22  C21 UNL     1      20.932  17.420  10.889  1.00  0.00     0.017 C 
HETATM   23  C23 UNL     1      18.274  20.556   9.464  1.00  0.00     0.087 C 
HETATM   24  C36 UNL     1      17.601  19.207   9.094  1.00  0.00     0.182 C 
HETATM   25  C37 UNL     1      18.601  18.084   9.416  1.00  0.00     0.171 C 
BRANCH  16  26
HETATM   26  O1  UNL     1      17.972  13.229  15.561  1.00  0.00    -0.395 OA
ATOM     27  H1  UNL     1      17.899  13.019  16.485  1.00  0.00     0.210 HD
ENDBRANCH  16  26
BRANCH  23  28
HETATM   28  O2  UNL     1      19.431  20.585   8.576  1.00  0.00    -0.387 OA
ATOM     29  H2  UNL     1      19.070  20.676   7.703  1.00  0.00     0.210 HD
ENDBRANCH  23  28
BRANCH  23  30
HETATM   30  C24 UNL     1      17.455  21.681   9.003  1.00  0.00     0.050 C 
BRANCH  30  31
HETATM   31  C25 UNL     1      16.022  21.769   9.248  1.00  0.00     0.106 C 
BRANCH  31  32
HETATM   32  C26 UNL     1      15.108  22.149   8.179  1.00  0.00     0.217 C 
HETATM   33  O3  UNL     1      13.963  21.638   7.969  1.00  0.00    -0.274 OA
HETATM   34  N1  UNL     1      15.449  23.184   7.235  1.00  0.00    -0.359 N 
ATOM     35  H1  UNL     1      16.357  23.636   7.343  1.00  0.00     0.162 HD
BRANCH  34  36
HETATM   36  C27 UNL     1      14.624  23.624   6.167  1.00  0.00     0.152 C 
BRANCH  36  37
HETATM   37  C28 UNL     1      15.113  23.226   4.830  1.00  0.00     0.291 C 
BRANCH  37  38
HETATM   38  N2  UNL     1      14.719  21.947   4.336  1.00  0.00     0.087 N 
HETATM   39  C29 UNL     1      13.393  21.518   4.651  1.00  0.00     0.310 C 
BRANCH  38  40
HETATM   40  C30 UNL     1      15.706  20.932   4.528  1.00  0.00     0.298 C 
BRANCH  40  41
HETATM   41  C31 UNL     1      15.188  19.631   5.010  1.00  0.00     0.198 C 
BRANCH  41  42
HETATM   42  O4  UNL     1      15.392  18.560   4.232  1.00  0.00    -0.387 OA
BRANCH  42  43
HETATM   43  C32 UNL     1      15.311  18.545   2.904  1.00  0.00     0.193 C 
BRANCH  43  44
HETATM   44  C33 UNL     1      16.619  18.193   2.205  1.00  0.00     0.193 C 
BRANCH  44  45
HETATM   45  O5  UNL     1      17.337  17.209   2.783  1.00  0.00    -0.387 OA
BRANCH  45  46
HETATM   46  C34 UNL     1      18.546  17.439   3.331  1.00  0.00     0.195 C 
BRANCH  46  47
HETATM   47  C35 UNL     1      18.676  16.540   4.571  1.00  0.00     0.255 C 
BRANCH  47  48
HETATM   48  N3  UNL     1      17.754  17.062   5.554  1.00  0.00    -0.077 N 
ATOM     49  H33 UNL     1      17.639  18.074   5.502  1.00  0.00     0.274 HD
ATOM     50  H32 UNL     1      16.783  16.814   5.368  1.00  0.00     0.274 HD
ATOM     51  H31 UNL     1      18.086  16.739   6.462  1.00  0.00     0.274 HD
ENDBRANCH  47  48
ENDBRANCH  46  47
ENDBRANCH  45  46
ENDBRANCH  44  45
ENDBRANCH  43  44
ENDBRANCH  42  43
ENDBRANCH  41  42
ENDBRANCH  40  41
ENDBRANCH  38  40
ENDBRANCH  37  38
ENDBRANCH  36  37
ENDBRANCH  34  36
ENDBRANCH  31  32
ENDBRANCH  30  31
ENDBRANCH  23  30
BRANCH  24  52
HETATM   52  O6  UNL     1      17.413  19.168   7.719  1.00  0.00    -0.390 OA
ATOM     53  H6  UNL     1      16.610  18.694   7.536  1.00  0.00     0.210 HD
ENDBRANCH  24  52
BRANCH  25  54
HETATM   54  O7  UNL     1      18.156  16.965   8.724  1.00  0.00    -0.391 OA
ATOM     55  H7  UNL     1      18.127  17.105   7.785  1.00  0.00     0.210 HD
ENDBRANCH  25  54
ENDBRANCH   3   4
TORSDOF 20
ENDMDL
MODEL 2
REMARK VINA RESULT: -5.893548840      0.935      1.233
REMARK  20 active torsions:
REMARK  status: ('A' for Active; 'I' for Inactive)
REMARK    1  A    between atoms: C3_3  and  C4_4 
REMARK    2  A    between atoms: C13_13  and  O1_14 
REMARK    3  A    between atoms: C23_25  and  O2_26 
REMARK    4  A    between atoms: C23_25  and  C24_28 
REMARK    5  A    between atoms: C24_28  and  C25_29 
REMARK    6  A    between atoms: C25_29  and  C26_30 
REMARK       I    between atoms: C26_30  and  N1_32 
REMARK    7  A    between atoms: N1_32  and  C27_34 
REMARK    8  A    between atoms: C27_34  and  C28_35 
REMARK    9  A    between atoms: C28_35  and  N2_36 
REMARK   10  A    between atoms: N2_36  and  C30_38 
REMARK   11  A    between atoms: C30_38  and  C31_39 
REMARK   12  A    between atoms: C31_39  and  O4_40 
REMARK   13  A    between atoms: O4_40  and  C32_41 
REMARK   14  A    between atoms: C32_41  and  C33_42 
REMARK   15  A    between atoms: C33_42  and  O5_43 
REMARK   16  A    between atoms: O5_43  and  C34_44 
REMARK   17  A    between atoms: C34_44  and  C35_45 
REMARK   18  A    between atoms: C35_45  and  N3_46 
REMARK   19  A    between atoms: C36_50  and  O6_51 
REMARK   20  A    between atoms: C37_53  and  O7_54 
ROOT
HETATM    1  C1  UNL     1      14.984  15.727  11.653  1.00  0.00     0.112 C 
HETATM    2  C2  UNL     1      16.205  16.483  11.397  1.00  0.00    -0.110 C 
HETATM    3  C3  UNL     1      17.227  17.100  11.205  1.00  0.00    -0.093 C 
ENDROOT
BRANCH   3   4
HETATM    4  C4  UNL     1      18.519  17.853  10.990  1.00  0.00     0.063 C 
HETATM    5  C5  UNL     1      18.375  19.136  11.657  1.00  0.00     0.012 C 
HETATM    6  C6  UNL     1      18.990  19.331  12.995  1.00  0.00     0.007 C 
HETATM    7  C22 UNL     1      18.822  20.354  10.822  1.00  0.00     0.047 C 
HETATM    8  C7  UNL     1      19.995  18.296  13.411  1.00  0.00     0.007 C 
HETATM    9  C8  UNL     1      19.498  16.957  12.988  1.00  0.00     0.004 C 
HETATM   10  C9  UNL     1      20.076  15.795  13.756  1.00  0.00    -0.035 C 
HETATM   11  C20 UNL     1      19.580  16.895  11.501  1.00  0.00    -0.018 C 
HETATM   12  C10 UNL     1      21.550  15.792  13.866  1.00  0.00     0.016 C 
HETATM   13  C11 UNL     1      19.531  15.940  15.183  1.00  0.00     0.012 C 
HETATM   14  C17 UNL     1      19.449  14.569  13.181  1.00  0.00     0.004 C 
HETATM   15  C12 UNL     1      19.770  14.715  16.011  1.00  0.00     0.033 C 
HETATM   16  C13 UNL     1      19.334  13.436  15.399  1.00  0.00     0.126 C 
HETATM   17  C14 UNL     1      19.588  13.305  13.930  1.00  0.00    -0.017 C 
HETATM   18  C15 UNL     1      20.877  12.558  13.619  1.00  0.00     0.018 C 
HETATM   19  C16 UNL     1      18.472  12.377  13.405  1.00  0.00     0.018 C 
HETATM   20  C18 UNL     1      19.931  14.412  11.770  1.00  0.00     0.007 C 
HETATM   21  C19 UNL     1      19.396  15.522  10.914  1.00  0.00     0.012 C 
HETATM   22  C21 UNL     1      20.914  17.355  10.949  1.00  0.00     0.017 C 
HETATM   23  C23 UNL     1      18.263  20.486   9.501  1.00  0.00     0.087 C 
HETATM   24  C36 UNL     1      17.579  19.136   9.156  1.00  0.00     0.182 C 
HETATM   25  C37 UNL     1      18.574  18.012   9.487  1.00  0.00     0.171 C 
BRANCH  16  26
HETATM   26  O1  UNL     1      17.967  13.250  15.707  1.00  0.00    -0.395 OA
ATOM     27  H1  UNL     1      17.457  13.558  14.968  1.00  0.00     0.210 HD
ENDBRANCH  16  26
BRANCH  23  28
HETATM   28  O2  UNL     1      19.413  20.495   8.604  1.00  0.00    -0.387 OA
ATOM     29  H2  UNL     1      19.361  19.674   8.128  1.00  0.00     0.210 HD
ENDBRANCH  23  28
BRANCH  23  30
HETATM   30  C24 UNL     1      17.447  21.610   9.031  1.00  0.00     0.050 C 
BRANCH  30  31
HETATM   31  C25 UNL     1      15.996  21.639   9.155  1.00  0.00     0.106 C 
BRANCH  31  32
HETATM   32  C26 UNL     1      15.151  21.681   7.968  1.00  0.00     0.217 C 
HETATM   33  O3  UNL     1      13.886  21.816   7.967  1.00  0.00    -0.274 OA
HETATM   34  N1  UNL     1      15.711  21.567   6.645  1.00  0.00    -0.359 N 
ATOM     35  H1  UNL     1      16.722  21.453   6.572  1.00  0.00     0.162 HD
BRANCH  34  36
HETATM   36  C27 UNL     1      14.970  21.600   5.436  1.00  0.00     0.152 C 
BRANCH  36  37
HETATM   37  C28 UNL     1      14.104  20.420   5.231  1.00  0.00     0.291 C 
BRANCH  37  38
HETATM   38  N2  UNL     1      14.457  19.515   4.186  1.00  0.00     0.087 N 
HETATM   39  C29 UNL     1      14.973  18.244   4.585  1.00  0.00     0.310 C 
BRANCH  38  40
HETATM   40  C30 UNL     1      15.201  20.124   3.130  1.00  0.00     0.298 C 
BRANCH  40  41
HETATM   41  C31 UNL     1      14.978  19.545   1.785  1.00  0.00     0.198 C 
BRANCH  41  42
HETATM   42  O4  UNL     1      16.023  18.959   1.186  1.00  0.00    -0.387 OA
BRANCH  42  43
HETATM   43  C32 UNL     1      17.180  18.661   1.771  1.00  0.00     0.193 C 
BRANCH  43  44
HETATM   44  C33 UNL     1      17.449  17.165   1.893  1.00  0.00     0.193 C 
BRANCH  44  45
HETATM   45  O5  UNL     1      18.344  16.815   2.838  1.00  0.00    -0.387 OA
BRANCH  45  46
HETATM   46  C34 UNL     1      18.616  17.612   3.889  1.00  0.00     0.195 C 
BRANCH  46  47
HETATM   47  C35 UNL     1      18.382  16.795   5.169  1.00  0.00     0.255 C 
BRANCH  47  48
HETATM   48  N3  UNL     1      19.361  17.248   6.130  1.00  0.00    -0.077 N 
ATOM     49  H33 UNL     1      19.472  18.261   6.147  1.00  0.00     0.274 HD
ATOM     50  H32 UNL     1      19.058  17.138   7.098  1.00  0.00     0.274 HD
ATOM     51  H31 UNL     1      20.225  16.750   5.919  1.00  0.00     0.274 HD
ENDBRANCH  47  48
ENDBRANCH  46  47
ENDBRANCH  45  46
ENDBRANCH  44  45
ENDBRANCH  43  44
ENDBRANCH  42  43
ENDBRANCH  41  42
ENDBRANCH  40  41
ENDBRANCH  38  40
ENDBRANCH  37  38
ENDBRANCH  36  37
ENDBRANCH  34  36
ENDBRANCH  31  32
ENDBRANCH  30  31
ENDBRANCH  23  30
BRANCH  24  52
HETATM   52  O6  UNL     1      17.379  19.078   7.784  1.00  0.00    -0.390 OA
ATOM     53  H6  UNL     1      16.853  18.312   7.586  1.00  0.00     0.210 HD
ENDBRANCH  24  52
BRANCH  25  54
HETATM   54  O7  UNL     1      18.117  16.885   8.815  1.00  0.00    -0.391 OA
ATOM     55  H7  UNL     1      18.751  16.179   8.814  1.00  0.00     0.210 HD
ENDBRANCH  25  54
ENDBRANCH   3   4
TORSDOF 20
ENDMDL
MODEL 3
REMARK VINA RESULT: -5.463490535      2.046      5.241
REMARK  20 active torsions:
REMARK  status: ('A' for Active; 'I' for Inactive)
REMARK    1  A    between atoms: C3_3  and  C4_4 
REMARK    2  A    between atoms: C13_13  and  O1_14 
REMARK    3  A    between atoms: C23_25  and  O2_26 
REMARK    4  A    between atoms: C23_25  and  C24_28 
REMARK    5  A    between atoms: C24_28  and  C25_29 
REMARK    6  A    between atoms: C25_29  and  C26_30 
REMARK       I    between atoms: C26_30  and  N1_32 
REMARK    7  A    between atoms: N1_32  and  C27_34 
REMARK    8  A    between atoms: C27_34  and  C28_35 
REMARK    9  A    between atoms: C28_35  and  N2_36 
REMARK   10  A    between atoms: N2_36  and  C30_38 
REMARK   11  A    between atoms: C30_38  and  C31_39 
REMARK   12  A    between atoms: C31_39  and  O4_40 
REMARK   13  A    between atoms: O4_40  and  C32_41 
REMARK   14  A    between atoms: C32_41  and  C33_42 
REMARK   15  A    between atoms: C33_42  and  O5_43 
REMARK   16  A    between atoms: O5_43  and  C34_44 
REMARK   17  A    between atoms: C34_44  and  C35_45 
REMARK   18  A    between atoms: C35_45  and  N3_46 
REMARK   19  A    between atoms: C36_50  and  O6_51 
REMARK   20  A    between atoms: C37_53  and  O7_54 
ROOT
HETATM    1  C1  UNL     1      23.282  17.267  10.914  1.00  0.00     0.112 C 
HETATM    2  C2  UNL     1      22.022  16.677  10.474  1.00  0.00    -0.110 C 
HETATM    3  C3  UNL     1      20.990  16.172  10.097  1.00  0.00    -0.093 C 
ENDROOT
BRANCH   3   4
HETATM    4  C4  UNL     1      19.719  15.514   9.611  1.00  0.00     0.063 C 
HETATM    5  C5  UNL     1      20.117  14.430   8.728  1.00  0.00     0.012 C 
HETATM    6  C6  UNL     1      20.123  13.038   9.246  1.00  0.00     0.007 C 
HETATM    7  C22 UNL     1      19.344  14.364   7.394  1.00  0.00     0.047 C 
HETATM    8  C7  UNL     1      19.401  12.819  10.545  1.00  0.00     0.007 C 
HETATM    9  C8  UNL     1      19.689  13.970  11.446  1.00  0.00     0.004 C 
HETATM   10  C9  UNL     1      19.505  13.686  12.915  1.00  0.00    -0.035 C 
HETATM   11  C20 UNL     1      18.986  15.162  10.893  1.00  0.00    -0.018 C 
HETATM   12  C10 UNL     1      18.216  13.055  13.271  1.00  0.00     0.016 C 
HETATM   13  C11 UNL     1      20.600  12.674  13.273  1.00  0.00     0.012 C 
HETATM   14  C17 UNL     1      19.844  14.953  13.626  1.00  0.00     0.004 C 
HETATM   15  C12 UNL     1      20.749  12.496  14.753  1.00  0.00     0.033 C 
HETATM   16  C13 UNL     1      20.901  13.747  15.535  1.00  0.00     0.126 C 
HETATM   17  C14 UNL     1      20.051  14.894  15.086  1.00  0.00    -0.017 C 
HETATM   18  C15 UNL     1      18.760  15.019  15.883  1.00  0.00     0.018 C 
HETATM   19  C16 UNL     1      20.850  16.162  15.452  1.00  0.00     0.018 C 
HETATM   20  C18 UNL     1      18.813  15.982  13.272  1.00  0.00     0.007 C 
HETATM   21  C19 UNL     1      18.921  16.345  11.821  1.00  0.00     0.012 C 
HETATM   22  C21 UNL     1      17.539  14.898  10.533  1.00  0.00     0.017 C 
HETATM   23  C23 UNL     1      19.288  15.569   6.606  1.00  0.00     0.087 C 
HETATM   24  C36 UNL     1      19.779  16.731   7.511  1.00  0.00     0.182 C 
HETATM   25  C37 UNL     1      19.031  16.626   8.850  1.00  0.00     0.171 C 
BRANCH  16  26
HETATM   26  O1  UNL     1      22.272  14.091  15.543  1.00  0.00    -0.395 OA
ATOM     27  H1  UNL     1      22.396  14.781  16.184  1.00  0.00     0.210 HD
ENDBRANCH  16  26
BRANCH  23  28
HETATM   28  O2  UNL     1      17.867  15.861   6.461  1.00  0.00    -0.387 OA
ATOM     29  H2  UNL     1      17.796  16.338   5.643  1.00  0.00     0.210 HD
ENDBRANCH  23  28
BRANCH  23  30
HETATM   30  C24 UNL     1      19.815  15.720   5.246  1.00  0.00     0.050 C 
BRANCH  30  31
HETATM   31  C25 UNL     1      18.961  15.930   4.086  1.00  0.00     0.106 C 
BRANCH  31  32
HETATM   32  C26 UNL     1      18.497  17.266   3.738  1.00  0.00     0.217 C 
HETATM   33  O3  UNL     1      19.003  18.356   4.155  1.00  0.00    -0.274 OA
HETATM   34  N1  UNL     1      17.378  17.463   2.852  1.00  0.00    -0.359 N 
ATOM     35  H1  UNL     1      16.921  16.630   2.481  1.00  0.00     0.162 HD
BRANCH  34  36
HETATM   36  C27 UNL     1      16.858  18.722   2.454  1.00  0.00     0.152 C 
BRANCH  36  37
HETATM   37  C28 UNL     1      15.448  18.937   2.837  1.00  0.00     0.291 C 
BRANCH  37  38
HETATM   38  N2  UNL     1      15.156  20.041   3.694  1.00  0.00     0.087 N 
HETATM   39  C29 UNL     1      14.577  21.194   3.080  1.00  0.00     0.310 C 
BRANCH  38  40
HETATM   40  C30 UNL     1      16.213  20.352   4.604  1.00  0.00     0.298 C 
BRANCH  40  41
HETATM   41  C31 UNL     1      16.002  19.893   5.996  1.00  0.00     0.198 C 
BRANCH  41  42
HETATM   42  O4  UNL     1      16.623  20.572   6.969  1.00  0.00    -0.387 OA
BRANCH  42  43
HETATM   43  C32 UNL     1      16.214  21.728   7.485  1.00  0.00     0.193 C 
BRANCH  43  44
HETATM   44  C33 UNL     1      14.738  21.753   7.862  1.00  0.00     0.193 C 
BRANCH  44  45
HETATM   45  O5  UNL     1      13.947  22.485   7.052  1.00  0.00    -0.387 OA
BRANCH  45  46
HETATM   46  C34 UNL     1      14.457  23.354   6.156  1.00  0.00     0.195 C 
BRANCH  46  47
HETATM   47  C35 UNL     1      13.286  24.148   5.557  1.00  0.00     0.255 C 
BRANCH  47  48
HETATM   48  N3  UNL     1      13.870  25.172   4.720  1.00  0.00    -0.077 N 
ATOM     49  H33 UNL     1      14.393  25.872   5.245  1.00  0.00     0.274 HD
ATOM     50  H32 UNL     1      14.646  24.834   4.152  1.00  0.00     0.274 HD
ATOM     51  H31 UNL     1      13.108  25.566   4.170  1.00  0.00     0.274 HD
ENDBRANCH  47  48
ENDBRANCH  46  47
ENDBRANCH  45  46
ENDBRANCH  44  45
ENDBRANCH  43  44
ENDBRANCH  42  43
ENDBRANCH  41  42
ENDBRANCH  40  41
ENDBRANCH  38  40
ENDBRANCH  37  38
ENDBRANCH  36  37
ENDBRANCH  34  36
ENDBRANCH  31  32
ENDBRANCH  30  31
ENDBRANCH  23  30
BRANCH  24  52
HETATM   52  O6  UNL     1      19.380  17.933   6.944  1.00  0.00    -0.390 OA
ATOM     53  H6  UNL     1      19.689  18.645   7.493  1.00  0.00     0.210 HD
ENDBRANCH  24  52
BRANCH  25  54
HETATM   54  O7  UNL     1      19.174  17.862   9.467  1.00  0.00    -0.391 OA
ATOM     55  H7  UNL     1      18.523  18.490   9.180  1.00  0.00     0.210 HD
ENDBRANCH  25  54
ENDBRANCH   3   4
TORSDOF 20
ENDMDL
MODEL 4
REMARK VINA RESULT: -5.432172127      6.415     13.636
REMARK  20 active torsions:
REMARK  status: ('A' for Active; 'I' for Inactive)
REMARK    1  A    between atoms: C3_3  and  C4_4 
REMARK    2  A    between atoms: C13_13  and  O1_14 
REMARK    3  A    between atoms: C23_25  and  O2_26 
REMARK    4  A    between atoms: C23_25  and  C24_28 
REMARK    5  A    between atoms: C24_28  and  C25_29 
REMARK    6  A    between atoms: C25_29  and  C26_30 
REMARK       I    between atoms: C26_30  and  N1_32 
REMARK    7  A    between atoms: N1_32  and  C27_34 
REMARK    8  A    between atoms: C27_34  and  C28_35 
REMARK    9  A    between atoms: C28_35  and  N2_36 
REMARK   10  A    between atoms: N2_36  and  C30_38 
REMARK   11  A    between atoms: C30_38  and  C31_39 
REMARK   12  A    between atoms: C31_39  and  O4_40 
REMARK   13  A    between atoms: O4_40  and  C32_41 
REMARK   14  A    between atoms: C32_41  and  C33_42 
REMARK   15  A    between atoms: C33_42  and  O5_43 
REMARK   16  A    between atoms: O5_43  and  C34_44 
REMARK   17  A    between atoms: C34_44  and  C35_45 
REMARK   18  A    between atoms: C35_45  and  N3_46 
REMARK   19  A    between atoms: C36_50  and  O6_51 
REMARK   20  A    between atoms: C37_53  and  O7_54 
ROOT
HETATM    1  C1  UNL     1       8.319  24.866   8.815  1.00  0.00     0.112 C 
HETATM    2  C2  UNL     1       8.584  24.935   7.381  1.00  0.00    -0.110 C 
HETATM    3  C3  UNL     1       8.818  25.011   6.198  1.00  0.00    -0.093 C 
ENDROOT
BRANCH   3   4
HETATM    4  C4  UNL     1       9.135  25.131   4.725  1.00  0.00     0.063 C 
HETATM    5  C5  UNL     1       9.325  23.779   4.225  1.00  0.00     0.012 C 
HETATM    6  C6  UNL     1       8.218  23.116   3.488  1.00  0.00     0.007 C 
HETATM    7  C22 UNL     1      10.575  23.586   3.341  1.00  0.00     0.047 C 
HETATM    8  C7  UNL     1       7.105  24.014   3.030  1.00  0.00     0.007 C 
HETATM    9  C8  UNL     1       6.820  25.003   4.108  1.00  0.00     0.004 C 
HETATM   10  C9  UNL     1       5.443  25.612   4.060  1.00  0.00    -0.035 C 
HETATM   11  C20 UNL     1       7.975  25.942   4.175  1.00  0.00    -0.018 C 
HETATM   12  C10 UNL     1       5.044  26.151   2.742  1.00  0.00     0.016 C 
HETATM   13  C11 UNL     1       4.478  24.461   4.372  1.00  0.00     0.012 C 
HETATM   14  C17 UNL     1       5.369  26.555   5.214  1.00  0.00     0.004 C 
HETATM   15  C12 UNL     1       3.087  24.942   4.649  1.00  0.00     0.033 C 
HETATM   16  C13 UNL     1       2.975  26.023   5.660  1.00  0.00     0.126 C 
HETATM   17  C14 UNL     1       4.042  27.070   5.604  1.00  0.00    -0.017 C 
HETATM   18  C15 UNL     1       3.618  28.302   4.818  1.00  0.00     0.018 C 
HETATM   19  C16 UNL     1       4.194  27.575   7.054  1.00  0.00     0.018 C 
HETATM   20  C18 UNL     1       6.328  27.681   4.963  1.00  0.00     0.007 C 
HETATM   21  C19 UNL     1       7.740  27.176   5.002  1.00  0.00     0.012 C 
HETATM   22  C21 UNL     1       8.396  26.480   2.823  1.00  0.00     0.017 C 
HETATM   23  C23 UNL     1      11.835  24.032   3.877  1.00  0.00     0.087 C 
HETATM   24  C36 UNL     1      11.519  24.905   5.121  1.00  0.00     0.182 C 
HETATM   25  C37 UNL     1      10.429  25.912   4.718  1.00  0.00     0.171 C 
BRANCH  16  26
HETATM   26  O1  UNL     1       2.908  25.418   6.936  1.00  0.00    -0.395 OA
ATOM     27  H1  UNL     1       3.793  25.359   7.278  1.00  0.00     0.210 HD
ENDBRANCH  16  26
BRANCH  23  28
HETATM   28  O2  UNL     1      12.328  25.014   2.919  1.00  0.00    -0.387 OA
ATOM     29  H2  UNL     1      13.036  24.577   2.461  1.00  0.00     0.210 HD
ENDBRANCH  23  28
BRANCH  23  30
HETATM   30  C24 UNL     1      13.000  23.179   4.132  1.00  0.00     0.050 C 
BRANCH  30  31
HETATM   31  C25 UNL     1      13.097  22.296   5.286  1.00  0.00     0.106 C 
BRANCH  31  32
HETATM   32  C26 UNL     1      14.196  22.431   6.233  1.00  0.00     0.217 C 
HETATM   33  O3  UNL     1      15.272  23.080   6.030  1.00  0.00    -0.274 OA
HETATM   34  N1  UNL     1      14.145  21.812   7.534  1.00  0.00    -0.359 N 
ATOM     35  H1  UNL     1      13.310  21.273   7.763  1.00  0.00     0.162 HD
BRANCH  34  36
HETATM   36  C27 UNL     1      15.161  21.891   8.520  1.00  0.00     0.152 C 
BRANCH  36  37
HETATM   37  C28 UNL     1      15.931  20.641   8.690  1.00  0.00     0.291 C 
BRANCH  37  38
HETATM   38  N2  UNL     1      17.241  20.589   8.126  1.00  0.00     0.087 N 
HETATM   39  C29 UNL     1      18.103  21.693   8.406  1.00  0.00     0.310 C 
BRANCH  38  40
HETATM   40  C30 UNL     1      17.257  20.188   6.756  1.00  0.00     0.298 C 
BRANCH  40  41
HETATM   41  C31 UNL     1      18.603  19.955   6.182  1.00  0.00     0.198 C 
BRANCH  41  42
HETATM   42  O4  UNL     1      18.668  19.362   4.983  1.00  0.00    -0.387 OA
BRANCH  42  43
HETATM   43  C32 UNL     1      18.344  18.097   4.730  1.00  0.00     0.193 C 
BRANCH  43  44
HETATM   44  C33 UNL     1      18.721  17.626   3.331  1.00  0.00     0.193 C 
BRANCH  44  45
HETATM   45  O5  UNL     1      18.227  18.368   2.319  1.00  0.00    -0.387 OA
BRANCH  45  46
HETATM   46  C34 UNL     1      17.150  17.976   1.610  1.00  0.00     0.195 C 
BRANCH  46  47
HETATM   47  C35 UNL     1      16.018  18.975   1.890  1.00  0.00     0.255 C 
BRANCH  47  48
HETATM   48  N3  UNL     1      15.147  18.348   2.858  1.00  0.00    -0.077 N 
ATOM     49  H33 UNL     1      15.133  17.331   2.788  1.00  0.00     0.274 HD
ATOM     50  H32 UNL     1      15.498  18.405   3.813  1.00  0.00     0.274 HD
ATOM     51  H31 UNL     1      14.228  18.773   2.739  1.00  0.00     0.274 HD
ENDBRANCH  47  48
ENDBRANCH  46  47
ENDBRANCH  45  46
ENDBRANCH  44  45
ENDBRANCH  43  44
ENDBRANCH  42  43
ENDBRANCH  41  42
ENDBRANCH  40  41
ENDBRANCH  38  40
ENDBRANCH  37  38
ENDBRANCH  36  37
ENDBRANCH  34  36
ENDBRANCH  31  32
ENDBRANCH  30  31
ENDBRANCH  23  30
BRANCH  24  52
HETATM   52  O6  UNL     1      12.642  25.661   5.429  1.00  0.00    -0.390 OA
ATOM     53  H6  UNL     1      13.081  25.263   6.172  1.00  0.00     0.210 HD
ENDBRANCH  24  52
BRANCH  25  54
HETATM   54  O7  UNL     1      10.454  26.911   5.683  1.00  0.00    -0.391 OA
ATOM     55  H7  UNL     1      11.335  27.116   5.972  1.00  0.00     0.210 HD
ENDBRANCH  25  54
ENDBRANCH   3   4
TORSDOF 20
ENDMDL
MODEL 5
REMARK VINA RESULT: -5.407512041      5.719     13.246
REMARK  20 active torsions:
REMARK  status: ('A' for Active; 'I' for Inactive)
REMARK    1  A    between atoms: C3_3  and  C4_4 
REMARK    2  A    between atoms: C13_13  and  O1_14 
REMARK    3  A    between atoms: C23_25  and  O2_26 
REMARK    4  A    between atoms: C23_25  and  C24_28 
REMARK    5  A    between atoms: C24_28  and  C25_29 
REMARK    6  A    between atoms: C25_29  and  C26_30 
REMARK       I    between atoms: C26_30  and  N1_32 
REMARK    7  A    between atoms: N1_32  and  C27_34 
REMARK    8  A    between atoms: C27_34  and  C28_35 
REMARK    9  A    between atoms: C28_35  and  N2_36 
REMARK   10  A    between atoms: N2_36  and  C30_38 
REMARK   11  A    between atoms: C30_38  and  C31_39 
REMARK   12  A    between atoms: C31_39  and  O4_40 
REMARK   13  A    between atoms: O4_40  and  C32_41 
REMARK   14  A    between atoms: C32_41  and  C33_42 
REMARK   15  A    between atoms: C33_42  and  O5_43 
REMARK   16  A    between atoms: O5_43  and  C34_44 
REMARK   17  A    between atoms: C34_44  and  C35_45 
REMARK   18  A    between atoms: C35_45  and  N3_46 
REMARK   19  A    between atoms: C36_50  and  O6_51 
REMARK   20  A    between atoms: C37_53  and  O7_54 
ROOT
HETATM    1  C1  UNL     1       8.177  24.625   8.722  1.00  0.00     0.112 C 
HETATM    2  C2  UNL     1       8.777  24.746   7.397  1.00  0.00    -0.110 C 
HETATM    3  C3  UNL     1       9.295  24.849   6.310  1.00  0.00    -0.093 C 
ENDROOT
BRANCH   3   4
HETATM    4  C4  UNL     1       9.975  24.977   4.966  1.00  0.00     0.063 C 
HETATM    5  C5  UNL     1      10.525  23.670   4.646  1.00  0.00     0.012 C 
HETATM    6  C6  UNL     1       9.793  22.786   3.704  1.00  0.00     0.007 C 
HETATM    7  C22 UNL     1      11.982  23.688   4.139  1.00  0.00     0.047 C 
HETATM    8  C7  UNL     1       8.708  23.441   2.898  1.00  0.00     0.007 C 
HETATM    9  C8  UNL     1       7.974  24.393   3.778  1.00  0.00     0.004 C 
HETATM   10  C9  UNL     1       6.578  24.728   3.322  1.00  0.00    -0.035 C 
HETATM   11  C20 UNL     1       8.886  25.535   4.067  1.00  0.00    -0.018 C 
HETATM   12  C10 UNL     1       6.466  25.138   1.905  1.00  0.00     0.016 C 
HETATM   13  C11 UNL     1       5.779  23.426   3.465  1.00  0.00     0.012 C 
HETATM   14  C17 UNL     1       6.031  25.678   4.334  1.00  0.00     0.004 C 
HETATM   15  C12 UNL     1       4.304  23.645   3.329  1.00  0.00     0.033 C 
HETATM   16  C13 UNL     1       3.735  24.717   4.182  1.00  0.00     0.126 C 
HETATM   17  C14 UNL     1       4.579  25.945   4.320  1.00  0.00    -0.017 C 
HETATM   18  C15 UNL     1       4.177  27.048   3.351  1.00  0.00     0.018 C 
HETATM   19  C16 UNL     1       4.240  26.518   5.712  1.00  0.00     0.018 C 
HETATM   20  C18 UNL     1       6.811  26.956   4.250  1.00  0.00     0.007 C 
HETATM   21  C19 UNL     1       8.224  26.730   4.698  1.00  0.00     0.012 C 
HETATM   22  C21 UNL     1       9.559  26.099   2.832  1.00  0.00     0.017 C 
HETATM   23  C23 UNL     1      12.952  24.382   4.947  1.00  0.00     0.087 C 
HETATM   24  C36 UNL     1      12.163  25.221   5.989  1.00  0.00     0.182 C 
HETATM   25  C37 UNL     1      11.067  25.989   5.232  1.00  0.00     0.171 C 
BRANCH  16  26
HETATM   26  O1  UNL     1       3.430  24.153   5.442  1.00  0.00    -0.395 OA
ATOM     27  H1  UNL     1       2.812  24.728   5.877  1.00  0.00     0.210 HD
ENDBRANCH  16  26
BRANCH  23  28
HETATM   28  O2  UNL     1      13.509  25.407   4.073  1.00  0.00    -0.387 OA
ATOM     29  H2  UNL     1      13.286  26.232   4.487  1.00  0.00     0.210 HD
ENDBRANCH  23  28
BRANCH  23  30
HETATM   30  C24 UNL     1      14.133  23.774   5.568  1.00  0.00     0.050 C 
BRANCH  30  31
HETATM   31  C25 UNL     1      14.880  22.687   4.950  1.00  0.00     0.106 C 
BRANCH  31  32
HETATM   32  C26 UNL     1      14.466  21.302   5.137  1.00  0.00     0.217 C 
HETATM   33  O3  UNL     1      13.435  20.919   5.776  1.00  0.00    -0.274 OA
HETATM   34  N1  UNL     1      15.230  20.211   4.587  1.00  0.00    -0.359 N 
ATOM     35  H1  UNL     1      16.073  20.447   4.064  1.00  0.00     0.162 HD
BRANCH  34  36
HETATM   36  C27 UNL     1      14.904  18.836   4.713  1.00  0.00     0.152 C 
BRANCH  36  37
HETATM   37  C28 UNL     1      15.413  17.996   3.609  1.00  0.00     0.291 C 
BRANCH  37  38
HETATM   38  N2  UNL     1      16.538  18.479   2.875  1.00  0.00     0.087 N 
HETATM   39  C29 UNL     1      16.325  18.769   1.493  1.00  0.00     0.310 C 
BRANCH  38  40
HETATM   40  C30 UNL     1      17.739  17.746   3.124  1.00  0.00     0.298 C 
BRANCH  40  41
HETATM   41  C31 UNL     1      18.511  18.185   4.309  1.00  0.00     0.198 C 
BRANCH  41  42
HETATM   42  O4  UNL     1      18.331  19.444   4.731  1.00  0.00    -0.387 OA
BRANCH  42  43
HETATM   43  C32 UNL     1      18.732  19.929   5.902  1.00  0.00     0.193 C 
BRANCH  43  44
HETATM   44  C33 UNL     1      17.784  19.631   7.057  1.00  0.00     0.193 C 
BRANCH  44  45
HETATM   45  O5  UNL     1      16.935  20.628   7.380  1.00  0.00    -0.387 OA
BRANCH  45  46
HETATM   46  C34 UNL     1      17.234  21.537   8.328  1.00  0.00     0.195 C 
BRANCH  46  47
HETATM   47  C35 UNL     1      16.007  22.444   8.510  1.00  0.00     0.255 C 
BRANCH  47  48
HETATM   48  N3  UNL     1      14.860  21.569   8.600  1.00  0.00    -0.077 N 
ATOM     49  H33 UNL     1      15.110  20.587   8.719  1.00  0.00     0.274 HD
ATOM     50  H32 UNL     1      14.341  21.674   9.471  1.00  0.00     0.274 HD
ATOM     51  H31 UNL     1      14.296  21.744   7.769  1.00  0.00     0.274 HD
ENDBRANCH  47  48
ENDBRANCH  46  47
ENDBRANCH  45  46
ENDBRANCH  44  45
ENDBRANCH  43  44
ENDBRANCH  42  43
ENDBRANCH  41  42
ENDBRANCH  40  41
ENDBRANCH  38  40
ENDBRANCH  37  38
ENDBRANCH  36  37
ENDBRANCH  34  36
ENDBRANCH  31  32
ENDBRANCH  30  31
ENDBRANCH  23  30
BRANCH  24  52
HETATM   52  O6  UNL     1      13.011  26.185   6.515  1.00  0.00    -0.390 OA
ATOM     53  H6  UNL     1      12.889  26.993   6.031  1.00  0.00     0.210 HD
ENDBRANCH  24  52
BRANCH  25  54
HETATM   54  O7  UNL     1      10.654  27.006   6.084  1.00  0.00    -0.391 OA
ATOM     55  H7  UNL     1      11.250  27.134   6.813  1.00  0.00     0.210 HD
ENDBRANCH  25  54
ENDBRANCH   3   4
TORSDOF 20
ENDMDL
