MODEL 1
REMARK VINA RESULT: -9.833460836      0.000      0.000
REMARK  14 active torsions:
REMARK  status: ('A' for Active; 'I' for Inactive)
REMARK    1  A    between atoms: C6_6  and  N1_7 
REMARK    2  A    between atoms: C7_10  and  C8_11 
REMARK       I    between atoms: C8_11  and  N2_13 
REMARK    3  A    between atoms: N2_13  and  C9_15 
REMARK    4  A    between atoms: C9_15  and  C10_16 
REMARK    5  A    between atoms: C9_15  and  C14_26 
REMARK    6  A    between atoms: C10_16  and  C11_17 
REMARK    7  A    between atoms: C11_17  and  C12_18 
REMARK    8  A    between atoms: C12_18  and  N3_19 
REMARK       I    between atoms: N3_19  and  C13_21 
REMARK       I    between atoms: C14_26  and  N6_28 
REMARK    9  A    between atoms: N6_28  and  C15_30 
REMARK   10  A    between atoms: N7_36  and  C21_37 
REMARK   11  A    between atoms: C22_38  and  O5_39 
REMARK   12  A    between atoms: C22_38  and  N8_41 
REMARK       I    between atoms: N8_41  and  C23_43 
REMARK   13  A    between atoms: C23_43  and  C24_45 
REMARK   14  A    between atoms: C24_45  and  C25_46 
ROOT
HETATM    1  C1  UNL     1      11.430  23.596   3.156  1.00  0.00     0.050 C 
HETATM    2  C2  UNL     1      10.911  24.489   4.213  1.00  0.00    -0.035 A 
HETATM    3  C3  UNL     1       9.661  25.081   3.935  1.00  0.00    -0.024 A 
HETATM    4  C4  UNL     1       9.122  25.900   4.905  1.00  0.00     0.043 A 
HETATM    5  C5  UNL     1       9.793  26.110   6.077  1.00  0.00     0.067 A 
HETATM    6  C6  UNL     1      11.038  25.531   6.370  1.00  0.00     0.121 A 
HETATM    7  C7  UNL     1      11.583  24.714   5.412  1.00  0.00     0.071 A 
HETATM    8  N7  UNL     1       7.847  26.528   4.659  1.00  0.00    -0.352 N 
HETATM    9  C31 UNL     1       7.463  26.618   3.232  1.00  0.00     0.129 C 
HETATM   10  C32 UNL     1       7.531  25.155   2.740  1.00  0.00     0.025 C 
HETATM   11  C33 UNL     1       8.998  24.816   2.628  1.00  0.00     0.043 C 
ENDROOT
BRANCH   7  12
HETATM   12  C8  UNL     1      12.883  24.108   5.634  1.00  0.00     0.255 C 
HETATM   13  O3  UNL     1      13.892  24.582   5.050  1.00  0.00    -0.268 OA
HETATM   14  N2  UNL     1      13.076  22.989   6.480  1.00  0.00    -0.344 N 
ATOM     15  H2  UNL     1      12.280  22.582   6.969  1.00  0.00     0.163 HD
BRANCH  14  16
HETATM   16  C9  UNL     1      14.448  22.396   6.662  1.00  0.00     0.177 C 
BRANCH  16  17
HETATM   17  C10 UNL     1      14.500  22.009   8.093  1.00  0.00     0.040 C 
BRANCH  17  18
HETATM   18  C11 UNL     1      15.621  22.420   8.952  1.00  0.00     0.047 C 
BRANCH  18  19
HETATM   19  C12 UNL     1      16.971  22.560   8.375  1.00  0.00     0.063 C 
BRANCH  19  20
HETATM   20  N3  UNL     1      17.964  21.600   8.585  1.00  0.00    -0.344 N 
HETATM   21  C13 UNL     1      18.010  20.434   7.754  1.00  0.00     0.185 C 
HETATM   22  N4  UNL     1      17.157  19.473   7.815  1.00  0.00    -0.374 N 
HETATM   23  N5  UNL     1      19.061  20.328   6.805  1.00  0.00    -0.064 NA
ATOM     24  H42 UNL     1      16.403  19.550   8.497  1.00  0.00     0.158 HD
ATOM     25  H41 UNL     1      17.190  18.642   7.223  1.00  0.00     0.158 HD
ATOM     26  H3  UNL     1      18.653  21.728   9.326  1.00  0.00     0.167 HD
ENDBRANCH  19  20
ENDBRANCH  18  19
ENDBRANCH  17  18
ENDBRANCH  16  17
BRANCH  16  27
HETATM   27  C14 UNL     1      14.528  21.250   5.707  1.00  0.00     0.240 C 
HETATM   28  O4  UNL     1      13.474  20.518   5.630  1.00  0.00    -0.271 OA
HETATM   29  N6  UNL     1      15.589  20.868   4.888  1.00  0.00    -0.355 N 
ATOM     30  H6  UNL     1      16.451  21.413   4.909  1.00  0.00     0.162 HD
BRANCH  29  31
HETATM   31  C15 UNL     1      15.506  19.702   3.996  1.00  0.00     0.084 C 
HETATM   32  C16 UNL     1      16.833  18.977   3.903  1.00  0.00     0.025 C 
HETATM   33  C17 UNL     1      16.614  17.824   2.942  1.00  0.00     0.002 C 
HETATM   34  C18 UNL     1      16.310  18.400   1.580  1.00  0.00     0.000 C 
HETATM   35  C19 UNL     1      15.016  19.146   1.584  1.00  0.00     0.002 C 
HETATM   36  C20 UNL     1      14.965  20.148   2.685  1.00  0.00     0.025 C 
ENDBRANCH  29  31
ENDBRANCH  16  27
ENDBRANCH  14  16
ENDBRANCH   7  12
BRANCH   6  37
HETATM   37  N1  UNL     1      11.631  25.861   7.616  1.00  0.00    -0.115 N 
HETATM   38  O1  UNL     1      10.872  26.341   8.518  1.00  0.00    -0.532 OA
HETATM   39  O2  UNL     1      12.938  25.716   7.954  1.00  0.00    -0.532 OA
ENDBRANCH   6  37
BRANCH   8  40
HETATM   40  C21 UNL     1       7.051  26.979   5.710  1.00  0.00     0.147 C 
HETATM   41  C22 UNL     1       5.692  26.587   5.867  1.00  0.00     0.158 C 
BRANCH  41  42
HETATM   42  O5  UNL     1       5.223  27.087   7.049  1.00  0.00    -0.345 OA
ATOM     43  H5  UNL     1       4.990  26.363   7.618  1.00  0.00     0.219 HD
ENDBRANCH  41  42
BRANCH  41  44
HETATM   44  N8  UNL     1       4.712  25.872   5.210  1.00  0.00    -0.307 N 
HETATM   45  C23 UNL     1       3.450  25.374   5.545  1.00  0.00     0.224 C 
HETATM   46  O6  UNL     1       2.850  25.493   6.617  1.00  0.00    -0.273 OA
ATOM     47  H8  UNL     1       4.971  25.654   4.247  1.00  0.00     0.171 HD
BRANCH  45  48
HETATM   48  C24 UNL     1       2.733  24.590   4.436  1.00  0.00     0.108 C 
BRANCH  48  49
HETATM   49  C25 UNL     1       3.688  24.197   3.366  1.00  0.00    -0.006 C 
HETATM   50  C26 UNL     1       2.987  23.890   2.057  1.00  0.00     0.005 C 
HETATM   51  C27 UNL     1       2.453  22.517   1.921  1.00  0.00     0.000 C 
HETATM   52  C28 UNL     1       2.379  21.679   3.145  1.00  0.00     0.000 C 
HETATM   53  C29 UNL     1       3.523  21.820   4.103  1.00  0.00     0.000 C 
HETATM   54  C30 UNL     1       4.464  22.934   3.697  1.00  0.00     0.005 C 
ENDBRANCH  48  49
ENDBRANCH  45  48
ENDBRANCH  41  44
ENDBRANCH   8  40
TORSDOF 14
ENDMDL
MODEL 2
REMARK VINA RESULT: -9.667653187      1.111      1.442
REMARK  14 active torsions:
REMARK  status: ('A' for Active; 'I' for Inactive)
REMARK    1  A    between atoms: C6_6  and  N1_7 
REMARK    2  A    between atoms: C7_10  and  C8_11 
REMARK       I    between atoms: C8_11  and  N2_13 
REMARK    3  A    between atoms: N2_13  and  C9_15 
REMARK    4  A    between atoms: C9_15  and  C10_16 
REMARK    5  A    between atoms: C9_15  and  C14_26 
REMARK    6  A    between atoms: C10_16  and  C11_17 
REMARK    7  A    between atoms: C11_17  and  C12_18 
REMARK    8  A    between atoms: C12_18  and  N3_19 
REMARK       I    between atoms: N3_19  and  C13_21 
REMARK       I    between atoms: C14_26  and  N6_28 
REMARK    9  A    between atoms: N6_28  and  C15_30 
REMARK   10  A    between atoms: N7_36  and  C21_37 
REMARK   11  A    between atoms: C22_38  and  O5_39 
REMARK   12  A    between atoms: C22_38  and  N8_41 
REMARK       I    between atoms: N8_41  and  C23_43 
REMARK   13  A    between atoms: C23_43  and  C24_45 
REMARK   14  A    between atoms: C24_45  and  C25_46 
ROOT
HETATM    1  C1  UNL     1      12.063  23.512   2.747  1.00  0.00     0.050 C 
HETATM    2  C2  UNL     1      11.365  24.350   3.743  1.00  0.00    -0.035 A 
HETATM    3  C3  UNL     1      10.158  24.929   3.297  1.00  0.00    -0.024 A 
HETATM    4  C4  UNL     1       9.455  25.697   4.202  1.00  0.00     0.043 A 
HETATM    5  C5  UNL     1       9.932  25.873   5.470  1.00  0.00     0.067 A 
HETATM    6  C6  UNL     1      11.131  25.307   5.931  1.00  0.00     0.121 A 
HETATM    7  C7  UNL     1      11.839  24.540   5.039  1.00  0.00     0.071 A 
HETATM    8  N7  UNL     1       8.218  26.309   3.784  1.00  0.00    -0.352 N 
HETATM    9  C31 UNL     1       8.055  26.449   2.319  1.00  0.00     0.129 C 
HETATM   10  C32 UNL     1       8.236  25.009   1.790  1.00  0.00     0.025 C 
HETATM   11  C33 UNL     1       9.711  24.703   1.895  1.00  0.00     0.043 C 
ENDROOT
BRANCH   7  12
HETATM   12  C8  UNL     1      13.104  23.952   5.437  1.00  0.00     0.255 C 
HETATM   13  O3  UNL     1      14.178  24.489   5.063  1.00  0.00    -0.268 OA
HETATM   14  N2  UNL     1      13.192  22.782   6.230  1.00  0.00    -0.344 N 
ATOM     15  H2  UNL     1      12.341  22.323   6.552  1.00  0.00     0.163 HD
BRANCH  14  16
HETATM   16  C9  UNL     1      14.535  22.211   6.603  1.00  0.00     0.177 C 
BRANCH  16  17
HETATM   17  C10 UNL     1      14.404  21.852   8.036  1.00  0.00     0.040 C 
BRANCH  17  18
HETATM   18  C11 UNL     1      15.478  22.150   8.995  1.00  0.00     0.047 C 
BRANCH  18  19
HETATM   19  C12 UNL     1      16.656  22.921   8.559  1.00  0.00     0.063 C 
BRANCH  19  20
HETATM   20  N3  UNL     1      17.785  22.298   8.019  1.00  0.00    -0.344 N 
HETATM   21  C13 UNL     1      18.050  20.924   8.323  1.00  0.00     0.185 C 
HETATM   22  N4  UNL     1      18.448  20.506   9.473  1.00  0.00    -0.374 N 
HETATM   23  N5  UNL     1      17.866  19.961   7.296  1.00  0.00    -0.064 NA
ATOM     24  H42 UNL     1      18.580  21.198  10.211  1.00  0.00     0.158 HD
ATOM     25  H41 UNL     1      18.637  19.527   9.690  1.00  0.00     0.158 HD
ATOM     26  H3  UNL     1      18.416  22.819   7.410  1.00  0.00     0.167 HD
ENDBRANCH  19  20
ENDBRANCH  18  19
ENDBRANCH  17  18
ENDBRANCH  16  17
BRANCH  16  27
HETATM   27  C14 UNL     1      14.751  21.047   5.690  1.00  0.00     0.240 C 
HETATM   28  O4  UNL     1      13.792  20.192   5.646  1.00  0.00    -0.271 OA
HETATM   29  N6  UNL     1      15.850  20.763   4.882  1.00  0.00    -0.355 N 
ATOM     30  H6  UNL     1      16.641  21.408   4.878  1.00  0.00     0.162 HD
BRANCH  29  31
HETATM   31  C15 UNL     1      15.906  19.563   4.035  1.00  0.00     0.084 C 
HETATM   32  C16 UNL     1      17.330  19.078   3.851  1.00  0.00     0.025 C 
HETATM   33  C17 UNL     1      17.245  17.863   2.946  1.00  0.00     0.002 C 
HETATM   34  C18 UNL     1      16.738  18.317   1.598  1.00  0.00     0.000 C 
HETATM   35  C19 UNL     1      15.336  18.825   1.689  1.00  0.00     0.002 C 
HETATM   36  C20 UNL     1      15.194  19.850   2.762  1.00  0.00     0.025 C 
ENDBRANCH  29  31
ENDBRANCH  16  27
ENDBRANCH  14  16
ENDBRANCH   7  12
BRANCH   6  37
HETATM   37  N1  UNL     1      11.517  25.598   7.265  1.00  0.00    -0.115 N 
HETATM   38  O1  UNL     1      10.600  25.940   8.079  1.00  0.00    -0.532 OA
HETATM   39  O2  UNL     1      12.775  25.550   7.773  1.00  0.00    -0.532 OA
ENDBRANCH   6  37
BRANCH   8  40
HETATM   40  C21 UNL     1       7.258  26.702   4.715  1.00  0.00     0.147 C 
HETATM   41  C22 UNL     1       5.956  26.129   4.763  1.00  0.00     0.158 C 
BRANCH  41  42
HETATM   42  O5  UNL     1       5.296  26.625   5.854  1.00  0.00    -0.345 OA
ATOM     43  H5  UNL     1       4.461  26.180   5.935  1.00  0.00     0.219 HD
ENDBRANCH  41  42
BRANCH  41  44
HETATM   44  N8  UNL     1       5.158  25.246   4.064  1.00  0.00    -0.307 N 
HETATM   45  C23 UNL     1       4.544  25.239   2.810  1.00  0.00     0.224 C 
HETATM   46  O6  UNL     1       4.598  26.110   1.935  1.00  0.00    -0.273 OA
ATOM     47  H8  UNL     1       4.973  24.392   4.591  1.00  0.00     0.171 HD
BRANCH  45  48
HETATM   48  C24 UNL     1       3.705  23.993   2.492  1.00  0.00     0.108 C 
BRANCH  48  49
HETATM   49  C25 UNL     1       3.005  23.504   3.708  1.00  0.00    -0.006 C 
HETATM   50  C26 UNL     1       3.536  22.162   4.174  1.00  0.00     0.005 C 
HETATM   51  C27 UNL     1       2.956  20.975   3.507  1.00  0.00     0.000 C 
HETATM   52  C28 UNL     1       2.160  21.195   2.274  1.00  0.00     0.000 C 
HETATM   53  C29 UNL     1       1.284  22.412   2.270  1.00  0.00     0.000 C 
HETATM   54  C30 UNL     1       1.519  23.279   3.489  1.00  0.00     0.005 C 
ENDBRANCH  48  49
ENDBRANCH  45  48
ENDBRANCH  41  44
ENDBRANCH   8  40
TORSDOF 14
ENDMDL
MODEL 3
REMARK VINA RESULT: -9.648789134      3.434     12.114
REMARK  14 active torsions:
REMARK  status: ('A' for Active; 'I' for Inactive)
REMARK    1  A    between atoms: C6_6  and  N1_7 
REMARK    2  A    between atoms: C7_10  and  C8_11 
REMARK       I    between atoms: C8_11  and  N2_13 
REMARK    3  A    between atoms: N2_13  and  C9_15 
REMARK    4  A    between atoms: C9_15  and  C10_16 
REMARK    5  A    between atoms: C9_15  and  C14_26 
REMARK    6  A    between atoms: C10_16  and  C11_17 
REMARK    7  A    between atoms: C11_17  and  C12_18 
REMARK    8  A    between atoms: C12_18  and  N3_19 
REMARK       I    between atoms: N3_19  and  C13_21 
REMARK       I    between atoms: C14_26  and  N6_28 
REMARK    9  A    between atoms: N6_28  and  C15_30 
REMARK   10  A    between atoms: N7_36  and  C21_37 
REMARK   11  A    between atoms: C22_38  and  O5_39 
REMARK   12  A    between atoms: C22_38  and  N8_41 
REMARK       I    between atoms: N8_41  and  C23_43 
REMARK   13  A    between atoms: C23_43  and  C24_45 
REMARK   14  A    between atoms: C24_45  and  C25_46 
ROOT
HETATM    1  C1  UNL     1      14.135  22.703   7.915  1.00  0.00     0.050 C 
HETATM    2  C2  UNL     1      14.874  21.909   6.912  1.00  0.00    -0.035 A 
HETATM    3  C3  UNL     1      16.053  21.295   7.385  1.00  0.00    -0.024 A 
HETATM    4  C4  UNL     1      16.761  20.519   6.492  1.00  0.00     0.043 A 
HETATM    5  C5  UNL     1      16.316  20.368   5.209  1.00  0.00     0.067 A 
HETATM    6  C6  UNL     1      15.147  20.972   4.720  1.00  0.00     0.121 A 
HETATM    7  C7  UNL     1      14.433  21.746   5.601  1.00  0.00     0.071 A 
HETATM    8  N7  UNL     1      17.974  19.877   6.935  1.00  0.00    -0.352 N 
HETATM    9  C31 UNL     1      18.592  20.476   8.140  1.00  0.00     0.129 C 
HETATM   10  C32 UNL     1      17.460  20.440   9.190  1.00  0.00     0.025 C 
HETATM   11  C33 UNL     1      16.482  21.519   8.793  1.00  0.00     0.043 C 
ENDROOT
BRANCH   7  12
HETATM   12  C8  UNL     1      13.233  22.428   5.154  1.00  0.00     0.255 C 
HETATM   13  O3  UNL     1      12.116  21.864   5.293  1.00  0.00    -0.268 OA
HETATM   14  N2  UNL     1      13.254  23.710   4.553  1.00  0.00    -0.344 N 
ATOM     15  H2  UNL     1      14.142  24.195   4.428  1.00  0.00     0.163 HD
BRANCH  14  16
HETATM   16  C9  UNL     1      11.976  24.362   4.098  1.00  0.00     0.177 C 
BRANCH  16  17
HETATM   17  C10 UNL     1      11.308  23.335   3.264  1.00  0.00     0.040 C 
BRANCH  17  18
HETATM   18  C11 UNL     1      10.390  23.714   2.180  1.00  0.00     0.047 C 
BRANCH  18  19
HETATM   19  C12 UNL     1      10.135  25.140   1.903  1.00  0.00     0.063 C 
BRANCH  19  20
HETATM   20  N3  UNL     1       8.849  25.683   1.965  1.00  0.00    -0.344 N 
HETATM   21  C13 UNL     1       8.270  25.991   3.239  1.00  0.00     0.185 C 
HETATM   22  N4  UNL     1       7.867  25.103   4.079  1.00  0.00    -0.374 N 
HETATM   23  N5  UNL     1       8.128  27.356   3.600  1.00  0.00    -0.064 NA
ATOM     24  H42 UNL     1       7.969  24.122   3.819  1.00  0.00     0.158 HD
ATOM     25  H41 UNL     1       7.454  25.322   4.986  1.00  0.00     0.158 HD
ATOM     26  H3  UNL     1       8.325  25.860   1.108  1.00  0.00     0.167 HD
ENDBRANCH  19  20
ENDBRANCH  18  19
ENDBRANCH  17  18
ENDBRANCH  16  17
BRANCH  16  27
HETATM   27  C14 UNL     1      11.236  24.725   5.345  1.00  0.00     0.240 C 
HETATM   28  O4  UNL     1      10.133  24.093   5.538  1.00  0.00    -0.271 OA
HETATM   29  N6  UNL     1      11.579  25.654   6.326  1.00  0.00    -0.355 N 
ATOM     30  H6  UNL     1      12.444  26.185   6.223  1.00  0.00     0.162 HD
BRANCH  29  31
HETATM   31  C15 UNL     1      10.732  25.894   7.503  1.00  0.00     0.084 C 
HETATM   32  C16 UNL     1       9.693  26.963   7.233  1.00  0.00     0.025 C 
HETATM   33  C17 UNL     1       8.913  27.126   8.524  1.00  0.00     0.002 C 
HETATM   34  C18 UNL     1       9.856  27.659   9.577  1.00  0.00     0.000 C 
HETATM   35  C19 UNL     1      10.926  26.668   9.898  1.00  0.00     0.002 C 
HETATM   36  C20 UNL     1      11.611  26.184   8.666  1.00  0.00     0.025 C 
ENDBRANCH  29  31
ENDBRANCH  16  27
ENDBRANCH  14  16
ENDBRANCH   7  12
BRANCH   6  37
HETATM   37  N1  UNL     1      14.821  20.749   3.357  1.00  0.00    -0.115 N 
HETATM   38  O1  UNL     1      14.829  19.547   2.942  1.00  0.00    -0.532 OA
HETATM   39  O2  UNL     1      14.497  21.695   2.437  1.00  0.00    -0.532 OA
ENDBRANCH   6  37
BRANCH   8  40
HETATM   40  C21 UNL     1      18.483  18.762   6.272  1.00  0.00     0.147 C 
HETATM   41  C22 UNL     1      18.651  17.500   6.909  1.00  0.00     0.158 C 
BRANCH  41  42
HETATM   42  O5  UNL     1      19.045  16.583   5.975  1.00  0.00    -0.345 OA
ATOM     43  H5  UNL     1      18.978  15.714   6.351  1.00  0.00     0.219 HD
ENDBRANCH  41  42
BRANCH  41  44
HETATM   44  N8  UNL     1      18.545  16.919   8.157  1.00  0.00    -0.307 N 
HETATM   45  C23 UNL     1      18.466  15.611   8.641  1.00  0.00     0.224 C 
HETATM   46  O6  UNL     1      18.498  14.560   7.993  1.00  0.00    -0.273 OA
ATOM     47  H8  UNL     1      18.519  17.612   8.906  1.00  0.00     0.171 HD
BRANCH  45  48
HETATM   48  C24 UNL     1      18.325  15.478  10.165  1.00  0.00     0.108 C 
BRANCH  48  49
HETATM   49  C25 UNL     1      18.035  16.798  10.784  1.00  0.00    -0.006 C 
HETATM   50  C26 UNL     1      18.638  16.925  12.170  1.00  0.00     0.005 C 
HETATM   51  C27 UNL     1      17.832  16.361  13.275  1.00  0.00     0.000 C 
HETATM   52  C28 UNL     1      16.690  15.480  12.920  1.00  0.00     0.000 C 
HETATM   53  C29 UNL     1      15.905  15.886  11.709  1.00  0.00     0.000 C 
HETATM   54  C30 UNL     1      16.550  17.047  10.982  1.00  0.00     0.005 C 
ENDBRANCH  48  49
ENDBRANCH  45  48
ENDBRANCH  41  44
ENDBRANCH   8  40
TORSDOF 14
ENDMDL
MODEL 4
REMARK VINA RESULT: -9.646256255      3.246      4.957
REMARK  14 active torsions:
REMARK  status: ('A' for Active; 'I' for Inactive)
REMARK    1  A    between atoms: C6_6  and  N1_7 
REMARK    2  A    between atoms: C7_10  and  C8_11 
REMARK       I    between atoms: C8_11  and  N2_13 
REMARK    3  A    between atoms: N2_13  and  C9_15 
REMARK    4  A    between atoms: C9_15  and  C10_16 
REMARK    5  A    between atoms: C9_15  and  C14_26 
REMARK    6  A    between atoms: C10_16  and  C11_17 
REMARK    7  A    between atoms: C11_17  and  C12_18 
REMARK    8  A    between atoms: C12_18  and  N3_19 
REMARK       I    between atoms: N3_19  and  C13_21 
REMARK       I    between atoms: C14_26  and  N6_28 
REMARK    9  A    between atoms: N6_28  and  C15_30 
REMARK   10  A    between atoms: N7_36  and  C21_37 
REMARK   11  A    between atoms: C22_38  and  O5_39 
REMARK   12  A    between atoms: C22_38  and  N8_41 
REMARK       I    between atoms: N8_41  and  C23_43 
REMARK   13  A    between atoms: C23_43  and  C24_45 
REMARK   14  A    between atoms: C24_45  and  C25_46 
ROOT
HETATM    1  C1  UNL     1      11.373  26.689   8.502  1.00  0.00     0.050 C 
HETATM    2  C2  UNL     1      10.417  26.306   7.443  1.00  0.00    -0.035 A 
HETATM    3  C3  UNL     1       9.100  26.776   7.628  1.00  0.00    -0.024 A 
HETATM    4  C4  UNL     1       8.178  26.468   6.650  1.00  0.00     0.043 A 
HETATM    5  C5  UNL     1       8.553  25.737   5.558  1.00  0.00     0.067 A 
HETATM    6  C6  UNL     1       9.857  25.259   5.358  1.00  0.00     0.121 A 
HETATM    7  C7  UNL     1      10.784  25.561   6.325  1.00  0.00     0.071 A 
HETATM    8  N7  UNL     1       6.819  26.927   6.803  1.00  0.00    -0.352 N 
HETATM    9  C31 UNL     1       6.430  27.270   8.189  1.00  0.00     0.129 C 
HETATM   10  C32 UNL     1       7.482  28.317   8.617  1.00  0.00     0.025 C 
HETATM   11  C33 UNL     1       8.764  27.554   8.852  1.00  0.00     0.043 C 
ENDROOT
BRANCH   7  12
HETATM   12  C8  UNL     1      12.144  25.071   6.200  1.00  0.00     0.255 C 
HETATM   13  O3  UNL     1      13.018  25.806   5.670  1.00  0.00    -0.268 OA
HETATM   14  N2  UNL     1      12.543  23.787   6.642  1.00  0.00    -0.344 N 
ATOM     15  H2  UNL     1      11.861  23.167   7.078  1.00  0.00     0.163 HD
BRANCH  14  16
HETATM   16  C9  UNL     1      13.967  23.328   6.474  1.00  0.00     0.177 C 
BRANCH  16  17
HETATM   17  C10 UNL     1      14.482  23.192   7.858  1.00  0.00     0.040 C 
BRANCH  17  18
HETATM   18  C11 UNL     1      15.847  22.712   8.119  1.00  0.00     0.047 C 
BRANCH  18  19
HETATM   19  C12 UNL     1      16.051  21.423   8.806  1.00  0.00     0.063 C 
BRANCH  19  20
HETATM   20  N3  UNL     1      16.382  20.260   8.106  1.00  0.00    -0.344 N 
HETATM   21  C13 UNL     1      17.746  20.011   7.748  1.00  0.00     0.185 C 
HETATM   22  N4  UNL     1      18.382  20.663   6.839  1.00  0.00    -0.374 N 
HETATM   23  N5  UNL     1      18.443  18.982   8.435  1.00  0.00    -0.064 NA
ATOM     24  H42 UNL     1      17.880  21.402   6.346  1.00  0.00     0.158 HD
ATOM     25  H41 UNL     1      19.354  20.486   6.583  1.00  0.00     0.158 HD
ATOM     26  H3  UNL     1      15.655  19.591   7.851  1.00  0.00     0.167 HD
ENDBRANCH  19  20
ENDBRANCH  18  19
ENDBRANCH  17  18
ENDBRANCH  16  17
BRANCH  16  27
HETATM   27  C14 UNL     1      13.896  22.046   5.711  1.00  0.00     0.240 C 
HETATM   28  O4  UNL     1      12.860  21.321   5.939  1.00  0.00    -0.271 OA
HETATM   29  N6  UNL     1      14.802  21.528   4.785  1.00  0.00    -0.355 N 
ATOM     30  H6  UNL     1      15.643  22.062   4.566  1.00  0.00     0.162 HD
BRANCH  29  31
HETATM   31  C15 UNL     1      14.582  20.239   4.116  1.00  0.00     0.084 C 
HETATM   32  C16 UNL     1      15.381  19.129   4.769  1.00  0.00     0.025 C 
HETATM   33  C17 UNL     1      15.084  17.873   3.973  1.00  0.00     0.002 C 
HETATM   34  C18 UNL     1      15.623  18.065   2.575  1.00  0.00     0.000 C 
HETATM   35  C19 UNL     1      14.895  19.154   1.858  1.00  0.00     0.002 C 
HETATM   36  C20 UNL     1      14.853  20.407   2.664  1.00  0.00     0.025 C 
ENDBRANCH  29  31
ENDBRANCH  16  27
ENDBRANCH  14  16
ENDBRANCH   7  12
BRANCH   6  37
HETATM   37  N1  UNL     1      10.096  24.489   4.190  1.00  0.00    -0.115 N 
HETATM   38  O1  UNL     1       9.844  25.033   3.068  1.00  0.00    -0.532 OA
HETATM   39  O2  UNL     1      10.571  23.218   4.142  1.00  0.00    -0.532 OA
ENDBRANCH   6  37
BRANCH   8  40
HETATM   40  C21 UNL     1       5.973  27.051   5.703  1.00  0.00     0.147 C 
HETATM   41  C22 UNL     1       5.039  28.117   5.570  1.00  0.00     0.158 C 
BRANCH  41  42
HETATM   42  O5  UNL     1       4.451  28.036   4.338  1.00  0.00    -0.345 OA
ATOM     43  H5  UNL     1       4.195  28.909   4.063  1.00  0.00     0.219 HD
ENDBRANCH  41  42
BRANCH  41  44
HETATM   44  N8  UNL     1       4.545  29.190   6.283  1.00  0.00    -0.307 N 
HETATM   45  C23 UNL     1       3.275  29.636   6.656  1.00  0.00     0.224 C 
HETATM   46  O6  UNL     1       2.186  29.101   6.425  1.00  0.00    -0.273 OA
ATOM     47  H8  UNL     1       5.286  29.806   6.619  1.00  0.00     0.171 HD
BRANCH  45  48
HETATM   48  C24 UNL     1       3.243  30.951   7.450  1.00  0.00     0.108 C 
BRANCH  48  49
HETATM   49  C25 UNL     1       2.461  31.986   6.725  1.00  0.00    -0.006 C 
HETATM   50  C26 UNL     1       3.068  32.324   5.377  1.00  0.00     0.005 C 
HETATM   51  C27 UNL     1       4.155  33.327   5.396  1.00  0.00     0.000 C 
HETATM   52  C28 UNL     1       4.748  33.681   6.711  1.00  0.00     0.000 C 
HETATM   53  C29 UNL     1       3.786  33.769   7.857  1.00  0.00     0.000 C 
HETATM   54  C30 UNL     1       2.398  33.310   7.466  1.00  0.00     0.005 C 
ENDBRANCH  48  49
ENDBRANCH  45  48
ENDBRANCH  41  44
ENDBRANCH   8  40
TORSDOF 14
ENDMDL
MODEL 5
REMARK VINA RESULT: -9.541201955      1.709      2.698
REMARK  14 active torsions:
REMARK  status: ('A' for Active; 'I' for Inactive)
REMARK    1  A    between atoms: C6_6  and  N1_7 
REMARK    2  A    between atoms: C7_10  and  C8_11 
REMARK       I    between atoms: C8_11  and  N2_13 
REMARK    3  A    between atoms: N2_13  and  C9_15 
REMARK    4  A    between atoms: C9_15  and  C10_16 
REMARK    5  A    between atoms: C9_15  and  C14_26 
REMARK    6  A    between atoms: C10_16  and  C11_17 
REMARK    7  A    between atoms: C11_17  and  C12_18 
REMARK    8  A    between atoms: C12_18  and  N3_19 
REMARK       I    between atoms: N3_19  and  C13_21 
REMARK       I    between atoms: C14_26  and  N6_28 
REMARK    9  A    between atoms: N6_28  and  C15_30 
REMARK   10  A    between atoms: N7_36  and  C21_37 
REMARK   11  A    between atoms: C22_38  and  O5_39 
REMARK   12  A    between atoms: C22_38  and  N8_41 
REMARK       I    between atoms: N8_41  and  C23_43 
REMARK   13  A    between atoms: C23_43  and  C24_45 
REMARK   14  A    between atoms: C24_45  and  C25_46 
ROOT
HETATM    1  C1  UNL     1      10.889  26.295   8.424  1.00  0.00     0.050 C 
HETATM    2  C2  UNL     1      10.081  26.112   7.201  1.00  0.00    -0.035 A 
HETATM    3  C3  UNL     1       8.748  26.566   7.291  1.00  0.00    -0.024 A 
HETATM    4  C4  UNL     1       7.963  26.442   6.164  1.00  0.00     0.043 A 
HETATM    5  C5  UNL     1       8.481  25.900   5.022  1.00  0.00     0.067 A 
HETATM    6  C6  UNL     1       9.803  25.441   4.914  1.00  0.00     0.121 A 
HETATM    7  C7  UNL     1      10.595  25.560   6.030  1.00  0.00     0.071 A 
HETATM    8  N7  UNL     1       6.594  26.891   6.216  1.00  0.00    -0.352 N 
HETATM    9  C31 UNL     1       6.025  27.002   7.578  1.00  0.00     0.129 C 
HETATM   10  C32 UNL     1       7.007  27.944   8.310  1.00  0.00     0.025 C 
HETATM   11  C33 UNL     1       8.252  27.132   8.575  1.00  0.00     0.043 C 
ENDROOT
BRANCH   7  12
HETATM   12  C8  UNL     1      11.962  25.076   6.000  1.00  0.00     0.255 C 
HETATM   13  O3  UNL     1      12.883  25.853   5.636  1.00  0.00    -0.268 OA
HETATM   14  N2  UNL     1      12.318  23.753   6.357  1.00  0.00    -0.344 N 
ATOM     15  H2  UNL     1      11.596  23.099   6.658  1.00  0.00     0.163 HD
BRANCH  14  16
HETATM   16  C9  UNL     1      13.753  23.304   6.295  1.00  0.00     0.177 C 
BRANCH  16  17
HETATM   17  C10 UNL     1      14.180  23.219   7.713  1.00  0.00     0.040 C 
BRANCH  17  18
HETATM   18  C11 UNL     1      15.327  22.390   8.114  1.00  0.00     0.047 C 
BRANCH  18  19
HETATM   19  C12 UNL     1      16.642  23.019   8.335  1.00  0.00     0.063 C 
BRANCH  19  20
HETATM   20  N3  UNL     1      17.828  22.414   7.908  1.00  0.00    -0.344 N 
HETATM   21  C13 UNL     1      18.075  21.038   8.220  1.00  0.00     0.185 C 
HETATM   22  N4  UNL     1      18.355  20.607   9.400  1.00  0.00    -0.374 N 
HETATM   23  N5  UNL     1      18.010  20.089   7.166  1.00  0.00    -0.064 NA
ATOM     24  H42 UNL     1      18.401  21.290  10.156  1.00  0.00     0.158 HD
ATOM     25  H41 UNL     1      18.531  19.627   9.622  1.00  0.00     0.158 HD
ATOM     26  H3  UNL     1      18.514  22.950   7.376  1.00  0.00     0.167 HD
ENDBRANCH  19  20
ENDBRANCH  18  19
ENDBRANCH  17  18
ENDBRANCH  16  17
BRANCH  16  27
HETATM   27  C14 UNL     1      13.741  21.996   5.573  1.00  0.00     0.240 C 
HETATM   28  O4  UNL     1      12.708  21.260   5.777  1.00  0.00    -0.271 OA
HETATM   29  N6  UNL     1      14.698  21.466   4.709  1.00  0.00    -0.355 N 
ATOM     30  H6  UNL     1      15.540  22.008   4.511  1.00  0.00     0.162 HD
BRANCH  29  31
HETATM   31  C15 UNL     1      14.533  20.151   4.074  1.00  0.00     0.084 C 
HETATM   32  C16 UNL     1      15.351  19.087   4.777  1.00  0.00     0.025 C 
HETATM   33  C17 UNL     1      15.111  17.799   4.012  1.00  0.00     0.002 C 
HETATM   34  C18 UNL     1      15.675  17.967   2.621  1.00  0.00     0.000 C 
HETATM   35  C19 UNL     1      14.930  19.011   1.857  1.00  0.00     0.002 C 
HETATM   36  C20 UNL     1      14.832  20.285   2.624  1.00  0.00     0.025 C 
ENDBRANCH  29  31
ENDBRANCH  16  27
ENDBRANCH  14  16
ENDBRANCH   7  12
BRANCH   6  37
HETATM   37  N1  UNL     1      10.197  24.876   3.674  1.00  0.00    -0.115 N 
HETATM   38  O1  UNL     1       9.714  25.391   2.615  1.00  0.00    -0.532 OA
HETATM   39  O2  UNL     1      11.043  23.829   3.493  1.00  0.00    -0.532 OA
ENDBRANCH   6  37
BRANCH   8  40
HETATM   40  C21 UNL     1       5.897  27.213   5.052  1.00  0.00     0.147 C 
HETATM   41  C22 UNL     1       4.970  26.323   4.442  1.00  0.00     0.158 C 
BRANCH  41  42
HETATM   42  O5  UNL     1       4.360  26.967   3.401  1.00  0.00    -0.345 OA
ATOM     43  H5  UNL     1       3.467  27.176   3.650  1.00  0.00     0.219 HD
ENDBRANCH  41  42
BRANCH  41  44
HETATM   44  N8  UNL     1       4.500  25.031   4.565  1.00  0.00    -0.307 N 
HETATM   45  C23 UNL     1       3.240  24.433   4.641  1.00  0.00     0.224 C 
HETATM   46  O6  UNL     1       2.136  24.985   4.587  1.00  0.00    -0.273 OA
ATOM     47  H8  UNL     1       5.257  24.347   4.612  1.00  0.00     0.171 HD
BRANCH  45  48
HETATM   48  C24 UNL     1       3.241  22.907   4.809  1.00  0.00     0.108 C 
BRANCH  48  49
HETATM   49  C25 UNL     1       3.693  22.239   3.561  1.00  0.00    -0.006 C 
HETATM   50  C26 UNL     1       3.379  23.061   2.325  1.00  0.00     0.005 C 
HETATM   51  C27 UNL     1       2.014  22.901   1.777  1.00  0.00     0.000 C 
HETATM   52  C28 UNL     1       1.005  22.214   2.622  1.00  0.00     0.000 C 
HETATM   53  C29 UNL     1       1.506  21.046   3.418  1.00  0.00     0.000 C 
HETATM   54  C30 UNL     1       3.011  20.903   3.321  1.00  0.00     0.005 C 
ENDBRANCH  48  49
ENDBRANCH  45  48
ENDBRANCH  41  44
ENDBRANCH   8  40
TORSDOF 14
ENDMDL
