MODEL 1
REMARK VINA RESULT: -8.932327911      0.000      0.000
REMARK  18 active torsions:
REMARK  status: ('A' for Active; 'I' for Inactive)
REMARK    1  A    between atoms: C2_2  and  N1_3 
REMARK    2  A    between atoms: C2_2  and  C15_24 
REMARK    3  A    between atoms: N1_3  and  C3_5 
REMARK    4  A    between atoms: C3_5  and  C4_6 
REMARK    5  A    between atoms: C3_5  and  C11_13 
REMARK    6  A    between atoms: C4_6  and  C5_7 
REMARK    7  A    between atoms: C11_13  and  C12_15 
REMARK    8  A    between atoms: C12_15  and  N2_16 
REMARK    9  A    between atoms: C12_15  and  C13_20 
REMARK   10  A    between atoms: C13_20  and  C14_21 
REMARK       I    between atoms: C15_24  and  N4_26 
REMARK   11  A    between atoms: N4_26  and  C16_28 
REMARK   12  A    between atoms: C16_28  and  O4_29 
REMARK   13  A    between atoms: C16_28  and  C17_31 
REMARK       I    between atoms: C17_31  and  N5_33 
REMARK       I    between atoms: N6_36  and  C20_37 
REMARK       I    between atoms: C20_37  and  N7_39 
REMARK   14  A    between atoms: N7_39  and  C21_41 
REMARK   15  A    between atoms: C21_41  and  C22_42 
REMARK   16  A    between atoms: C22_42  and  C23_43 
REMARK   17  A    between atoms: C23_43  and  C24_44 
REMARK   18  A    between atoms: C24_44  and  C25_45 
ROOT
HETATM    1  C15 UNL     1      18.782  16.864   6.156  1.00  0.00     0.242 C 
HETATM    2  O3  UNL     1      19.320  17.944   6.534  1.00  0.00    -0.271 OA
HETATM    3  N4  UNL     1      18.259  16.753   4.855  1.00  0.00    -0.325 N 
ATOM      4  H4  UNL     1      17.844  15.870   4.560  1.00  0.00     0.165 HD
ENDROOT
BRANCH   3   5
HETATM    5  C16 UNL     1      18.294  17.857   3.926  1.00  0.00     0.314 C 
BRANCH   5   6
HETATM    6  O4  UNL     1      19.099  17.557   2.799  1.00  0.00    -0.368 OA
ATOM      7  H4  UNL     1      19.323  16.635   2.770  1.00  0.00     0.212 HD
ENDBRANCH   5   6
BRANCH   5   8
HETATM    8  C17 UNL     1      16.937  18.249   3.545  1.00  0.00     0.268 C 
HETATM    9  O5  UNL     1      16.220  17.530   2.767  1.00  0.00    -0.268 OA
HETATM   10  N5  UNL     1      16.351  19.453   4.025  1.00  0.00    -0.345 N 
HETATM   11  C18 UNL     1      15.061  19.868   3.485  1.00  0.00     0.146 C 
HETATM   12  C32 UNL     1      17.033  20.177   5.067  1.00  0.00     0.146 C 
HETATM   13  C19 UNL     1      14.808  21.310   3.906  1.00  0.00     0.147 C 
HETATM   14  N6  UNL     1      14.866  21.332   5.358  1.00  0.00    -0.331 N 
HETATM   15  C20 UNL     1      13.778  21.718   6.133  1.00  0.00     0.318 C 
HETATM   16  C31 UNL     1      16.108  20.921   6.013  1.00  0.00     0.147 C 
HETATM   17  O6  UNL     1      13.881  21.687   7.398  1.00  0.00    -0.247 OA
HETATM   18  N7  UNL     1      12.556  22.146   5.571  1.00  0.00    -0.343 N 
ATOM     19  H7  UNL     1      12.446  22.192   4.558  1.00  0.00     0.164 HD
BRANCH  18  20
HETATM   20  C21 UNL     1      11.447  22.525   6.450  1.00  0.00     0.124 C 
BRANCH  20  21
HETATM   21  C22 UNL     1      11.404  24.037   6.515  1.00  0.00     0.020 C 
BRANCH  21  22
HETATM   22  C23 UNL     1      10.146  24.584   5.958  1.00  0.00     0.002 C 
BRANCH  22  23
HETATM   23  C24 UNL     1       9.858  26.020   6.180  1.00  0.00     0.005 C 
BRANCH  23  24
HETATM   24  C25 UNL     1       9.719  26.545   7.551  1.00  0.00    -0.014 C 
HETATM   25  C26 UNL     1       9.285  25.620   8.607  1.00  0.00     0.004 C 
HETATM   26  C27 UNL     1       9.821  26.147   9.971  1.00  0.00     0.000 C 
HETATM   27  C28 UNL     1       9.770  27.649   9.915  1.00  0.00     0.000 C 
HETATM   28  C29 UNL     1       8.622  28.140   9.052  1.00  0.00     0.000 C 
HETATM   29  C30 UNL     1       8.907  27.845   7.596  1.00  0.00     0.004 C 
ENDBRANCH  23  24
ENDBRANCH  22  23
ENDBRANCH  21  22
ENDBRANCH  20  21
ENDBRANCH  18  20
ENDBRANCH   5   8
ENDBRANCH   3   5
BRANCH   1  30
HETATM   30  C2  UNL     1      18.741  15.720   7.170  1.00  0.00     0.169 C 
HETATM   31  C1  UNL     1      19.101  14.497   6.401  1.00  0.00     0.042 C 
BRANCH  30  32
HETATM   32  N1  UNL     1      19.341  16.166   8.305  1.00  0.00    -0.377 N 
ATOM     33  H1  UNL     1      20.329  16.398   8.206  1.00  0.00     0.160 HD
BRANCH  32  34
HETATM   34  C3  UNL     1      18.819  16.356   9.588  1.00  0.00     0.054 C 
BRANCH  34  35
HETATM   35  C4  UNL     1      17.595  15.633   9.921  1.00  0.00     0.065 C 
BRANCH  35  36
HETATM   36  C5  UNL     1      17.160  15.516  11.330  1.00  0.00    -0.009 C 
HETATM   37  C6  UNL     1      15.901  16.374  11.606  1.00  0.00     0.005 C 
HETATM   38  C7  UNL     1      15.138  15.652  12.714  1.00  0.00     0.000 C 
HETATM   39  C8  UNL     1      16.051  14.922  13.648  1.00  0.00     0.000 C 
HETATM   40  C9  UNL     1      17.350  15.675  13.766  1.00  0.00     0.000 C 
HETATM   41  C10 UNL     1      18.074  15.765  12.443  1.00  0.00     0.005 C 
ENDBRANCH  35  36
ENDBRANCH  34  35
BRANCH  34  42
HETATM   42  C11 UNL     1      18.926  17.779   9.983  1.00  0.00     0.202 C 
HETATM   43  O1  UNL     1      19.994  18.060  10.563  1.00  0.00    -0.289 OA
BRANCH  42  44
HETATM   44  C12 UNL     1      18.006  18.887   9.815  1.00  0.00     0.267 C 
BRANCH  44  45
HETATM   45  N2  UNL     1      17.234  18.939   8.610  1.00  0.00    -0.067 N 
ATOM     46  H23 UNL     1      16.545  19.687   8.686  1.00  0.00     0.275 HD
ATOM     47  H22 UNL     1      17.819  19.291   7.852  1.00  0.00     0.275 HD
ATOM     48  H21 UNL     1      16.769  18.085   8.304  1.00  0.00     0.275 HD
ENDBRANCH  44  45
BRANCH  44  49
HETATM   49  C13 UNL     1      18.675  20.246  10.102  1.00  0.00     0.140 C 
BRANCH  49  50
HETATM   50  C14 UNL     1      18.538  21.161   8.958  1.00  0.00     0.233 C 
HETATM   51  N3  UNL     1      19.463  21.151   7.878  1.00  0.00    -0.062 NA
HETATM   52  O2  UNL     1      17.586  22.013   8.873  1.00  0.00    -0.277 OA
ENDBRANCH  49  50
ENDBRANCH  44  49
ENDBRANCH  42  44
ENDBRANCH  34  42
ENDBRANCH  32  34
ENDBRANCH  30  32
ENDBRANCH   1  30
TORSDOF 18
ENDMDL
MODEL 2
REMARK VINA RESULT: -8.879205180      4.958     12.989
REMARK  18 active torsions:
REMARK  status: ('A' for Active; 'I' for Inactive)
REMARK    1  A    between atoms: C2_2  and  N1_3 
REMARK    2  A    between atoms: C2_2  and  C15_24 
REMARK    3  A    between atoms: N1_3  and  C3_5 
REMARK    4  A    between atoms: C3_5  and  C4_6 
REMARK    5  A    between atoms: C3_5  and  C11_13 
REMARK    6  A    between atoms: C4_6  and  C5_7 
REMARK    7  A    between atoms: C11_13  and  C12_15 
REMARK    8  A    between atoms: C12_15  and  N2_16 
REMARK    9  A    between atoms: C12_15  and  C13_20 
REMARK   10  A    between atoms: C13_20  and  C14_21 
REMARK       I    between atoms: C15_24  and  N4_26 
REMARK   11  A    between atoms: N4_26  and  C16_28 
REMARK   12  A    between atoms: C16_28  and  O4_29 
REMARK   13  A    between atoms: C16_28  and  C17_31 
REMARK       I    between atoms: C17_31  and  N5_33 
REMARK       I    between atoms: N6_36  and  C20_37 
REMARK       I    between atoms: C20_37  and  N7_39 
REMARK   14  A    between atoms: N7_39  and  C21_41 
REMARK   15  A    between atoms: C21_41  and  C22_42 
REMARK   16  A    between atoms: C22_42  and  C23_43 
REMARK   17  A    between atoms: C23_43  and  C24_44 
REMARK   18  A    between atoms: C24_44  and  C25_45 
ROOT
HETATM    1  C15 UNL     1       7.922  25.529   3.663  1.00  0.00     0.242 C 
HETATM    2  O3  UNL     1       7.877  25.051   2.494  1.00  0.00    -0.271 OA
HETATM    3  N4  UNL     1       9.084  25.381   4.443  1.00  0.00    -0.325 N 
ATOM      4  H4  UNL     1       9.109  25.787   5.378  1.00  0.00     0.165 HD
ENDROOT
BRANCH   3   5
HETATM    5  C16 UNL     1      10.240  24.670   3.954  1.00  0.00     0.314 C 
BRANCH   5   6
HETATM    6  O4  UNL     1      10.570  25.067   2.635  1.00  0.00    -0.368 OA
ATOM      7  H4  UNL     1      11.485  25.312   2.566  1.00  0.00     0.212 HD
ENDBRANCH   5   6
BRANCH   5   8
HETATM    8  C17 UNL     1      11.365  24.828   4.875  1.00  0.00     0.268 C 
HETATM    9  O5  UNL     1      11.353  25.698   5.812  1.00  0.00    -0.268 OA
HETATM   10  N5  UNL     1      12.530  24.018   4.770  1.00  0.00    -0.345 N 
HETATM   11  C18 UNL     1      13.678  24.329   5.613  1.00  0.00     0.146 C 
HETATM   12  C32 UNL     1      12.498  22.888   3.876  1.00  0.00     0.146 C 
HETATM   13  C19 UNL     1      14.878  23.543   5.097  1.00  0.00     0.147 C 
HETATM   14  N6  UNL     1      14.496  22.142   5.127  1.00  0.00    -0.331 N 
HETATM   15  C20 UNL     1      15.183  21.208   5.896  1.00  0.00     0.318 C 
HETATM   16  C31 UNL     1      13.346  21.713   4.330  1.00  0.00     0.147 C 
HETATM   17  O6  UNL     1      14.782  20.003   5.904  1.00  0.00    -0.247 OA
HETATM   18  N7  UNL     1      16.312  21.544   6.672  1.00  0.00    -0.343 N 
ATOM     19  H7  UNL     1      16.664  22.501   6.678  1.00  0.00     0.164 HD
BRANCH  18  20
HETATM   20  C21 UNL     1      16.977  20.510   7.470  1.00  0.00     0.124 C 
BRANCH  20  21
HETATM   21  C22 UNL     1      18.255  20.126   6.756  1.00  0.00     0.020 C 
BRANCH  21  22
HETATM   22  C23 UNL     1      18.229  18.724   6.279  1.00  0.00     0.002 C 
BRANCH  22  23
HETATM   23  C24 UNL     1      18.456  18.480   4.836  1.00  0.00     0.005 C 
BRANCH  23  24
HETATM   24  C25 UNL     1      17.312  18.387   3.911  1.00  0.00    -0.014 C 
HETATM   25  C26 UNL     1      16.272  17.389   4.192  1.00  0.00     0.004 C 
HETATM   26  C27 UNL     1      14.938  17.878   3.553  1.00  0.00     0.000 C 
HETATM   27  C28 UNL     1      15.293  18.574   2.268  1.00  0.00     0.000 C 
HETATM   28  C29 UNL     1      16.531  17.973   1.626  1.00  0.00     0.000 C 
HETATM   29  C30 UNL     1      17.756  18.316   2.445  1.00  0.00     0.004 C 
ENDBRANCH  23  24
ENDBRANCH  22  23
ENDBRANCH  21  22
ENDBRANCH  20  21
ENDBRANCH  18  20
ENDBRANCH   5   8
ENDBRANCH   3   5
BRANCH   1  30
HETATM   30  C2  UNL     1       6.673  26.258   4.161  1.00  0.00     0.169 C 
HETATM   31  C1  UNL     1       5.522  25.452   3.668  1.00  0.00     0.042 C 
BRANCH  30  32
HETATM   32  N1  UNL     1       6.908  26.627   5.448  1.00  0.00    -0.377 N 
ATOM     33  H1  UNL     1       7.453  25.960   5.993  1.00  0.00     0.160 HD
BRANCH  32  34
HETATM   34  C3  UNL     1       6.520  27.776   6.143  1.00  0.00     0.054 C 
BRANCH  34  35
HETATM   35  C4  UNL     1       7.501  28.368   7.048  1.00  0.00     0.065 C 
BRANCH  35  36
HETATM   36  C5  UNL     1       8.448  27.506   7.786  1.00  0.00    -0.009 C 
HETATM   37  C6  UNL     1       7.719  26.638   8.841  1.00  0.00     0.005 C 
HETATM   38  C7  UNL     1       8.541  25.356   8.967  1.00  0.00     0.000 C 
HETATM   39  C8  UNL     1       9.999  25.592   8.730  1.00  0.00     0.000 C 
HETATM   40  C9  UNL     1      10.367  26.971   9.211  1.00  0.00     0.000 C 
HETATM   41  C10 UNL     1       9.629  28.050   8.453  1.00  0.00     0.005 C 
ENDBRANCH  35  36
ENDBRANCH  34  35
BRANCH  34  42
HETATM   42  C11 UNL     1       5.119  27.650   6.607  1.00  0.00     0.202 C 
HETATM   43  O1  UNL     1       4.879  26.576   7.193  1.00  0.00    -0.289 OA
BRANCH  42  44
HETATM   44  C12 UNL     1       3.993  28.556   6.493  1.00  0.00     0.267 C 
BRANCH  44  45
HETATM   45  N2  UNL     1       4.039  29.558   5.472  1.00  0.00    -0.067 N 
ATOM     46  H23 UNL     1       4.974  29.964   5.443  1.00  0.00     0.275 HD
ATOM     47  H22 UNL     1       3.995  29.107   4.558  1.00  0.00     0.275 HD
ATOM     48  H21 UNL     1       3.349  30.308   5.508  1.00  0.00     0.275 HD
ENDBRANCH  44  45
BRANCH  44  49
HETATM   49  C13 UNL     1       3.603  29.171   7.854  1.00  0.00     0.140 C 
BRANCH  49  50
HETATM   50  C14 UNL     1       2.691  30.313   7.682  1.00  0.00     0.233 C 
HETATM   51  N3  UNL     1       1.371  30.146   7.181  1.00  0.00    -0.062 NA
HETATM   52  O2  UNL     1       3.034  31.512   7.970  1.00  0.00    -0.277 OA
ENDBRANCH  49  50
ENDBRANCH  44  49
ENDBRANCH  42  44
ENDBRANCH  34  42
ENDBRANCH  32  34
ENDBRANCH  30  32
ENDBRANCH   1  30
TORSDOF 18
ENDMDL
MODEL 3
REMARK VINA RESULT: -8.738278019      2.881     11.174
REMARK  18 active torsions:
REMARK  status: ('A' for Active; 'I' for Inactive)
REMARK    1  A    between atoms: C2_2  and  N1_3 
REMARK    2  A    between atoms: C2_2  and  C15_24 
REMARK    3  A    between atoms: N1_3  and  C3_5 
REMARK    4  A    between atoms: C3_5  and  C4_6 
REMARK    5  A    between atoms: C3_5  and  C11_13 
REMARK    6  A    between atoms: C4_6  and  C5_7 
REMARK    7  A    between atoms: C11_13  and  C12_15 
REMARK    8  A    between atoms: C12_15  and  N2_16 
REMARK    9  A    between atoms: C12_15  and  C13_20 
REMARK   10  A    between atoms: C13_20  and  C14_21 
REMARK       I    between atoms: C15_24  and  N4_26 
REMARK   11  A    between atoms: N4_26  and  C16_28 
REMARK   12  A    between atoms: C16_28  and  O4_29 
REMARK   13  A    between atoms: C16_28  and  C17_31 
REMARK       I    between atoms: C17_31  and  N5_33 
REMARK       I    between atoms: N6_36  and  C20_37 
REMARK       I    between atoms: C20_37  and  N7_39 
REMARK   14  A    between atoms: N7_39  and  C21_41 
REMARK   15  A    between atoms: C21_41  and  C22_42 
REMARK   16  A    between atoms: C22_42  and  C23_43 
REMARK   17  A    between atoms: C23_43  and  C24_44 
REMARK   18  A    between atoms: C24_44  and  C25_45 
ROOT
HETATM    1  C15 UNL     1      14.193  23.501   5.281  1.00  0.00     0.242 C 
HETATM    2  O3  UNL     1      15.024  22.836   4.599  1.00  0.00    -0.271 OA
HETATM    3  N4  UNL     1      14.432  23.743   6.646  1.00  0.00    -0.325 N 
ATOM      4  H4  UNL     1      13.760  24.296   7.178  1.00  0.00     0.165 HD
ENDROOT
BRANCH   3   5
HETATM    5  C16 UNL     1      15.603  23.229   7.314  1.00  0.00     0.314 C 
BRANCH   5   6
HETATM    6  O4  UNL     1      16.256  24.240   8.062  1.00  0.00    -0.368 OA
ATOM      7  H4  UNL     1      16.357  23.986   8.972  1.00  0.00     0.212 HD
ENDBRANCH   5   6
BRANCH   5   8
HETATM    8  C17 UNL     1      15.256  22.071   8.137  1.00  0.00     0.268 C 
HETATM    9  O5  UNL     1      14.046  21.808   8.455  1.00  0.00    -0.268 OA
HETATM   10  N5  UNL     1      16.254  21.181   8.624  1.00  0.00    -0.345 N 
HETATM   11  C18 UNL     1      15.864  20.141   9.568  1.00  0.00     0.146 C 
HETATM   12  C32 UNL     1      17.595  21.313   8.114  1.00  0.00     0.146 C 
HETATM   13  C19 UNL     1      17.129  19.543  10.171  1.00  0.00     0.147 C 
HETATM   14  N6  UNL     1      17.924  19.052   9.058  1.00  0.00    -0.331 N 
HETATM   15  C20 UNL     1      18.266  17.710   8.934  1.00  0.00     0.318 C 
HETATM   16  C31 UNL     1      18.362  20.005   8.038  1.00  0.00     0.147 C 
HETATM   17  O6  UNL     1      18.937  17.337   7.922  1.00  0.00    -0.247 OA
HETATM   18  N7  UNL     1      17.898  16.738   9.888  1.00  0.00    -0.343 N 
ATOM     19  H7  UNL     1      17.368  17.008  10.716  1.00  0.00     0.164 HD
BRANCH  18  20
HETATM   20  C21 UNL     1      18.281  15.339   9.684  1.00  0.00     0.124 C 
BRANCH  20  21
HETATM   21  C22 UNL     1      18.286  14.658  11.036  1.00  0.00     0.020 C 
BRANCH  21  22
HETATM   22  C23 UNL     1      17.832  15.563  12.117  1.00  0.00     0.002 C 
BRANCH  22  23
HETATM   23  C24 UNL     1      17.053  14.973  13.231  1.00  0.00     0.005 C 
BRANCH  23  24
HETATM   24  C25 UNL     1      15.591  15.152  13.289  1.00  0.00    -0.014 C 
HETATM   25  C26 UNL     1      14.950  15.970  12.252  1.00  0.00     0.004 C 
HETATM   26  C27 UNL     1      13.471  15.505  12.105  1.00  0.00     0.000 C 
HETATM   27  C28 UNL     1      12.988  15.126  13.477  1.00  0.00     0.000 C 
HETATM   28  C29 UNL     1      13.656  15.958  14.557  1.00  0.00     0.000 C 
HETATM   29  C30 UNL     1      15.111  15.565  14.686  1.00  0.00     0.004 C 
ENDBRANCH  23  24
ENDBRANCH  22  23
ENDBRANCH  21  22
ENDBRANCH  20  21
ENDBRANCH  18  20
ENDBRANCH   5   8
ENDBRANCH   3   5
BRANCH   1  30
HETATM   30  C2  UNL     1      12.951  24.014   4.550  1.00  0.00     0.169 C 
HETATM   31  C1  UNL     1      12.235  22.793   4.084  1.00  0.00     0.042 C 
BRANCH  30  32
HETATM   32  N1  UNL     1      12.428  25.020   5.299  1.00  0.00    -0.377 N 
ATOM     33  H1  UNL     1      13.066  25.794   5.483  1.00  0.00     0.160 HD
BRANCH  32  34
HETATM   34  C3  UNL     1      11.156  25.161   5.860  1.00  0.00     0.054 C 
BRANCH  34  35
HETATM   35  C4  UNL     1      10.165  25.900   5.083  1.00  0.00     0.065 C 
BRANCH  35  36
HETATM   36  C5  UNL     1       9.157  25.175   4.280  1.00  0.00    -0.009 C 
HETATM   37  C6  UNL     1       9.692  24.845   2.865  1.00  0.00     0.005 C 
HETATM   38  C7  UNL     1       8.994  23.553   2.446  1.00  0.00     0.000 C 
HETATM   39  C8  UNL     1       7.620  23.436   3.026  1.00  0.00     0.000 C 
HETATM   40  C9  UNL     1       7.014  24.809   3.153  1.00  0.00     0.000 C 
HETATM   41  C10 UNL     1       7.803  25.691   4.093  1.00  0.00     0.005 C 
ENDBRANCH  35  36
ENDBRANCH  34  35
BRANCH  34  42
HETATM   42  C11 UNL     1      11.259  25.435   7.312  1.00  0.00     0.202 C 
HETATM   43  O1  UNL     1      12.430  25.447   7.739  1.00  0.00    -0.289 OA
BRANCH  42  44
HETATM   44  C12 UNL     1      10.236  25.685   8.309  1.00  0.00     0.267 C 
BRANCH  44  45
HETATM   45  N2  UNL     1       8.875  25.417   7.955  1.00  0.00    -0.067 N 
ATOM     46  H23 UNL     1       8.426  26.288   7.670  1.00  0.00     0.275 HD
ATOM     47  H22 UNL     1       8.853  24.893   7.080  1.00  0.00     0.275 HD
ATOM     48  H21 UNL     1       8.287  24.946   8.642  1.00  0.00     0.275 HD
ENDBRANCH  44  45
BRANCH  44  49
HETATM   49  C13 UNL     1      10.377  27.083   8.946  1.00  0.00     0.140 C 
BRANCH  49  50
HETATM   50  C14 UNL     1       9.177  27.900   8.711  1.00  0.00     0.233 C 
HETATM   51  N3  UNL     1       8.927  28.516   7.454  1.00  0.00    -0.062 NA
HETATM   52  O2  UNL     1       8.297  28.103   9.619  1.00  0.00    -0.277 OA
ENDBRANCH  49  50
ENDBRANCH  44  49
ENDBRANCH  42  44
ENDBRANCH  34  42
ENDBRANCH  32  34
ENDBRANCH  30  32
ENDBRANCH   1  30
TORSDOF 18
ENDMDL
MODEL 4
REMARK VINA RESULT: -8.708010801      4.244     12.496
REMARK  18 active torsions:
REMARK  status: ('A' for Active; 'I' for Inactive)
REMARK    1  A    between atoms: C2_2  and  N1_3 
REMARK    2  A    between atoms: C2_2  and  C15_24 
REMARK    3  A    between atoms: N1_3  and  C3_5 
REMARK    4  A    between atoms: C3_5  and  C4_6 
REMARK    5  A    between atoms: C3_5  and  C11_13 
REMARK    6  A    between atoms: C4_6  and  C5_7 
REMARK    7  A    between atoms: C11_13  and  C12_15 
REMARK    8  A    between atoms: C12_15  and  N2_16 
REMARK    9  A    between atoms: C12_15  and  C13_20 
REMARK   10  A    between atoms: C13_20  and  C14_21 
REMARK       I    between atoms: C15_24  and  N4_26 
REMARK   11  A    between atoms: N4_26  and  C16_28 
REMARK   12  A    between atoms: C16_28  and  O4_29 
REMARK   13  A    between atoms: C16_28  and  C17_31 
REMARK       I    between atoms: C17_31  and  N5_33 
REMARK       I    between atoms: N6_36  and  C20_37 
REMARK       I    between atoms: C20_37  and  N7_39 
REMARK   14  A    between atoms: N7_39  and  C21_41 
REMARK   15  A    between atoms: C21_41  and  C22_42 
REMARK   16  A    between atoms: C22_42  and  C23_43 
REMARK   17  A    between atoms: C23_43  and  C24_44 
REMARK   18  A    between atoms: C24_44  and  C25_45 
ROOT
HETATM    1  C15 UNL     1       8.610  25.486   4.372  1.00  0.00     0.242 C 
HETATM    2  O3  UNL     1       7.579  24.871   3.976  1.00  0.00    -0.271 OA
HETATM    3  N4  UNL     1       9.888  24.944   4.144  1.00  0.00    -0.325 N 
ATOM      4  H4  UNL     1      10.710  25.461   4.455  1.00  0.00     0.165 HD
ENDROOT
BRANCH   3   5
HETATM    5  C16 UNL     1      10.067  23.675   3.481  1.00  0.00     0.314 C 
BRANCH   5   6
HETATM    6  O4  UNL     1       9.375  23.637   2.245  1.00  0.00    -0.368 OA
ATOM      7  H4  UNL     1       9.850  23.129   1.598  1.00  0.00     0.212 HD
ENDBRANCH   5   6
BRANCH   5   8
HETATM    8  C17 UNL     1      11.490  23.375   3.326  1.00  0.00     0.268 C 
HETATM    9  O5  UNL     1      12.165  23.803   2.329  1.00  0.00    -0.268 OA
HETATM   10  N5  UNL     1      12.190  22.587   4.281  1.00  0.00    -0.345 N 
HETATM   11  C18 UNL     1      13.562  22.189   3.991  1.00  0.00     0.146 C 
HETATM   12  C32 UNL     1      11.528  22.269   5.521  1.00  0.00     0.146 C 
HETATM   13  C19 UNL     1      13.970  21.113   4.990  1.00  0.00     0.147 C 
HETATM   14  N6  UNL     1      13.799  21.691   6.312  1.00  0.00    -0.331 N 
HETATM   15  C20 UNL     1      14.863  21.837   7.196  1.00  0.00     0.318 C 
HETATM   16  C31 UNL     1      12.464  22.141   6.710  1.00  0.00     0.147 C 
HETATM   17  O6  UNL     1      14.655  22.377   8.326  1.00  0.00    -0.247 OA
HETATM   18  N7  UNL     1      16.172  21.407   6.889  1.00  0.00    -0.343 N 
ATOM     19  H7  UNL     1      16.368  20.960   5.994  1.00  0.00     0.164 HD
BRANCH  18  20
HETATM   20  C21 UNL     1      17.247  21.606   7.864  1.00  0.00     0.124 C 
BRANCH  20  21
HETATM   21  C22 UNL     1      18.316  20.571   7.591  1.00  0.00     0.020 C 
BRANCH  21  22
HETATM   22  C23 UNL     1      17.831  19.488   6.704  1.00  0.00     0.002 C 
BRANCH  22  23
HETATM   23  C24 UNL     1      18.591  19.219   5.462  1.00  0.00     0.005 C 
BRANCH  23  24
HETATM   24  C25 UNL     1      17.886  18.784   4.241  1.00  0.00    -0.014 C 
HETATM   25  C26 UNL     1      16.445  18.518   4.330  1.00  0.00     0.004 C 
HETATM   26  C27 UNL     1      15.820  18.727   2.919  1.00  0.00     0.000 C 
HETATM   27  C28 UNL     1      16.833  18.256   1.913  1.00  0.00     0.000 C 
HETATM   28  C29 UNL     1      17.679  17.118   2.457  1.00  0.00     0.000 C 
HETATM   29  C30 UNL     1      18.612  17.636   3.530  1.00  0.00     0.004 C 
ENDBRANCH  23  24
ENDBRANCH  22  23
ENDBRANCH  21  22
ENDBRANCH  20  21
ENDBRANCH  18  20
ENDBRANCH   5   8
ENDBRANCH   3   5
BRANCH   1  30
HETATM   30  C2  UNL     1       8.387  26.818   5.091  1.00  0.00     0.169 C 
HETATM   31  C1  UNL     1       8.273  27.836   4.010  1.00  0.00     0.042 C 
BRANCH  30  32
HETATM   32  N1  UNL     1       7.490  26.594   6.087  1.00  0.00    -0.377 N 
ATOM     33  H1  UNL     1       7.108  25.648   6.115  1.00  0.00     0.160 HD
BRANCH  32  34
HETATM   34  C3  UNL     1       7.007  27.452   7.078  1.00  0.00     0.054 C 
BRANCH  34  35
HETATM   35  C4  UNL     1       5.996  28.427   6.677  1.00  0.00     0.065 C 
BRANCH  35  36
HETATM   36  C5  UNL     1       4.560  28.121   6.844  1.00  0.00    -0.009 C 
HETATM   37  C6  UNL     1       3.955  28.883   8.049  1.00  0.00     0.005 C 
HETATM   38  C7  UNL     1       2.488  29.122   7.698  1.00  0.00     0.000 C 
HETATM   39  C8  UNL     1       1.923  28.029   6.847  1.00  0.00     0.000 C 
HETATM   40  C9  UNL     1       2.582  26.724   7.208  1.00  0.00     0.000 C 
HETATM   41  C10 UNL     1       4.069  26.748   6.944  1.00  0.00     0.005 C 
ENDBRANCH  35  36
ENDBRANCH  34  35
BRANCH  34  42
HETATM   42  C11 UNL     1       8.112  27.903   7.955  1.00  0.00     0.202 C 
HETATM   43  O1  UNL     1       8.755  28.868   7.495  1.00  0.00    -0.289 OA
BRANCH  42  44
HETATM   44  C12 UNL     1       8.567  27.414   9.241  1.00  0.00     0.267 C 
BRANCH  44  45
HETATM   45  N2  UNL     1       9.565  28.174   9.932  1.00  0.00    -0.067 N 
ATOM     46  H23 UNL     1      10.485  27.783   9.728  1.00  0.00     0.275 HD
ATOM     47  H22 UNL     1       9.646  29.094   9.498  1.00  0.00     0.275 HD
ATOM     48  H21 UNL     1       9.465  28.288  10.940  1.00  0.00     0.275 HD
ENDBRANCH  44  45
BRANCH  44  49
HETATM   49  C13 UNL     1       8.946  25.920   9.192  1.00  0.00     0.140 C 
BRANCH  49  50
HETATM   50  C14 UNL     1      10.156  25.702   8.384  1.00  0.00     0.233 C 
HETATM   51  N3  UNL     1      11.411  26.262   8.751  1.00  0.00    -0.062 NA
HETATM   52  O2  UNL     1      10.147  25.002   7.312  1.00  0.00    -0.277 OA
ENDBRANCH  49  50
ENDBRANCH  44  49
ENDBRANCH  42  44
ENDBRANCH  34  42
ENDBRANCH  32  34
ENDBRANCH  30  32
ENDBRANCH   1  30
TORSDOF 18
ENDMDL
MODEL 5
REMARK VINA RESULT: -8.703201757      4.600      8.573
REMARK  18 active torsions:
REMARK  status: ('A' for Active; 'I' for Inactive)
REMARK    1  A    between atoms: C2_2  and  N1_3 
REMARK    2  A    between atoms: C2_2  and  C15_24 
REMARK    3  A    between atoms: N1_3  and  C3_5 
REMARK    4  A    between atoms: C3_5  and  C4_6 
REMARK    5  A    between atoms: C3_5  and  C11_13 
REMARK    6  A    between atoms: C4_6  and  C5_7 
REMARK    7  A    between atoms: C11_13  and  C12_15 
REMARK    8  A    between atoms: C12_15  and  N2_16 
REMARK    9  A    between atoms: C12_15  and  C13_20 
REMARK   10  A    between atoms: C13_20  and  C14_21 
REMARK       I    between atoms: C15_24  and  N4_26 
REMARK   11  A    between atoms: N4_26  and  C16_28 
REMARK   12  A    between atoms: C16_28  and  O4_29 
REMARK   13  A    between atoms: C16_28  and  C17_31 
REMARK       I    between atoms: C17_31  and  N5_33 
REMARK       I    between atoms: N6_36  and  C20_37 
REMARK       I    between atoms: C20_37  and  N7_39 
REMARK   14  A    between atoms: N7_39  and  C21_41 
REMARK   15  A    between atoms: C21_41  and  C22_42 
REMARK   16  A    between atoms: C22_42  and  C23_43 
REMARK   17  A    between atoms: C23_43  and  C24_44 
REMARK   18  A    between atoms: C24_44  and  C25_45 
ROOT
HETATM    1  C15 UNL     1      13.481  23.247   5.132  1.00  0.00     0.242 C 
HETATM    2  O3  UNL     1      13.995  24.330   4.733  1.00  0.00    -0.271 OA
HETATM    3  N4  UNL     1      12.352  23.266   5.971  1.00  0.00    -0.325 N 
ATOM      4  H4  UNL     1      11.940  22.383   6.270  1.00  0.00     0.165 HD
ENDROOT
BRANCH   3   5
HETATM    5  C16 UNL     1      11.761  24.504   6.419  1.00  0.00     0.314 C 
BRANCH   5   6
HETATM    6  O4  UNL     1      12.751  25.483   6.682  1.00  0.00    -0.368 OA
ATOM      7  H4  UNL     1      13.350  25.575   5.950  1.00  0.00     0.212 HD
ENDBRANCH   5   6
BRANCH   5   8
HETATM    8  C17 UNL     1      10.764  24.972   5.457  1.00  0.00     0.268 C 
HETATM    9  O5  UNL     1      10.728  24.535   4.255  1.00  0.00    -0.268 OA
HETATM   10  N5  UNL     1       9.785  25.940   5.814  1.00  0.00    -0.345 N 
HETATM   11  C18 UNL     1       8.923  26.484   4.771  1.00  0.00     0.146 C 
HETATM   12  C32 UNL     1       9.652  26.295   7.204  1.00  0.00     0.146 C 
HETATM   13  C19 UNL     1       8.201  27.702   5.334  1.00  0.00     0.147 C 
HETATM   14  N6  UNL     1       7.478  27.247   6.508  1.00  0.00    -0.331 N 
HETATM   15  C20 UNL     1       6.093  27.336   6.602  1.00  0.00     0.318 C 
HETATM   16  C31 UNL     1       8.239  26.669   7.617  1.00  0.00     0.147 C 
HETATM   17  O6  UNL     1       5.516  26.893   7.642  1.00  0.00    -0.247 OA
HETATM   18  N7  UNL     1       5.296  27.900   5.583  1.00  0.00    -0.343 N 
ATOM     19  H7  UNL     1       5.731  28.274   4.739  1.00  0.00     0.164 HD
BRANCH  18  20
HETATM   20  C21 UNL     1       3.841  27.948   5.743  1.00  0.00     0.124 C 
BRANCH  20  21
HETATM   21  C22 UNL     1       3.227  27.106   4.645  1.00  0.00     0.020 C 
BRANCH  21  22
HETATM   22  C23 UNL     1       3.071  25.689   5.049  1.00  0.00     0.002 C 
BRANCH  22  23
HETATM   23  C24 UNL     1       2.186  24.830   4.229  1.00  0.00     0.005 C 
BRANCH  23  24
HETATM   24  C25 UNL     1       2.546  23.422   3.977  1.00  0.00    -0.014 C 
HETATM   25  C26 UNL     1       3.963  23.043   4.059  1.00  0.00     0.004 C 
HETATM   26  C27 UNL     1       4.046  21.529   4.413  1.00  0.00     0.000 C 
HETATM   27  C28 UNL     1       2.898  20.850   3.718  1.00  0.00     0.000 C 
HETATM   28  C29 UNL     1       2.545  21.538   2.412  1.00  0.00     0.000 C 
HETATM   29  C30 UNL     1       1.909  22.881   2.691  1.00  0.00     0.004 C 
ENDBRANCH  23  24
ENDBRANCH  22  23
ENDBRANCH  21  22
ENDBRANCH  20  21
ENDBRANCH  18  20
ENDBRANCH   5   8
ENDBRANCH   3   5
BRANCH   1  30
HETATM   30  C2  UNL     1      14.144  21.952   4.658  1.00  0.00     0.169 C 
HETATM   31  C1  UNL     1      13.866  21.878   3.196  1.00  0.00     0.042 C 
BRANCH  30  32
HETATM   32  N1  UNL     1      15.364  21.882   5.252  1.00  0.00    -0.377 N 
ATOM     33  H1  UNL     1      15.979  22.673   5.063  1.00  0.00     0.160 HD
BRANCH  32  34
HETATM   34  C3  UNL     1      15.910  20.897   6.081  1.00  0.00     0.054 C 
BRANCH  34  35
HETATM   35  C4  UNL     1      15.743  19.509   5.662  1.00  0.00     0.065 C 
BRANCH  35  36
HETATM   36  C5  UNL     1      16.040  19.111   4.269  1.00  0.00    -0.009 C 
HETATM   37  C6  UNL     1      14.949  18.168   3.705  1.00  0.00     0.005 C 
HETATM   38  C7  UNL     1      14.906  18.432   2.202  1.00  0.00     0.000 C 
HETATM   39  C8  UNL     1      16.244  18.819   1.655  1.00  0.00     0.000 C 
HETATM   40  C9  UNL     1      17.324  18.117   2.435  1.00  0.00     0.000 C 
HETATM   41  C10 UNL     1      17.323  18.519   3.892  1.00  0.00     0.005 C 
ENDBRANCH  35  36
ENDBRANCH  34  35
BRANCH  34  42
HETATM   42  C11 UNL     1      15.681  21.236   7.504  1.00  0.00     0.202 C 
HETATM   43  O1  UNL     1      14.476  21.320   7.813  1.00  0.00    -0.289 OA
BRANCH  42  44
HETATM   44  C12 UNL     1      16.614  21.485   8.586  1.00  0.00     0.267 C 
BRANCH  44  45
HETATM   45  N2  UNL     1      17.867  22.097   8.263  1.00  0.00    -0.067 N 
ATOM     46  H23 UNL     1      18.339  21.537   7.552  1.00  0.00     0.275 HD
ATOM     47  H22 UNL     1      17.696  22.960   7.747  1.00  0.00     0.275 HD
ATOM     48  H21 UNL     1      18.517  22.286   9.026  1.00  0.00     0.275 HD
ENDBRANCH  44  45
BRANCH  44  49
HETATM   49  C13 UNL     1      16.818  20.240   9.474  1.00  0.00     0.140 C 
BRANCH  49  50
HETATM   50  C14 UNL     1      18.149  19.647   9.264  1.00  0.00     0.233 C 
HETATM   51  N3  UNL     1      18.450  18.878   8.106  1.00  0.00    -0.062 NA
HETATM   52  O2  UNL     1      19.102  19.789  10.106  1.00  0.00    -0.277 OA
ENDBRANCH  49  50
ENDBRANCH  44  49
ENDBRANCH  42  44
ENDBRANCH  34  42
ENDBRANCH  32  34
ENDBRANCH  30  32
ENDBRANCH   1  30
TORSDOF 18
ENDMDL
