MODEL 1
REMARK VINA RESULT: -7.460910901      0.000      0.000
REMARK  18 active torsions:
REMARK  status: ('A' for Active; 'I' for Inactive)
REMARK    1  A    between atoms: C2_2  and  N1_3 
REMARK    2  A    between atoms: N1_3  and  C3_4 
REMARK       I    between atoms: N1_3  and  C5_6 
REMARK    3  A    between atoms: C5_6  and  C6_8 
REMARK    4  A    between atoms: N2_20  and  C18_21 
REMARK    5  A    between atoms: C18_21  and  C19_22 
REMARK    6  A    between atoms: C19_22  and  N3_23 
REMARK       I    between atoms: N3_23  and  C20_24 
REMARK    7  A    between atoms: C20_24  and  C21_26 
REMARK    8  A    between atoms: C21_26  and  C22_27 
REMARK    9  A    between atoms: C22_27  and  C23_28 
REMARK   10  A    between atoms: C22_27  and  N5_36 
REMARK   11  A    between atoms: C23_28  and  C24_29 
REMARK   12  A    between atoms: C24_29  and  N4_30 
REMARK   13  A    between atoms: C24_29  and  O3_34 
REMARK   14  A    between atoms: N5_36  and  C25_38 
REMARK   15  A    between atoms: C25_38  and  C26_39 
REMARK   16  A    between atoms: C26_39  and  N6_40 
REMARK   17  A    between atoms: C26_39  and  C27_44 
REMARK   18  A    between atoms: C27_44  and  C28_45 
ROOT
HETATM    1  C18 UNL     1      13.346  21.630   5.130  1.00  0.00     0.128 C 
ENDROOT
BRANCH   1   2
HETATM    2  N2  UNL     1      12.042  22.012   5.382  1.00  0.00    -0.289 NA
HETATM    3  C17 UNL     1      11.199  22.268   4.282  1.00  0.00     0.064 C 
HETATM    4  C16 UNL     1      10.822  23.678   4.408  1.00  0.00    -0.051 C 
HETATM    5  C14 UNL     1       9.729  24.288   3.626  1.00  0.00    -0.014 C 
HETATM    6  C30 UNL     1      10.886  24.017   5.833  1.00  0.00    -0.007 C 
HETATM    7  C13 UNL     1       8.333  23.942   3.833  1.00  0.00     0.020 C 
HETATM    8  C15 UNL     1      10.043  23.980   2.150  1.00  0.00     0.020 C 
HETATM    9  C34 UNL     1       9.899  25.796   3.779  1.00  0.00     0.006 C 
HETATM   10  C12 UNL     1       7.605  25.193   3.285  1.00  0.00     0.008 C 
HETATM   11  C6  UNL     1       6.260  25.265   3.875  1.00  0.00     0.083 C 
HETATM   12  C10 UNL     1       8.541  26.325   3.344  1.00  0.00    -0.035 C 
HETATM   13  C7  UNL     1       5.985  26.367   4.806  1.00  0.00     0.014 C 
HETATM   14  C8  UNL     1       7.032  27.374   5.074  1.00  0.00     0.002 C 
HETATM   15  C9  UNL     1       8.110  27.533   4.087  1.00  0.00     0.010 C 
HETATM   16  C11 UNL     1       8.758  26.805   1.894  1.00  0.00     0.016 C 
HETATM   17  C33 UNL     1      10.349  26.273   5.097  1.00  0.00     0.007 C 
HETATM   18  C32 UNL     1      11.349  25.461   5.844  1.00  0.00     0.015 C 
HETATM   19  C29 UNL     1      11.900  23.061   6.369  1.00  0.00     0.108 C 
HETATM   20  C31 UNL     1       9.664  23.889   6.685  1.00  0.00     0.021 C 
BRANCH  11  21
HETATM   21  C5  UNL     1       5.173  25.099   2.860  1.00  0.00     0.224 C 
HETATM   22  N1  UNL     1       3.998  24.335   3.009  1.00  0.00    -0.353 N 
HETATM   23  O1  UNL     1       5.301  25.707   1.726  1.00  0.00    -0.273 OA
BRANCH  22  24
HETATM   24  C2  UNL     1       3.030  24.242   1.902  1.00  0.00     0.121 C 
HETATM   25  C1  UNL     1       1.657  24.641   2.339  1.00  0.00     0.026 C 
ENDBRANCH  22  24
BRANCH  22  26
HETATM   26  C3  UNL     1       3.692  23.598   4.187  1.00  0.00     0.121 C 
HETATM   27  C4  UNL     1       4.069  22.151   4.058  1.00  0.00     0.026 C 
ENDBRANCH  22  26
ENDBRANCH  11  21
ENDBRANCH   1   2
BRANCH   1  28
HETATM   28  C19 UNL     1      14.050  22.052   3.869  1.00  0.00     0.236 C 
BRANCH  28  29
HETATM   29  N3  UNL     1      14.477  20.891   3.186  1.00  0.00    -0.414 NA
HETATM   30  C20 UNL     1      14.884  19.797   2.524  1.00  0.00     0.288 C 
HETATM   31  O2  UNL     1      15.134  19.666   1.313  1.00  0.00    -0.258 OA
BRANCH  30  32
HETATM   32  C21 UNL     1      15.073  18.487   3.311  1.00  0.00     0.144 C 
BRANCH  32  33
HETATM   33  C22 UNL     1      16.314  18.590   4.122  1.00  0.00     0.094 C 
BRANCH  33  34
HETATM   34  C23 UNL     1      16.962  17.225   4.224  1.00  0.00     0.086 C 
BRANCH  34  35
HETATM   35  C24 UNL     1      18.361  17.301   3.660  1.00  0.00     0.318 C 
BRANCH  35  36
HETATM   36  N4  UNL     1      19.345  17.113   4.695  1.00  0.00    -0.053 N 
ATOM     37  H43 UNL     1      20.169  17.694   4.542  1.00  0.00     0.277 HD
ATOM     38  H42 UNL     1      19.038  17.511   5.583  1.00  0.00     0.277 HD
ATOM     39  H41 UNL     1      19.592  16.128   4.790  1.00  0.00     0.277 HD
ENDBRANCH  35  36
BRANCH  35  40
HETATM   40  O3  UNL     1      18.535  18.368   2.835  1.00  0.00    -0.370 OA
ATOM     41  H3  UNL     1      18.687  18.112   1.933  1.00  0.00     0.212 HD
ENDBRANCH  35  40
ENDBRANCH  34  35
ENDBRANCH  33  34
BRANCH  33  42
HETATM   42  N5  UNL     1      16.029  19.022   5.489  1.00  0.00    -0.395 N 
ATOM     43  H5  UNL     1      15.352  18.534   6.074  1.00  0.00     0.159 HD
BRANCH  42  44
HETATM   44  C25 UNL     1      16.733  20.140   5.955  1.00  0.00     0.089 C 
BRANCH  44  45
HETATM   45  C26 UNL     1      18.004  19.809   6.697  1.00  0.00     0.231 C 
BRANCH  45  46
HETATM   46  N6  UNL     1      19.137  20.587   6.258  1.00  0.00    -0.070 N 
ATOM     47  H63 UNL     1      19.163  20.648   5.241  1.00  0.00     0.275 HD
ATOM     48  H62 UNL     1      19.008  21.573   6.482  1.00  0.00     0.275 HD
ATOM     49  H61 UNL     1      20.025  20.244   6.625  1.00  0.00     0.275 HD
ENDBRANCH  45  46
BRANCH  45  50
HETATM   50  C27 UNL     1      17.859  19.937   8.197  1.00  0.00     0.151 C 
BRANCH  50  51
HETATM   51  C28 UNL     1      18.270  21.308   8.645  1.00  0.00     0.174 C 
HETATM   52  O4  UNL     1      19.403  21.343   9.228  1.00  0.00    -0.648 OA
HETATM   53  O5  UNL     1      17.524  22.444   8.462  1.00  0.00    -0.648 OA
ENDBRANCH  50  51
ENDBRANCH  45  50
ENDBRANCH  44  45
ENDBRANCH  42  44
ENDBRANCH  33  42
ENDBRANCH  32  33
ENDBRANCH  30  32
ENDBRANCH  28  29
ENDBRANCH   1  28
TORSDOF 18
ENDMDL
MODEL 2
REMARK VINA RESULT: -7.284561002      4.330      7.705
REMARK  18 active torsions:
REMARK  status: ('A' for Active; 'I' for Inactive)
REMARK    1  A    between atoms: C2_2  and  N1_3 
REMARK    2  A    between atoms: N1_3  and  C3_4 
REMARK       I    between atoms: N1_3  and  C5_6 
REMARK    3  A    between atoms: C5_6  and  C6_8 
REMARK    4  A    between atoms: N2_20  and  C18_21 
REMARK    5  A    between atoms: C18_21  and  C19_22 
REMARK    6  A    between atoms: C19_22  and  N3_23 
REMARK       I    between atoms: N3_23  and  C20_24 
REMARK    7  A    between atoms: C20_24  and  C21_26 
REMARK    8  A    between atoms: C21_26  and  C22_27 
REMARK    9  A    between atoms: C22_27  and  C23_28 
REMARK   10  A    between atoms: C22_27  and  N5_36 
REMARK   11  A    between atoms: C23_28  and  C24_29 
REMARK   12  A    between atoms: C24_29  and  N4_30 
REMARK   13  A    between atoms: C24_29  and  O3_34 
REMARK   14  A    between atoms: N5_36  and  C25_38 
REMARK   15  A    between atoms: C25_38  and  C26_39 
REMARK   16  A    between atoms: C26_39  and  N6_40 
REMARK   17  A    between atoms: C26_39  and  C27_44 
REMARK   18  A    between atoms: C27_44  and  C28_45 
ROOT
HETATM    1  C18 UNL     1       8.454  25.034   3.717  1.00  0.00     0.128 C 
ENDROOT
BRANCH   1   2
HETATM    2  N2  UNL     1       7.272  25.665   3.379  1.00  0.00    -0.289 NA
HETATM    3  C17 UNL     1       6.692  26.542   4.318  1.00  0.00     0.064 C 
HETATM    4  C16 UNL     1       5.390  25.955   4.638  1.00  0.00    -0.051 C 
HETATM    5  C14 UNL     1       4.337  26.689   5.366  1.00  0.00    -0.014 C 
HETATM    6  C30 UNL     1       4.967  25.177   3.470  1.00  0.00    -0.007 C 
HETATM    7  C13 UNL     1       3.635  27.824   4.790  1.00  0.00     0.020 C 
HETATM    8  C15 UNL     1       4.994  27.194   6.664  1.00  0.00     0.020 C 
HETATM    9  C34 UNL     1       3.319  25.639   5.800  1.00  0.00     0.006 C 
HETATM   10  C12 UNL     1       2.318  27.837   5.603  1.00  0.00     0.008 C 
HETATM   11  C6  UNL     1       1.285  28.548   4.836  1.00  0.00     0.083 C 
HETATM   12  C10 UNL     1       2.098  26.482   6.132  1.00  0.00    -0.035 C 
HETATM   13  C7  UNL     1       0.152  27.763   4.329  1.00  0.00     0.014 C 
HETATM   14  C8  UNL     1       0.067  26.321   4.643  1.00  0.00     0.002 C 
HETATM   15  C9  UNL     1       0.813  25.819   5.805  1.00  0.00     0.010 C 
HETATM   16  C11 UNL     1       2.110  26.594   7.670  1.00  0.00     0.016 C 
HETATM   17  C33 UNL     1       3.067  24.542   4.851  1.00  0.00     0.007 C 
HETATM   18  C32 UNL     1       4.212  24.005   4.065  1.00  0.00     0.015 C 
HETATM   19  C29 UNL     1       6.258  24.792   2.827  1.00  0.00     0.108 C 
HETATM   20  C31 UNL     1       4.122  25.817   2.414  1.00  0.00     0.021 C 
BRANCH  11  21
HETATM   21  C5  UNL     1       0.840  29.814   5.500  1.00  0.00     0.224 C 
HETATM   22  N1  UNL     1       1.382  31.099   5.298  1.00  0.00    -0.353 N 
HETATM   23  O1  UNL     1      -0.136  29.747   6.346  1.00  0.00    -0.273 OA
BRANCH  22  24
HETATM   24  C2  UNL     1       0.856  32.251   6.054  1.00  0.00     0.121 C 
HETATM   25  C1  UNL     1       1.835  32.726   7.080  1.00  0.00     0.026 C 
ENDBRANCH  22  24
BRANCH  22  26
HETATM   26  C3  UNL     1       2.460  31.361   4.408  1.00  0.00     0.121 C 
HETATM   27  C4  UNL     1       1.979  31.786   3.052  1.00  0.00     0.026 C 
ENDBRANCH  22  26
ENDBRANCH  11  21
ENDBRANCH   1   2
BRANCH   1  28
HETATM   28  C19 UNL     1       8.796  23.676   3.165  1.00  0.00     0.236 C 
BRANCH  28  29
HETATM   29  N3  UNL     1      10.090  23.325   3.610  1.00  0.00    -0.414 NA
HETATM   30  C20 UNL     1      11.324  22.992   4.017  1.00  0.00     0.288 C 
HETATM   31  O2  UNL     1      12.335  22.758   3.332  1.00  0.00    -0.258 OA
BRANCH  30  32
HETATM   32  C21 UNL     1      11.589  22.851   5.528  1.00  0.00     0.144 C 
BRANCH  32  33
HETATM   33  C22 UNL     1      12.538  23.914   5.949  1.00  0.00     0.094 C 
BRANCH  33  34
HETATM   34  C23 UNL     1      13.752  23.277   6.594  1.00  0.00     0.086 C 
BRANCH  34  35
HETATM   35  C24 UNL     1      14.863  23.192   5.574  1.00  0.00     0.318 C 
BRANCH  35  36
HETATM   36  N4  UNL     1      14.862  24.348   4.714  1.00  0.00    -0.053 N 
ATOM     37  H43 UNL     1      15.297  24.147   3.813  1.00  0.00     0.277 HD
ATOM     38  H42 UNL     1      13.923  24.573   4.387  1.00  0.00     0.277 HD
ATOM     39  H41 UNL     1      15.302  25.145   5.174  1.00  0.00     0.277 HD
ENDBRANCH  35  36
BRANCH  35  40
HETATM   40  O3  UNL     1      14.925  21.976   4.969  1.00  0.00    -0.370 OA
ATOM     41  H3  UNL     1      15.631  21.919   4.336  1.00  0.00     0.212 HD
ENDBRANCH  35  40
ENDBRANCH  34  35
ENDBRANCH  33  34
BRANCH  33  42
HETATM   42  N5  UNL     1      11.946  24.798   6.952  1.00  0.00    -0.395 N 
ATOM     43  H5  UNL     1      12.519  25.427   7.515  1.00  0.00     0.159 HD
BRANCH  42  44
HETATM   44  C25 UNL     1      10.555  24.739   7.101  1.00  0.00     0.089 C 
BRANCH  44  45
HETATM   45  C26 UNL     1       9.905  26.065   7.403  1.00  0.00     0.231 C 
BRANCH  45  46
HETATM   46  N6  UNL     1       8.464  26.004   7.415  1.00  0.00    -0.070 N 
ATOM     47  H63 UNL     1       8.061  26.890   7.115  1.00  0.00     0.275 HD
ATOM     48  H62 UNL     1       8.121  25.401   6.668  1.00  0.00     0.275 HD
ATOM     49  H61 UNL     1       8.082  25.717   8.317  1.00  0.00     0.275 HD
ENDBRANCH  45  46
BRANCH  45  50
HETATM   50  C27 UNL     1      10.391  26.675   8.700  1.00  0.00     0.151 C 
BRANCH  50  51
HETATM   51  C28 UNL     1       9.630  27.932   9.002  1.00  0.00     0.174 C 
HETATM   52  O4  UNL     1       9.387  28.103  10.242  1.00  0.00    -0.648 OA
HETATM   53  O5  UNL     1       9.218  28.839   8.060  1.00  0.00    -0.648 OA
ENDBRANCH  50  51
ENDBRANCH  45  50
ENDBRANCH  44  45
ENDBRANCH  42  44
ENDBRANCH  33  42
ENDBRANCH  32  33
ENDBRANCH  30  32
ENDBRANCH  28  29
ENDBRANCH   1  28
TORSDOF 18
ENDMDL
MODEL 3
REMARK VINA RESULT: -7.223826198      1.492      3.432
REMARK  18 active torsions:
REMARK  status: ('A' for Active; 'I' for Inactive)
REMARK    1  A    between atoms: C2_2  and  N1_3 
REMARK    2  A    between atoms: N1_3  and  C3_4 
REMARK       I    between atoms: N1_3  and  C5_6 
REMARK    3  A    between atoms: C5_6  and  C6_8 
REMARK    4  A    between atoms: N2_20  and  C18_21 
REMARK    5  A    between atoms: C18_21  and  C19_22 
REMARK    6  A    between atoms: C19_22  and  N3_23 
REMARK       I    between atoms: N3_23  and  C20_24 
REMARK    7  A    between atoms: C20_24  and  C21_26 
REMARK    8  A    between atoms: C21_26  and  C22_27 
REMARK    9  A    between atoms: C22_27  and  C23_28 
REMARK   10  A    between atoms: C22_27  and  N5_36 
REMARK   11  A    between atoms: C23_28  and  C24_29 
REMARK   12  A    between atoms: C24_29  and  N4_30 
REMARK   13  A    between atoms: C24_29  and  O3_34 
REMARK   14  A    between atoms: N5_36  and  C25_38 
REMARK   15  A    between atoms: C25_38  and  C26_39 
REMARK   16  A    between atoms: C26_39  and  N6_40 
REMARK   17  A    between atoms: C26_39  and  C27_44 
REMARK   18  A    between atoms: C27_44  and  C28_45 
ROOT
HETATM    1  C18 UNL     1      13.349  21.816   5.368  1.00  0.00     0.128 C 
ENDROOT
BRANCH   1   2
HETATM    2  N2  UNL     1      12.029  22.169   5.581  1.00  0.00    -0.289 NA
HETATM    3  C17 UNL     1      11.213  22.404   4.457  1.00  0.00     0.064 C 
HETATM    4  C16 UNL     1      10.801  23.804   4.568  1.00  0.00    -0.051 C 
HETATM    5  C14 UNL     1       9.718  24.388   3.753  1.00  0.00    -0.014 C 
HETATM    6  C30 UNL     1      10.816  24.148   5.993  1.00  0.00    -0.007 C 
HETATM    7  C13 UNL     1       8.324  24.011   3.920  1.00  0.00     0.020 C 
HETATM    8  C15 UNL     1      10.081  24.085   2.287  1.00  0.00     0.020 C 
HETATM    9  C34 UNL     1       9.848  25.900   3.906  1.00  0.00     0.006 C 
HETATM   10  C12 UNL     1       7.584  25.244   3.348  1.00  0.00     0.008 C 
HETATM   11  C6  UNL     1       6.222  25.286   3.899  1.00  0.00     0.083 C 
HETATM   12  C10 UNL     1       8.492  26.397   3.431  1.00  0.00    -0.035 C 
HETATM   13  C7  UNL     1       5.894  26.384   4.819  1.00  0.00     0.014 C 
HETATM   14  C8  UNL     1       6.911  27.415   5.114  1.00  0.00     0.002 C 
HETATM   15  C9  UNL     1       8.012  27.596   4.158  1.00  0.00     0.010 C 
HETATM   16  C11 UNL     1       8.740  26.878   1.987  1.00  0.00     0.016 C 
HETATM   17  C33 UNL     1      10.250  26.390   5.236  1.00  0.00     0.007 C 
HETATM   18  C32 UNL     1      11.246  25.602   6.013  1.00  0.00     0.015 C 
HETATM   19  C29 UNL     1      11.836  23.216   6.560  1.00  0.00     0.108 C 
HETATM   20  C31 UNL     1       9.574  23.994   6.810  1.00  0.00     0.021 C 
BRANCH  11  21
HETATM   21  C5  UNL     1       5.168  25.094   2.854  1.00  0.00     0.224 C 
HETATM   22  N1  UNL     1       3.989  24.334   2.984  1.00  0.00    -0.353 N 
HETATM   23  O1  UNL     1       5.334  25.673   1.709  1.00  0.00    -0.273 OA
BRANCH  22  24
HETATM   24  C2  UNL     1       3.058  24.212   1.848  1.00  0.00     0.121 C 
HETATM   25  C1  UNL     1       1.710  24.768   2.182  1.00  0.00     0.026 C 
ENDBRANCH  22  24
BRANCH  22  26
HETATM   26  C3  UNL     1       3.644  23.627   4.170  1.00  0.00     0.121 C 
HETATM   27  C4  UNL     1       3.973  22.167   4.069  1.00  0.00     0.026 C 
ENDBRANCH  22  26
ENDBRANCH  11  21
ENDBRANCH   1   2
BRANCH   1  28
HETATM   28  C19 UNL     1      14.438  22.855   5.352  1.00  0.00     0.236 C 
BRANCH  28  29
HETATM   29  N3  UNL     1      15.149  22.776   6.570  1.00  0.00    -0.414 NA
HETATM   30  C20 UNL     1      15.831  22.716   7.724  1.00  0.00     0.288 C 
HETATM   31  O2  UNL     1      16.659  23.521   8.184  1.00  0.00    -0.258 OA
BRANCH  30  32
HETATM   32  C21 UNL     1      15.613  21.501   8.646  1.00  0.00     0.144 C 
BRANCH  32  33
HETATM   33  C22 UNL     1      16.674  20.497   8.375  1.00  0.00     0.094 C 
BRANCH  33  34
HETATM   34  C23 UNL     1      17.410  20.183   9.661  1.00  0.00     0.086 C 
BRANCH  34  35
HETATM   35  C24 UNL     1      17.116  18.757  10.062  1.00  0.00     0.318 C 
BRANCH  35  36
HETATM   36  N4  UNL     1      17.939  17.834   9.323  1.00  0.00    -0.053 N 
ATOM     37  H43 UNL     1      18.433  18.297   8.561  1.00  0.00     0.277 HD
ATOM     38  H42 UNL     1      18.745  17.529   9.869  1.00  0.00     0.277 HD
ATOM     39  H41 UNL     1      17.390  17.042   8.989  1.00  0.00     0.277 HD
ENDBRANCH  35  36
BRANCH  35  40
HETATM   40  O3  UNL     1      15.784  18.491  10.106  1.00  0.00    -0.370 OA
ATOM     41  H3  UNL     1      15.597  17.605  10.395  1.00  0.00     0.212 HD
ENDBRANCH  35  40
ENDBRANCH  34  35
ENDBRANCH  33  34
BRANCH  33  42
HETATM   42  N5  UNL     1      17.670  21.007   7.435  1.00  0.00    -0.395 N 
ATOM     43  H5  UNL     1      17.862  22.004   7.347  1.00  0.00     0.159 HD
BRANCH  42  44
HETATM   44  C25 UNL     1      18.349  20.057   6.660  1.00  0.00     0.089 C 
BRANCH  44  45
HETATM   45  C26 UNL     1      17.499  19.390   5.609  1.00  0.00     0.231 C 
BRANCH  45  46
HETATM   46  N6  UNL     1      16.783  20.326   4.778  1.00  0.00    -0.070 N 
ATOM     47  H63 UNL     1      15.958  19.889   4.368  1.00  0.00     0.275 HD
ATOM     48  H62 UNL     1      16.330  21.042   5.344  1.00  0.00     0.275 HD
ATOM     49  H61 UNL     1      17.367  20.749   4.056  1.00  0.00     0.275 HD
ENDBRANCH  45  46
BRANCH  45  50
HETATM   50  C27 UNL     1      18.285  18.440   4.733  1.00  0.00     0.151 C 
BRANCH  50  51
HETATM   51  C28 UNL     1      17.590  18.249   3.417  1.00  0.00     0.174 C 
HETATM   52  O4  UNL     1      16.524  17.555   3.493  1.00  0.00    -0.648 OA
HETATM   53  O5  UNL     1      18.029  18.758   2.223  1.00  0.00    -0.648 OA
ENDBRANCH  50  51
ENDBRANCH  45  50
ENDBRANCH  44  45
ENDBRANCH  42  44
ENDBRANCH  33  42
ENDBRANCH  32  33
ENDBRANCH  30  32
ENDBRANCH  28  29
ENDBRANCH   1  28
TORSDOF 18
ENDMDL
MODEL 4
REMARK VINA RESULT: -7.193006052      5.165     14.127
REMARK  18 active torsions:
REMARK  status: ('A' for Active; 'I' for Inactive)
REMARK    1  A    between atoms: C2_2  and  N1_3 
REMARK    2  A    between atoms: N1_3  and  C3_4 
REMARK       I    between atoms: N1_3  and  C5_6 
REMARK    3  A    between atoms: C5_6  and  C6_8 
REMARK    4  A    between atoms: N2_20  and  C18_21 
REMARK    5  A    between atoms: C18_21  and  C19_22 
REMARK    6  A    between atoms: C19_22  and  N3_23 
REMARK       I    between atoms: N3_23  and  C20_24 
REMARK    7  A    between atoms: C20_24  and  C21_26 
REMARK    8  A    between atoms: C21_26  and  C22_27 
REMARK    9  A    between atoms: C22_27  and  C23_28 
REMARK   10  A    between atoms: C22_27  and  N5_36 
REMARK   11  A    between atoms: C23_28  and  C24_29 
REMARK   12  A    between atoms: C24_29  and  N4_30 
REMARK   13  A    between atoms: C24_29  and  O3_34 
REMARK   14  A    between atoms: N5_36  and  C25_38 
REMARK   15  A    between atoms: C25_38  and  C26_39 
REMARK   16  A    between atoms: C26_39  and  N6_40 
REMARK   17  A    between atoms: C26_39  and  C27_44 
REMARK   18  A    between atoms: C27_44  and  C28_45 
ROOT
HETATM    1  C18 UNL     1      17.156  20.148   8.054  1.00  0.00     0.128 C 
ENDROOT
BRANCH   1   2
HETATM    2  N2  UNL     1      18.221  19.386   8.497  1.00  0.00    -0.289 NA
HETATM    3  C17 UNL     1      18.710  18.370   7.652  1.00  0.00     0.064 C 
HETATM    4  C16 UNL     1      18.506  17.123   8.392  1.00  0.00    -0.051 C 
HETATM    5  C14 UNL     1      19.129  15.845   7.997  1.00  0.00    -0.014 C 
HETATM    6  C30 UNL     1      18.531  17.458   9.819  1.00  0.00    -0.007 C 
HETATM    7  C13 UNL     1      20.561  15.613   8.087  1.00  0.00     0.020 C 
HETATM    8  C15 UNL     1      18.741  15.625   6.523  1.00  0.00     0.020 C 
HETATM    9  C34 UNL     1      18.396  14.762   8.782  1.00  0.00     0.006 C 
HETATM   10  C12 UNL     1      20.634  14.069   8.166  1.00  0.00     0.008 C 
HETATM   11  C6  UNL     1      21.910  13.678   8.781  1.00  0.00     0.083 C 
HETATM   12  C10 UNL     1      19.344  13.579   8.674  1.00  0.00    -0.035 C 
HETATM   13  C7  UNL     1      21.861  13.050  10.108  1.00  0.00     0.014 C 
HETATM   14  C8  UNL     1      20.553  12.794  10.746  1.00  0.00     0.002 C 
HETATM   15  C9  UNL     1      19.365  12.723   9.884  1.00  0.00     0.010 C 
HETATM   16  C11 UNL     1      18.733  12.692   7.569  1.00  0.00     0.016 C 
HETATM   17  C33 UNL     1      18.001  15.108  10.158  1.00  0.00     0.007 C 
HETATM   18  C32 UNL     1      17.538  16.495  10.439  1.00  0.00     0.015 C 
HETATM   19  C29 UNL     1      18.081  18.882   9.847  1.00  0.00     0.108 C 
HETATM   20  C31 UNL     1      19.818  17.388  10.579  1.00  0.00     0.021 C 
BRANCH  11  21
HETATM   21  C5  UNL     1      22.803  12.932   7.838  1.00  0.00     0.224 C 
HETATM   22  N1  UNL     1      23.731  13.498   6.942  1.00  0.00    -0.353 N 
HETATM   23  O1  UNL     1      22.733  11.641   7.827  1.00  0.00    -0.273 OA
BRANCH  22  24
HETATM   24  C2  UNL     1      24.520  12.631   6.048  1.00  0.00     0.121 C 
HETATM   25  C1  UNL     1      25.969  12.637   6.418  1.00  0.00     0.026 C 
ENDBRANCH  22  24
BRANCH  22  26
HETATM   26  C3  UNL     1      23.940  14.900   6.816  1.00  0.00     0.121 C 
HETATM   27  C4  UNL     1      23.415  15.432   5.516  1.00  0.00     0.026 C 
ENDBRANCH  22  26
ENDBRANCH  11  21
ENDBRANCH   1   2
BRANCH   1  28
HETATM   28  C19 UNL     1      16.010  20.488   8.968  1.00  0.00     0.236 C 
BRANCH  28  29
HETATM   29  N3  UNL     1      15.046  21.208   8.228  1.00  0.00    -0.414 NA
HETATM   30  C20 UNL     1      14.120  21.883   7.530  1.00  0.00     0.288 C 
HETATM   31  O2  UNL     1      12.908  21.637   7.401  1.00  0.00    -0.258 OA
BRANCH  30  32
HETATM   32  C21 UNL     1      14.555  23.137   6.748  1.00  0.00     0.144 C 
BRANCH  32  33
HETATM   33  C22 UNL     1      14.881  22.743   5.353  1.00  0.00     0.094 C 
BRANCH  33  34
HETATM   34  C23 UNL     1      13.695  23.038   4.458  1.00  0.00     0.086 C 
BRANCH  34  35
HETATM   35  C24 UNL     1      13.191  24.431   4.750  1.00  0.00     0.318 C 
BRANCH  35  36
HETATM   36  N4  UNL     1      11.846  24.605   4.263  1.00  0.00    -0.053 N 
ATOM     37  H43 UNL     1      11.289  25.181   4.893  1.00  0.00     0.277 HD
ATOM     38  H42 UNL     1      11.819  25.205   3.439  1.00  0.00     0.277 HD
ATOM     39  H41 UNL     1      11.403  23.703   4.086  1.00  0.00     0.277 HD
ENDBRANCH  35  36
BRANCH  35  40
HETATM   40  O3  UNL     1      14.092  25.394   4.419  1.00  0.00    -0.370 OA
ATOM     41  H3  UNL     1      14.991  25.115   4.554  1.00  0.00     0.212 HD
ENDBRANCH  35  40
ENDBRANCH  34  35
ENDBRANCH  33  34
BRANCH  33  42
HETATM   42  N5  UNL     1      15.142  21.309   5.245  1.00  0.00    -0.395 N 
ATOM     43  H5  UNL     1      15.257  20.723   6.072  1.00  0.00     0.159 HD
BRANCH  42  44
HETATM   44  C25 UNL     1      15.226  20.780   3.951  1.00  0.00     0.089 C 
BRANCH  44  45
HETATM   45  C26 UNL     1      16.144  19.591   3.825  1.00  0.00     0.231 C 
BRANCH  45  46
HETATM   46  N6  UNL     1      16.019  18.657   4.917  1.00  0.00    -0.070 N 
ATOM     47  H63 UNL     1      15.798  19.143   5.786  1.00  0.00     0.275 HD
ATOM     48  H62 UNL     1      15.173  18.096   4.819  1.00  0.00     0.275 HD
ATOM     49  H61 UNL     1      16.838  18.060   5.031  1.00  0.00     0.275 HD
ENDBRANCH  45  46
BRANCH  45  50
HETATM   50  C27 UNL     1      15.975  18.855   2.514  1.00  0.00     0.151 C 
BRANCH  50  51
HETATM   51  C28 UNL     1      17.219  18.085   2.184  1.00  0.00     0.174 C 
HETATM   52  O4  UNL     1      18.289  18.619   2.626  1.00  0.00    -0.648 OA
HETATM   53  O5  UNL     1      17.245  16.910   1.477  1.00  0.00    -0.648 OA
ENDBRANCH  50  51
ENDBRANCH  45  50
ENDBRANCH  44  45
ENDBRANCH  42  44
ENDBRANCH  33  42
ENDBRANCH  32  33
ENDBRANCH  30  32
ENDBRANCH  28  29
ENDBRANCH   1  28
TORSDOF 18
ENDMDL
MODEL 5
REMARK VINA RESULT: -7.051388077      4.812     13.830
REMARK  18 active torsions:
REMARK  status: ('A' for Active; 'I' for Inactive)
REMARK    1  A    between atoms: C2_2  and  N1_3 
REMARK    2  A    between atoms: N1_3  and  C3_4 
REMARK       I    between atoms: N1_3  and  C5_6 
REMARK    3  A    between atoms: C5_6  and  C6_8 
REMARK    4  A    between atoms: N2_20  and  C18_21 
REMARK    5  A    between atoms: C18_21  and  C19_22 
REMARK    6  A    between atoms: C19_22  and  N3_23 
REMARK       I    between atoms: N3_23  and  C20_24 
REMARK    7  A    between atoms: C20_24  and  C21_26 
REMARK    8  A    between atoms: C21_26  and  C22_27 
REMARK    9  A    between atoms: C22_27  and  C23_28 
REMARK   10  A    between atoms: C22_27  and  N5_36 
REMARK   11  A    between atoms: C23_28  and  C24_29 
REMARK   12  A    between atoms: C24_29  and  N4_30 
REMARK   13  A    between atoms: C24_29  and  O3_34 
REMARK   14  A    between atoms: N5_36  and  C25_38 
REMARK   15  A    between atoms: C25_38  and  C26_39 
REMARK   16  A    between atoms: C26_39  and  N6_40 
REMARK   17  A    between atoms: C26_39  and  C27_44 
REMARK   18  A    between atoms: C27_44  and  C28_45 
ROOT
HETATM    1  C18 UNL     1      16.251  20.577   8.304  1.00  0.00     0.128 C 
ENDROOT
BRANCH   1   2
HETATM    2  N2  UNL     1      17.235  20.011   9.092  1.00  0.00    -0.289 NA
HETATM    3  C17 UNL     1      18.115  19.085   8.497  1.00  0.00     0.064 C 
HETATM    4  C16 UNL     1      17.894  17.829   9.216  1.00  0.00    -0.051 C 
HETATM    5  C14 UNL     1      18.803  16.671   9.104  1.00  0.00    -0.014 C 
HETATM    6  C30 UNL     1      17.427  18.176  10.561  1.00  0.00    -0.007 C 
HETATM    7  C13 UNL     1      20.156  16.686   9.635  1.00  0.00     0.020 C 
HETATM    8  C15 UNL     1      18.926  16.375   7.598  1.00  0.00     0.020 C 
HETATM    9  C34 UNL     1      18.046  15.487   9.697  1.00  0.00     0.006 C 
HETATM   10  C12 UNL     1      20.445  15.178   9.826  1.00  0.00     0.008 C 
HETATM   11  C6  UNL     1      21.517  15.015  10.819  1.00  0.00     0.083 C 
HETATM   12  C10 UNL     1      19.156  14.481   9.951  1.00  0.00    -0.035 C 
HETATM   13  C7  UNL     1      21.163  14.400  12.105  1.00  0.00     0.014 C 
HETATM   14  C8  UNL     1      19.781  13.932  12.334  1.00  0.00     0.002 C 
HETATM   15  C9  UNL     1      18.941  13.652  11.161  1.00  0.00     0.010 C 
HETATM   16  C11 UNL     1      19.063  13.494   8.769  1.00  0.00     0.016 C 
HETATM   17  C33 UNL     1      17.198  15.773  10.867  1.00  0.00     0.007 C 
HETATM   18  C32 UNL     1      16.457  17.064  10.910  1.00  0.00     0.015 C 
HETATM   19  C29 UNL     1      16.770  19.503  10.365  1.00  0.00     0.108 C 
HETATM   20  C31 UNL     1      18.412  18.332  11.675  1.00  0.00     0.021 C 
BRANCH  11  21
HETATM   21  C5  UNL     1      22.762  14.423  10.235  1.00  0.00     0.224 C 
HETATM   22  N1  UNL     1      23.853  15.134   9.697  1.00  0.00    -0.353 N 
HETATM   23  O1  UNL     1      22.870  13.134  10.212  1.00  0.00    -0.273 OA
BRANCH  22  24
HETATM   24  C2  UNL     1      25.001  14.406   9.126  1.00  0.00     0.121 C 
HETATM   25  C1  UNL     1      25.117  14.637   7.653  1.00  0.00     0.026 C 
ENDBRANCH  22  24
BRANCH  22  26
HETATM   26  C3  UNL     1      23.905  16.555   9.637  1.00  0.00     0.121 C 
HETATM   27  C4  UNL     1      24.524  17.146  10.869  1.00  0.00     0.026 C 
ENDBRANCH  22  26
ENDBRANCH  11  21
ENDBRANCH   1   2
BRANCH   1  28
HETATM   28  C19 UNL     1      15.072  21.283   8.919  1.00  0.00     0.236 C 
BRANCH  28  29
HETATM   29  N3  UNL     1      14.151  21.592   7.894  1.00  0.00    -0.414 NA
HETATM   30  C20 UNL     1      13.266  21.875   6.926  1.00  0.00     0.288 C 
HETATM   31  O2  UNL     1      12.150  21.368   6.717  1.00  0.00    -0.258 OA
BRANCH  30  32
HETATM   32  C21 UNL     1      13.626  22.957   5.891  1.00  0.00     0.144 C 
BRANCH  32  33
HETATM   33  C22 UNL     1      14.149  22.296   4.667  1.00  0.00     0.094 C 
BRANCH  33  34
HETATM   34  C23 UNL     1      13.136  22.435   3.550  1.00  0.00     0.086 C 
BRANCH  34  35
HETATM   35  C24 UNL     1      12.098  23.457   3.949  1.00  0.00     0.318 C 
BRANCH  35  36
HETATM   36  N4  UNL     1      10.807  22.840   4.118  1.00  0.00    -0.053 N 
ATOM     37  H43 UNL     1      10.553  22.270   3.311  1.00  0.00     0.277 HD
ATOM     38  H42 UNL     1      10.830  22.107   4.826  1.00  0.00     0.277 HD
ATOM     39  H41 UNL     1      10.093  23.540   4.324  1.00  0.00     0.277 HD
ENDBRANCH  35  36
BRANCH  35  40
HETATM   40  O3  UNL     1      12.147  24.578   3.182  1.00  0.00    -0.370 OA
ATOM     41  H3  UNL     1      11.295  24.987   3.078  1.00  0.00     0.212 HD
ENDBRANCH  35  40
ENDBRANCH  34  35
ENDBRANCH  33  34
BRANCH  33  42
HETATM   42  N5  UNL     1      14.352  20.864   4.874  1.00  0.00    -0.395 N 
ATOM     43  H5  UNL     1      13.786  20.334   5.536  1.00  0.00     0.159 HD
BRANCH  42  44
HETATM   44  C25 UNL     1      15.362  20.255   4.118  1.00  0.00     0.089 C 
BRANCH  44  45
HETATM   45  C26 UNL     1      16.125  19.181   4.851  1.00  0.00     0.231 C 
BRANCH  45  46
HETATM   46  N6  UNL     1      15.718  17.846   4.488  1.00  0.00    -0.070 N 
ATOM     47  H63 UNL     1      14.728  17.822   4.245  1.00  0.00     0.275 HD
ATOM     48  H62 UNL     1      16.118  17.577   3.589  1.00  0.00     0.275 HD
ATOM     49  H61 UNL     1      15.934  17.151   5.203  1.00  0.00     0.275 HD
ENDBRANCH  45  46
BRANCH  45  50
HETATM   50  C27 UNL     1      17.623  19.310   4.688  1.00  0.00     0.151 C 
BRANCH  50  51
HETATM   51  C28 UNL     1      18.135  18.272   3.734  1.00  0.00     0.174 C 
HETATM   52  O4  UNL     1      18.073  18.622   2.509  1.00  0.00    -0.648 OA
HETATM   53  O5  UNL     1      18.632  17.049   4.104  1.00  0.00    -0.648 OA
ENDBRANCH  50  51
ENDBRANCH  45  50
ENDBRANCH  44  45
ENDBRANCH  42  44
ENDBRANCH  33  42
ENDBRANCH  32  33
ENDBRANCH  30  32
ENDBRANCH  28  29
ENDBRANCH   1  28
TORSDOF 18
ENDMDL
