MODEL 1
REMARK VINA RESULT: -8.952911466      0.000      0.000
REMARK  16 active torsions:
REMARK  status: ('A' for Active; 'I' for Inactive)
REMARK    1  A    between atoms: C2_2  and  C3_3 
REMARK    2  A    between atoms: C3_3  and  O1_4 
REMARK    3  A    between atoms: O1_4  and  C4_5 
REMARK    4  A    between atoms: C6_7  and  N1_8 
REMARK    5  A    between atoms: C6_7  and  C7_12 
REMARK       I    between atoms: C7_12  and  N2_14 
REMARK    6  A    between atoms: N2_14  and  C8_16 
REMARK    7  A    between atoms: C8_16  and  C10_18 
REMARK    8  A    between atoms: C8_16  and  C31_49 
REMARK    9  A    between atoms: C10_18  and  C11_19 
REMARK       I    between atoms: C11_19  and  N3_21 
REMARK   10  A    between atoms: N3_21  and  C12_23 
REMARK   11  A    between atoms: C12_23  and  C13_24 
REMARK   12  A    between atoms: C12_23  and  C22_33 
REMARK   13  A    between atoms: C13_24  and  C14_25 
REMARK   14  A    between atoms: C19_30  and  C20_31 
REMARK   15  A    between atoms: C22_33  and  C23_35 
REMARK   16  A    between atoms: C23_35  and  N4_36 
REMARK       I    between atoms: N5_39  and  C26_40 
ROOT
HETATM    1  C11 UNL     1      12.240  22.081   6.227  1.00  0.00     0.221 C 
HETATM    2  O3  UNL     1      11.301  21.641   6.926  1.00  0.00    -0.273 OA
HETATM    3  N3  UNL     1      12.058  23.194   5.406  1.00  0.00    -0.349 N 
ATOM      4  H3  UNL     1      12.902  23.460   4.899  1.00  0.00     0.163 HD
ENDROOT
BRANCH   3   5
HETATM    5  C12 UNL     1      10.953  24.037   5.122  1.00  0.00     0.156 C 
BRANCH   5   6
HETATM    6  C13 UNL     1      10.936  25.380   5.743  1.00  0.00     0.038 C 
BRANCH   6   7
HETATM    7  C14 UNL     1      10.405  25.455   7.120  1.00  0.00    -0.008 C 
HETATM    8  C15 UNL     1      11.409  26.232   8.024  1.00  0.00     0.005 C 
HETATM    9  C16 UNL     1      11.037  25.823   9.412  1.00  0.00     0.000 C 
HETATM   10  C17 UNL     1       9.606  26.098   9.743  1.00  0.00     0.000 C 
HETATM   11  C18 UNL     1       8.598  25.749   8.718  1.00  0.00     0.005 C 
HETATM   12  C19 UNL     1       9.073  26.106   7.306  1.00  0.00    -0.011 C 
BRANCH  12  13
HETATM   13  C20 UNL     1       9.023  27.589   7.240  1.00  0.00     0.000 C 
HETATM   14  C21 UNL     1       7.691  28.237   7.337  1.00  0.00     0.005 C 
ENDBRANCH  12  13
ENDBRANCH   6   7
ENDBRANCH   5   6
BRANCH   5  15
HETATM   15  C22 UNL     1      10.782  24.110   3.626  1.00  0.00     0.166 C 
HETATM   16  O4  UNL     1      11.674  24.651   3.023  1.00  0.00    -0.294 OA
BRANCH  15  17
HETATM   17  C23 UNL     1       9.619  23.575   2.941  1.00  0.00     0.198 C 
BRANCH  17  18
HETATM   18  N4  UNL     1       8.348  24.146   3.155  1.00  0.00    -0.395 N 
HETATM   19  C24 UNL     1       7.290  23.144   2.946  1.00  0.00     0.138 C 
HETATM   20  C25 UNL     1       6.020  23.530   3.647  1.00  0.00     0.145 C 
HETATM   21  N5  UNL     1       5.723  24.882   3.195  1.00  0.00    -0.352 N 
HETATM   22  C26 UNL     1       4.660  25.633   3.764  1.00  0.00     0.184 C 
HETATM   23  C27 UNL     1       6.571  25.379   2.135  1.00  0.00     0.155 C 
HETATM   24  N6  UNL     1       3.746  26.103   2.997  1.00  0.00    -0.374 N 
HETATM   25  N7  UNL     1       4.542  25.894   5.142  1.00  0.00    -0.064 NA
ATOM     26  H62 UNL     1       3.832  25.914   1.999  1.00  0.00     0.158 HD
ATOM     27  H61 UNL     1       2.983  26.642   3.406  1.00  0.00     0.158 HD
HETATM   28  C28 UNL     1       8.011  25.421   2.701  1.00  0.00     0.037 C 
HETATM   29  C29 UNL     1       7.948  26.524   3.733  1.00  0.00     0.039 C 
HETATM   30  C30 UNL     1       8.849  25.943   1.530  1.00  0.00     0.039 C 
ENDBRANCH  17  18
ENDBRANCH  15  17
ENDBRANCH   5  15
ENDBRANCH   3   5
BRANCH   1  31
HETATM   31  C10 UNL     1      13.551  21.409   6.275  1.00  0.00     0.144 C 
BRANCH  31  32
HETATM   32  C8  UNL     1      14.769  22.228   6.053  1.00  0.00     0.126 C 
HETATM   33  C9  UNL     1      15.205  23.151   7.119  1.00  0.00     0.051 C 
BRANCH  32  34
HETATM   34  N2  UNL     1      15.837  21.257   5.717  1.00  0.00    -0.340 N 
HETATM   35  C7  UNL     1      16.491  20.460   6.676  1.00  0.00     0.255 C 
HETATM   36  O2  UNL     1      16.132  20.636   7.882  1.00  0.00    -0.271 OA
ATOM     37  H2  UNL     1      16.112  21.160   4.740  1.00  0.00     0.163 HD
BRANCH  35  38
HETATM   38  C6  UNL     1      17.533  19.465   6.420  1.00  0.00     0.207 C 
HETATM   39  C5  UNL     1      18.604  19.822   5.440  1.00  0.00     0.081 C 
HETATM   40  C4  UNL     1      18.585  18.324   5.020  1.00  0.00     0.127 C 
HETATM   41  C32 UNL     1      17.078  18.408   5.373  1.00  0.00     0.081 C 
BRANCH  40  42
HETATM   42  O1  UNL     1      18.771  18.111   3.708  1.00  0.00    -0.386 OA
BRANCH  42  43
HETATM   43  C3  UNL     1      18.295  17.054   3.059  1.00  0.00     0.167 C 
BRANCH  43  44
HETATM   44  C2  UNL     1      17.455  17.185   1.850  1.00  0.00     0.022 C 
HETATM   45  C1  UNL     1      16.689  18.465   1.770  1.00  0.00     0.007 C 
ENDBRANCH  43  44
ENDBRANCH  42  43
ENDBRANCH  40  42
BRANCH  38  46
HETATM   46  N1  UNL     1      17.943  18.687   7.587  1.00  0.00    -0.061 N 
ATOM     47  H13 UNL     1      18.700  18.055   7.327  1.00  0.00     0.275 HD
ATOM     48  H12 UNL     1      18.426  19.294   8.250  1.00  0.00     0.275 HD
ATOM     49  H11 UNL     1      17.212  18.166   8.071  1.00  0.00     0.275 HD
ENDBRANCH  38  46
ENDBRANCH  35  38
ENDBRANCH  32  34
BRANCH  32  50
HETATM   50  C31 UNL     1      14.610  23.086   4.802  1.00  0.00     0.202 C 
HETATM   51  O5  UNL     1      14.659  24.352   4.867  1.00  0.00    -0.646 OA
HETATM   52  O6  UNL     1      14.410  22.515   3.581  1.00  0.00    -0.646 OA
ENDBRANCH  32  50
ENDBRANCH  31  32
ENDBRANCH   1  31
TORSDOF 16
ENDMDL
MODEL 2
REMARK VINA RESULT: -8.923551954      1.555      2.350
REMARK  16 active torsions:
REMARK  status: ('A' for Active; 'I' for Inactive)
REMARK    1  A    between atoms: C2_2  and  C3_3 
REMARK    2  A    between atoms: C3_3  and  O1_4 
REMARK    3  A    between atoms: O1_4  and  C4_5 
REMARK    4  A    between atoms: C6_7  and  N1_8 
REMARK    5  A    between atoms: C6_7  and  C7_12 
REMARK       I    between atoms: C7_12  and  N2_14 
REMARK    6  A    between atoms: N2_14  and  C8_16 
REMARK    7  A    between atoms: C8_16  and  C10_18 
REMARK    8  A    between atoms: C8_16  and  C31_49 
REMARK    9  A    between atoms: C10_18  and  C11_19 
REMARK       I    between atoms: C11_19  and  N3_21 
REMARK   10  A    between atoms: N3_21  and  C12_23 
REMARK   11  A    between atoms: C12_23  and  C13_24 
REMARK   12  A    between atoms: C12_23  and  C22_33 
REMARK   13  A    between atoms: C13_24  and  C14_25 
REMARK   14  A    between atoms: C19_30  and  C20_31 
REMARK   15  A    between atoms: C22_33  and  C23_35 
REMARK   16  A    between atoms: C23_35  and  N4_36 
REMARK       I    between atoms: N5_39  and  C26_40 
ROOT
HETATM    1  C11 UNL     1      13.434  23.936   6.667  1.00  0.00     0.221 C 
HETATM    2  O3  UNL     1      13.179  24.538   7.732  1.00  0.00    -0.273 OA
HETATM    3  N3  UNL     1      12.435  23.705   5.720  1.00  0.00    -0.349 N 
ATOM      4  H3  UNL     1      12.775  23.217   4.891  1.00  0.00     0.163 HD
ENDROOT
BRANCH   3   5
HETATM    5  C12 UNL     1      11.049  23.999   5.661  1.00  0.00     0.156 C 
BRANCH   5   6
HETATM    6  C13 UNL     1      10.629  25.388   5.952  1.00  0.00     0.038 C 
BRANCH   6   7
HETATM    7  C14 UNL     1      10.055  25.628   7.293  1.00  0.00    -0.008 C 
HETATM    8  C15 UNL     1      11.033  26.509   8.127  1.00  0.00     0.005 C 
HETATM    9  C16 UNL     1      10.617  26.271   9.542  1.00  0.00     0.000 C 
HETATM   10  C17 UNL     1       9.177  26.583   9.793  1.00  0.00     0.000 C 
HETATM   11  C18 UNL     1       8.201  26.111   8.787  1.00  0.00     0.005 C 
HETATM   12  C19 UNL     1       8.720  26.296   7.357  1.00  0.00    -0.011 C 
BRANCH  12  13
HETATM   13  C20 UNL     1       8.677  27.760   7.111  1.00  0.00     0.000 C 
HETATM   14  C21 UNL     1       7.351  28.426   7.161  1.00  0.00     0.005 C 
ENDBRANCH  12  13
ENDBRANCH   6   7
ENDBRANCH   5   6
BRANCH   5  15
HETATM   15  C22 UNL     1      10.518  23.520   4.334  1.00  0.00     0.166 C 
HETATM   16  O4  UNL     1      10.650  22.344   4.111  1.00  0.00    -0.294 OA
BRANCH  15  17
HETATM   17  C23 UNL     1       9.892  24.409   3.371  1.00  0.00     0.198 C 
BRANCH  17  18
HETATM   18  N4  UNL     1       8.491  24.567   3.360  1.00  0.00    -0.395 N 
HETATM   19  C24 UNL     1       7.834  23.315   2.949  1.00  0.00     0.138 C 
HETATM   20  C25 UNL     1       6.408  23.262   3.415  1.00  0.00     0.145 C 
HETATM   21  N5  UNL     1       5.799  24.495   2.937  1.00  0.00    -0.352 N 
HETATM   22  C26 UNL     1       4.479  24.860   3.315  1.00  0.00     0.184 C 
HETATM   23  C27 UNL     1       6.623  25.291   2.055  1.00  0.00     0.155 C 
HETATM   24  N6  UNL     1       3.608  25.092   2.404  1.00  0.00    -0.374 N 
HETATM   25  N7  UNL     1       4.058  24.980   4.654  1.00  0.00    -0.064 NA
ATOM     26  H62 UNL     1       3.914  25.006   1.434  1.00  0.00     0.158 HD
ATOM     27  H61 UNL     1       2.661  25.355   2.676  1.00  0.00     0.158 HD
HETATM   28  C28 UNL     1       7.867  25.714   2.873  1.00  0.00     0.037 C 
HETATM   29  C29 UNL     1       7.303  26.676   3.893  1.00  0.00     0.039 C 
HETATM   30  C30 UNL     1       8.694  26.538   1.880  1.00  0.00     0.039 C 
ENDBRANCH  17  18
ENDBRANCH  15  17
ENDBRANCH   5  15
ENDBRANCH   3   5
BRANCH   1  31
HETATM   31  C10 UNL     1      14.809  23.468   6.415  1.00  0.00     0.144 C 
BRANCH  31  32
HETATM   32  C8  UNL     1      15.283  22.259   7.135  1.00  0.00     0.126 C 
HETATM   33  C9  UNL     1      14.364  21.591   8.077  1.00  0.00     0.051 C 
BRANCH  32  34
HETATM   34  N2  UNL     1      15.736  21.326   6.077  1.00  0.00    -0.340 N 
HETATM   35  C7  UNL     1      14.855  20.637   5.222  1.00  0.00     0.255 C 
HETATM   36  O2  UNL     1      13.617  20.838   5.421  1.00  0.00    -0.271 OA
ATOM     37  H2  UNL     1      16.738  21.176   5.962  1.00  0.00     0.163 HD
BRANCH  35  38
HETATM   38  C6  UNL     1      15.225  19.722   4.142  1.00  0.00     0.207 C 
HETATM   39  C5  UNL     1      15.006  18.260   4.367  1.00  0.00     0.081 C 
HETATM   40  C4  UNL     1      16.305  18.036   3.542  1.00  0.00     0.127 C 
HETATM   41  C32 UNL     1      16.744  19.386   4.164  1.00  0.00     0.081 C 
BRANCH  40  42
HETATM   42  O1  UNL     1      17.072  17.023   3.976  1.00  0.00    -0.386 OA
BRANCH  42  43
HETATM   43  C3  UNL     1      18.318  16.814   3.565  1.00  0.00     0.167 C 
BRANCH  43  44
HETATM   44  C2  UNL     1      19.401  16.439   4.497  1.00  0.00     0.022 C 
HETATM   45  C1  UNL     1      19.006  16.451   5.936  1.00  0.00     0.007 C 
ENDBRANCH  43  44
ENDBRANCH  42  43
ENDBRANCH  40  42
BRANCH  38  46
HETATM   46  N1  UNL     1      14.970  20.224   2.794  1.00  0.00    -0.061 N 
ATOM     47  H13 UNL     1      14.301  19.614   2.322  1.00  0.00     0.275 HD
ATOM     48  H12 UNL     1      14.430  21.087   2.846  1.00  0.00     0.275 HD
ATOM     49  H11 UNL     1      15.783  20.366   2.195  1.00  0.00     0.275 HD
ENDBRANCH  38  46
ENDBRANCH  35  38
ENDBRANCH  32  34
BRANCH  32  50
HETATM   50  C31 UNL     1      16.539  22.581   7.940  1.00  0.00     0.202 C 
HETATM   51  O5  UNL     1      17.446  21.713   8.111  1.00  0.00    -0.646 OA
HETATM   52  O6  UNL     1      16.717  23.813   8.497  1.00  0.00    -0.646 OA
ENDBRANCH  32  50
ENDBRANCH  31  32
ENDBRANCH   1  31
TORSDOF 16
ENDMDL
MODEL 3
REMARK VINA RESULT: -8.901190548      2.168      3.420
REMARK  16 active torsions:
REMARK  status: ('A' for Active; 'I' for Inactive)
REMARK    1  A    between atoms: C2_2  and  C3_3 
REMARK    2  A    between atoms: C3_3  and  O1_4 
REMARK    3  A    between atoms: O1_4  and  C4_5 
REMARK    4  A    between atoms: C6_7  and  N1_8 
REMARK    5  A    between atoms: C6_7  and  C7_12 
REMARK       I    between atoms: C7_12  and  N2_14 
REMARK    6  A    between atoms: N2_14  and  C8_16 
REMARK    7  A    between atoms: C8_16  and  C10_18 
REMARK    8  A    between atoms: C8_16  and  C31_49 
REMARK    9  A    between atoms: C10_18  and  C11_19 
REMARK       I    between atoms: C11_19  and  N3_21 
REMARK   10  A    between atoms: N3_21  and  C12_23 
REMARK   11  A    between atoms: C12_23  and  C13_24 
REMARK   12  A    between atoms: C12_23  and  C22_33 
REMARK   13  A    between atoms: C13_24  and  C14_25 
REMARK   14  A    between atoms: C19_30  and  C20_31 
REMARK   15  A    between atoms: C22_33  and  C23_35 
REMARK   16  A    between atoms: C23_35  and  N4_36 
REMARK       I    between atoms: N5_39  and  C26_40 
ROOT
HETATM    1  C11 UNL     1      12.133  22.154   6.263  1.00  0.00     0.221 C 
HETATM    2  O3  UNL     1      11.168  21.648   6.875  1.00  0.00    -0.273 OA
HETATM    3  N3  UNL     1      11.956  23.274   5.450  1.00  0.00    -0.349 N 
ATOM      4  H3  UNL     1      12.822  23.596   5.019  1.00  0.00     0.163 HD
ENDROOT
BRANCH   3   5
HETATM    5  C12 UNL     1      10.832  24.061   5.092  1.00  0.00     0.156 C 
BRANCH   5   6
HETATM    6  C13 UNL     1      10.727  25.415   5.680  1.00  0.00     0.038 C 
BRANCH   6   7
HETATM    7  C14 UNL     1      10.294  25.482   7.092  1.00  0.00    -0.008 C 
HETATM    8  C15 UNL     1      11.376  26.222   7.934  1.00  0.00     0.005 C 
HETATM    9  C16 UNL     1      11.091  25.801   9.339  1.00  0.00     0.000 C 
HETATM   10  C17 UNL     1       9.694  26.103   9.772  1.00  0.00     0.000 C 
HETATM   11  C18 UNL     1       8.610  25.792   8.815  1.00  0.00     0.005 C 
HETATM   12  C19 UNL     1       8.994  26.160   7.378  1.00  0.00    -0.011 C 
BRANCH  12  13
HETATM   13  C20 UNL     1       8.974  27.643   7.336  1.00  0.00     0.000 C 
HETATM   14  C21 UNL     1       7.655  28.317   7.442  1.00  0.00     0.005 C 
ENDBRANCH  12  13
ENDBRANCH   6   7
ENDBRANCH   5   6
BRANCH   5  15
HETATM   15  C22 UNL     1      10.735  24.095   3.588  1.00  0.00     0.166 C 
HETATM   16  O4  UNL     1      11.682  24.568   3.013  1.00  0.00    -0.294 OA
BRANCH  15  17
HETATM   17  C23 UNL     1       9.577  23.602   2.865  1.00  0.00     0.198 C 
BRANCH  17  18
HETATM   18  N4  UNL     1       8.306  24.171   3.092  1.00  0.00    -0.395 N 
HETATM   19  C24 UNL     1       7.248  23.168   2.889  1.00  0.00     0.138 C 
HETATM   20  C25 UNL     1       5.984  23.550   3.603  1.00  0.00     0.145 C 
HETATM   21  N5  UNL     1       5.681  24.904   3.158  1.00  0.00    -0.352 N 
HETATM   22  C26 UNL     1       4.623  25.651   3.739  1.00  0.00     0.184 C 
HETATM   23  C27 UNL     1       6.520  25.406   2.092  1.00  0.00     0.155 C 
HETATM   24  N6  UNL     1       3.701  26.122   2.982  1.00  0.00    -0.374 N 
HETATM   25  N7  UNL     1       4.516  25.908   5.119  1.00  0.00    -0.064 NA
ATOM     26  H62 UNL     1       3.778  25.937   1.982  1.00  0.00     0.158 HD
ATOM     27  H61 UNL     1       2.941  26.659   3.399  1.00  0.00     0.158 HD
HETATM   28  C28 UNL     1       7.965  25.447   2.645  1.00  0.00     0.037 C 
HETATM   29  C29 UNL     1       7.909  26.546   3.682  1.00  0.00     0.039 C 
HETATM   30  C30 UNL     1       8.791  25.974   1.468  1.00  0.00     0.039 C 
ENDBRANCH  17  18
ENDBRANCH  15  17
ENDBRANCH   5  15
ENDBRANCH   3   5
BRANCH   1  31
HETATM   31  C10 UNL     1      13.472  21.554   6.407  1.00  0.00     0.144 C 
BRANCH  31  32
HETATM   32  C8  UNL     1      14.647  22.460   6.467  1.00  0.00     0.126 C 
HETATM   33  C9  UNL     1      14.592  23.629   7.365  1.00  0.00     0.051 C 
BRANCH  32  34
HETATM   34  N2  UNL     1      15.797  21.586   6.796  1.00  0.00    -0.340 N 
HETATM   35  C7  UNL     1      15.950  20.938   8.037  1.00  0.00     0.255 C 
HETATM   36  O2  UNL     1      15.042  21.163   8.896  1.00  0.00    -0.271 OA
ATOM     37  H2  UNL     1      16.516  21.447   6.086  1.00  0.00     0.163 HD
BRANCH  35  38
HETATM   38  C6  UNL     1      17.041  20.044   8.425  1.00  0.00     0.207 C 
HETATM   39  C5  UNL     1      16.968  19.411   9.778  1.00  0.00     0.081 C 
HETATM   40  C4  UNL     1      18.516  19.555   9.823  1.00  0.00     0.127 C 
HETATM   41  C32 UNL     1      18.264  20.831   8.980  1.00  0.00     0.081 C 
BRANCH  40  42
HETATM   42  O1  UNL     1      19.012  19.857  11.034  1.00  0.00    -0.386 OA
BRANCH  42  43
HETATM   43  C3  UNL     1      19.467  18.949  11.891  1.00  0.00     0.167 C 
BRANCH  43  44
HETATM   44  C2  UNL     1      19.853  19.298  13.274  1.00  0.00     0.022 C 
HETATM   45  C1  UNL     1      21.037  20.203  13.372  1.00  0.00     0.007 C 
ENDBRANCH  43  44
ENDBRANCH  42  43
ENDBRANCH  40  42
BRANCH  38  46
HETATM   46  N1  UNL     1      17.581  19.223   7.344  1.00  0.00    -0.061 N 
ATOM     47  H13 UNL     1      17.788  18.288   7.696  1.00  0.00     0.275 HD
ATOM     48  H12 UNL     1      16.842  19.010   6.674  1.00  0.00     0.275 HD
ATOM     49  H11 UNL     1      18.394  19.591   6.851  1.00  0.00     0.275 HD
ENDBRANCH  38  46
ENDBRANCH  35  38
ENDBRANCH  32  34
BRANCH  32  50
HETATM   50  C31 UNL     1      14.957  23.016   5.081  1.00  0.00     0.202 C 
HETATM   51  O5  UNL     1      15.426  22.271   4.168  1.00  0.00    -0.646 OA
HETATM   52  O6  UNL     1      14.739  24.329   4.788  1.00  0.00    -0.646 OA
ENDBRANCH  32  50
ENDBRANCH  31  32
ENDBRANCH   1  31
TORSDOF 16
ENDMDL
MODEL 4
REMARK VINA RESULT: -8.899072994      1.998      2.948
REMARK  16 active torsions:
REMARK  status: ('A' for Active; 'I' for Inactive)
REMARK    1  A    between atoms: C2_2  and  C3_3 
REMARK    2  A    between atoms: C3_3  and  O1_4 
REMARK    3  A    between atoms: O1_4  and  C4_5 
REMARK    4  A    between atoms: C6_7  and  N1_8 
REMARK    5  A    between atoms: C6_7  and  C7_12 
REMARK       I    between atoms: C7_12  and  N2_14 
REMARK    6  A    between atoms: N2_14  and  C8_16 
REMARK    7  A    between atoms: C8_16  and  C10_18 
REMARK    8  A    between atoms: C8_16  and  C31_49 
REMARK    9  A    between atoms: C10_18  and  C11_19 
REMARK       I    between atoms: C11_19  and  N3_21 
REMARK   10  A    between atoms: N3_21  and  C12_23 
REMARK   11  A    between atoms: C12_23  and  C13_24 
REMARK   12  A    between atoms: C12_23  and  C22_33 
REMARK   13  A    between atoms: C13_24  and  C14_25 
REMARK   14  A    between atoms: C19_30  and  C20_31 
REMARK   15  A    between atoms: C22_33  and  C23_35 
REMARK   16  A    between atoms: C23_35  and  N4_36 
REMARK       I    between atoms: N5_39  and  C26_40 
ROOT
HETATM    1  C11 UNL     1      12.259  22.399   6.440  1.00  0.00     0.221 C 
HETATM    2  O3  UNL     1      11.444  21.469   6.623  1.00  0.00    -0.273 OA
HETATM    3  N3  UNL     1      11.857  23.596   5.847  1.00  0.00    -0.349 N 
ATOM      4  H3  UNL     1      12.612  24.277   5.767  1.00  0.00     0.163 HD
ENDROOT
BRANCH   3   5
HETATM    5  C12 UNL     1      10.625  24.072   5.330  1.00  0.00     0.156 C 
BRANCH   5   6
HETATM    6  C13 UNL     1      10.073  25.318   5.907  1.00  0.00     0.038 C 
BRANCH   6   7
HETATM    7  C14 UNL     1      10.000  25.378   7.381  1.00  0.00    -0.008 C 
HETATM    8  C15 UNL     1      10.950  26.496   7.905  1.00  0.00     0.005 C 
HETATM    9  C16 UNL     1      11.170  26.142   9.340  1.00  0.00     0.000 C 
HETATM   10  C17 UNL     1       9.900  26.030  10.119  1.00  0.00     0.000 C 
HETATM   11  C18 UNL     1       8.780  25.305   9.481  1.00  0.00     0.005 C 
HETATM   12  C19 UNL     1       8.660  25.638   7.991  1.00  0.00    -0.011 C 
BRANCH  12  13
HETATM   13  C20 UNL     1       8.146  27.029   7.940  1.00  0.00     0.000 C 
HETATM   14  C21 UNL     1       6.701  27.219   7.659  1.00  0.00     0.005 C 
ENDBRANCH  12  13
ENDBRANCH   6   7
ENDBRANCH   5   6
BRANCH   5  15
HETATM   15  C22 UNL     1      10.739  24.152   3.829  1.00  0.00     0.166 C 
HETATM   16  O4  UNL     1      11.773  24.601   3.405  1.00  0.00    -0.294 OA
BRANCH  15  17
HETATM   17  C23 UNL     1       9.674  23.727   2.937  1.00  0.00     0.198 C 
BRANCH  17  18
HETATM   18  N4  UNL     1       8.370  24.240   3.097  1.00  0.00    -0.395 N 
HETATM   19  C24 UNL     1       7.369  23.187   2.861  1.00  0.00     0.138 C 
HETATM   20  C25 UNL     1       6.057  23.518   3.511  1.00  0.00     0.145 C 
HETATM   21  N5  UNL     1       5.715  24.851   3.032  1.00  0.00    -0.352 N 
HETATM   22  C26 UNL     1       4.597  25.556   3.553  1.00  0.00     0.184 C 
HETATM   23  C27 UNL     1       6.578  25.377   1.999  1.00  0.00     0.155 C 
HETATM   24  N6  UNL     1       3.691  25.975   2.749  1.00  0.00    -0.374 N 
HETATM   25  N7  UNL     1       4.415  25.825   4.923  1.00  0.00    -0.064 NA
ATOM     26  H62 UNL     1       3.823  25.781   1.756  1.00  0.00     0.158 HD
ATOM     27  H61 UNL     1       2.889  26.482   3.122  1.00  0.00     0.158 HD
HETATM   28  C28 UNL     1       7.992  25.492   2.617  1.00  0.00     0.037 C 
HETATM   29  C29 UNL     1       7.839  26.601   3.634  1.00  0.00     0.039 C 
HETATM   30  C30 UNL     1       8.848  26.042   1.471  1.00  0.00     0.039 C 
ENDBRANCH  17  18
ENDBRANCH  15  17
ENDBRANCH   5  15
ENDBRANCH   3   5
BRANCH   1  31
HETATM   31  C10 UNL     1      13.662  22.220   6.858  1.00  0.00     0.144 C 
BRANCH  31  32
HETATM   32  C8  UNL     1      14.708  22.169   5.806  1.00  0.00     0.126 C 
HETATM   33  C9  UNL     1      15.176  23.436   5.212  1.00  0.00     0.051 C 
BRANCH  32  34
HETATM   34  N2  UNL     1      15.831  21.414   6.409  1.00  0.00    -0.340 N 
HETATM   35  C7  UNL     1      16.426  21.756   7.639  1.00  0.00     0.255 C 
HETATM   36  O2  UNL     1      15.957  22.788   8.213  1.00  0.00    -0.271 OA
ATOM     37  H2  UNL     1      16.194  20.603   5.906  1.00  0.00     0.163 HD
BRANCH  35  38
HETATM   38  C6  UNL     1      17.517  21.048   8.308  1.00  0.00     0.207 C 
HETATM   39  C5  UNL     1      17.876  19.689   7.796  1.00  0.00     0.081 C 
HETATM   40  C4  UNL     1      18.171  19.315   9.277  1.00  0.00     0.127 C 
HETATM   41  C32 UNL     1      17.030  20.315   9.591  1.00  0.00     0.081 C 
BRANCH  40  42
HETATM   42  O1  UNL     1      17.831  18.060   9.612  1.00  0.00    -0.386 OA
BRANCH  42  43
HETATM   43  C3  UNL     1      18.377  17.394  10.623  1.00  0.00     0.167 C 
BRANCH  43  44
HETATM   44  C2  UNL     1      17.563  16.646  11.603  1.00  0.00     0.022 C 
HETATM   45  C1  UNL     1      16.125  16.504  11.227  1.00  0.00     0.007 C 
ENDBRANCH  43  44
ENDBRANCH  42  43
ENDBRANCH  40  42
BRANCH  38  46
HETATM   46  N1  UNL     1      18.621  21.895   8.753  1.00  0.00    -0.061 N 
ATOM     47  H13 UNL     1      18.601  21.976   9.769  1.00  0.00     0.275 HD
ATOM     48  H12 UNL     1      19.505  21.402   8.622  1.00  0.00     0.275 HD
ATOM     49  H11 UNL     1      18.683  22.824   8.336  1.00  0.00     0.275 HD
ENDBRANCH  38  46
ENDBRANCH  35  38
ENDBRANCH  32  34
BRANCH  32  50
HETATM   50  C31 UNL     1      14.240  21.311   4.634  1.00  0.00     0.202 C 
HETATM   51  O5  UNL     1      14.406  20.054   4.637  1.00  0.00    -0.646 OA
HETATM   52  O6  UNL     1      13.631  21.874   3.553  1.00  0.00    -0.646 OA
ENDBRANCH  32  50
ENDBRANCH  31  32
ENDBRANCH   1  31
TORSDOF 16
ENDMDL
MODEL 5
REMARK VINA RESULT: -8.859800716      2.018      4.491
REMARK  16 active torsions:
REMARK  status: ('A' for Active; 'I' for Inactive)
REMARK    1  A    between atoms: C2_2  and  C3_3 
REMARK    2  A    between atoms: C3_3  and  O1_4 
REMARK    3  A    between atoms: O1_4  and  C4_5 
REMARK    4  A    between atoms: C6_7  and  N1_8 
REMARK    5  A    between atoms: C6_7  and  C7_12 
REMARK       I    between atoms: C7_12  and  N2_14 
REMARK    6  A    between atoms: N2_14  and  C8_16 
REMARK    7  A    between atoms: C8_16  and  C10_18 
REMARK    8  A    between atoms: C8_16  and  C31_49 
REMARK    9  A    between atoms: C10_18  and  C11_19 
REMARK       I    between atoms: C11_19  and  N3_21 
REMARK   10  A    between atoms: N3_21  and  C12_23 
REMARK   11  A    between atoms: C12_23  and  C13_24 
REMARK   12  A    between atoms: C12_23  and  C22_33 
REMARK   13  A    between atoms: C13_24  and  C14_25 
REMARK   14  A    between atoms: C19_30  and  C20_31 
REMARK   15  A    between atoms: C22_33  and  C23_35 
REMARK   16  A    between atoms: C23_35  and  N4_36 
REMARK       I    between atoms: N5_39  and  C26_40 
ROOT
HETATM    1  C11 UNL     1      13.752  23.075   4.439  1.00  0.00     0.221 C 
HETATM    2  O3  UNL     1      13.265  22.343   3.551  1.00  0.00    -0.273 OA
HETATM    3  N3  UNL     1      13.045  24.174   4.927  1.00  0.00    -0.349 N 
ATOM      4  H3  UNL     1      13.546  24.680   5.657  1.00  0.00     0.163 HD
ENDROOT
BRANCH   3   5
HETATM    5  C12 UNL     1      11.781  24.741   4.627  1.00  0.00     0.156 C 
BRANCH   5   6
HETATM    6  C13 UNL     1      10.997  24.133   3.528  1.00  0.00     0.038 C 
BRANCH   6   7
HETATM    7  C14 UNL     1       9.645  24.687   3.306  1.00  0.00    -0.008 C 
HETATM    8  C15 UNL     1       9.604  25.426   1.935  1.00  0.00     0.005 C 
HETATM    9  C16 UNL     1       8.418  26.328   2.046  1.00  0.00     0.000 C 
HETATM   10  C17 UNL     1       7.153  25.600   2.365  1.00  0.00     0.000 C 
HETATM   11  C18 UNL     1       7.222  24.558   3.413  1.00  0.00     0.005 C 
HETATM   12  C19 UNL     1       8.502  23.725   3.306  1.00  0.00    -0.011 C 
BRANCH  12  13
HETATM   13  C20 UNL     1       8.321  22.882   2.097  1.00  0.00     0.000 C 
HETATM   14  C21 UNL     1       9.296  21.786   1.870  1.00  0.00     0.005 C 
ENDBRANCH  12  13
ENDBRANCH   6   7
ENDBRANCH   5   6
BRANCH   5  15
HETATM   15  C22 UNL     1      10.982  24.825   5.903  1.00  0.00     0.166 C 
HETATM   16  O4  UNL     1      10.554  23.780   6.322  1.00  0.00    -0.294 OA
BRANCH  15  17
HETATM   17  C23 UNL     1      10.729  26.079   6.589  1.00  0.00     0.198 C 
BRANCH  17  18
HETATM   18  N4  UNL     1       9.404  26.499   6.830  1.00  0.00    -0.395 N 
HETATM   19  C24 UNL     1       8.925  27.352   5.730  1.00  0.00     0.138 C 
HETATM   20  C25 UNL     1       7.426  27.382   5.669  1.00  0.00     0.145 C 
HETATM   21  N5  UNL     1       6.992  27.756   7.009  1.00  0.00    -0.352 N 
HETATM   22  C26 UNL     1       5.618  27.745   7.369  1.00  0.00     0.184 C 
HETATM   23  C27 UNL     1       8.050  28.143   7.916  1.00  0.00     0.155 C 
HETATM   24  N6  UNL     1       5.084  28.815   7.833  1.00  0.00    -0.374 N 
HETATM   25  N7  UNL     1       4.788  26.615   7.240  1.00  0.00    -0.064 NA
ATOM     26  H62 UNL     1       5.686  29.633   7.927  1.00  0.00     0.158 HD
ATOM     27  H61 UNL     1       4.098  28.807   8.092  1.00  0.00     0.158 HD
HETATM   28  C28 UNL     1       8.961  26.904   8.088  1.00  0.00     0.037 C 
HETATM   29  C29 UNL     1       8.091  25.935   8.856  1.00  0.00     0.039 C 
HETATM   30  C30 UNL     1      10.056  27.387   9.045  1.00  0.00     0.039 C 
ENDBRANCH  17  18
ENDBRANCH  15  17
ENDBRANCH   5  15
ENDBRANCH   3   5
BRANCH   1  31
HETATM   31  C10 UNL     1      15.092  22.766   4.973  1.00  0.00     0.144 C 
BRANCH  31  32
HETATM   32  C8  UNL     1      15.184  22.016   6.251  1.00  0.00     0.126 C 
HETATM   33  C9  UNL     1      14.079  21.112   6.622  1.00  0.00     0.051 C 
BRANCH  32  34
HETATM   34  N2  UNL     1      16.472  21.287   6.183  1.00  0.00    -0.340 N 
HETATM   35  C7  UNL     1      16.685  20.161   5.366  1.00  0.00     0.255 C 
HETATM   36  O2  UNL     1      15.684  19.771   4.687  1.00  0.00    -0.271 OA
ATOM     37  H2  UNL     1      17.246  21.619   6.760  1.00  0.00     0.163 HD
BRANCH  35  38
HETATM   38  C6  UNL     1      17.930  19.406   5.227  1.00  0.00     0.207 C 
HETATM   39  C5  UNL     1      18.076  18.526   4.027  1.00  0.00     0.081 C 
HETATM   40  C4  UNL     1      18.855  17.551   4.956  1.00  0.00     0.127 C 
HETATM   41  C32 UNL     1      17.903  18.088   6.054  1.00  0.00     0.081 C 
BRANCH  40  42
HETATM   42  O1  UNL     1      18.634  16.250   4.708  1.00  0.00    -0.386 OA
BRANCH  42  43
HETATM   43  C3  UNL     1      19.598  15.339   4.642  1.00  0.00     0.167 C 
BRANCH  43  44
HETATM   44  C2  UNL     1      19.485  14.025   5.308  1.00  0.00     0.022 C 
HETATM   45  C1  UNL     1      19.071  14.095   6.741  1.00  0.00     0.007 C 
ENDBRANCH  43  44
ENDBRANCH  42  43
ENDBRANCH  40  42
BRANCH  38  46
HETATM   46  N1  UNL     1      19.130  20.107   5.676  1.00  0.00    -0.061 N 
ATOM     47  H13 UNL     1      19.882  19.966   5.001  1.00  0.00     0.275 HD
ATOM     48  H12 UNL     1      18.990  21.114   5.592  1.00  0.00     0.275 HD
ATOM     49  H11 UNL     1      19.467  19.887   6.614  1.00  0.00     0.275 HD
ENDBRANCH  38  46
ENDBRANCH  35  38
ENDBRANCH  32  34
BRANCH  32  50
HETATM   50  C31 UNL     1      15.339  22.983   7.422  1.00  0.00     0.202 C 
HETATM   51  O5  UNL     1      14.362  23.682   7.825  1.00  0.00    -0.646 OA
HETATM   52  O6  UNL     1      16.533  23.119   8.065  1.00  0.00    -0.646 OA
ENDBRANCH  32  50
ENDBRANCH  31  32
ENDBRANCH   1  31
TORSDOF 16
ENDMDL
