MODEL 1
REMARK VINA RESULT: -8.530818639      0.000      0.000
REMARK  20 active torsions:
REMARK  status: ('A' for Active; 'I' for Inactive)
REMARK    1  A    between atoms: C2_2  and  C3_3 
REMARK    2  A    between atoms: C3_3  and  C4_4 
REMARK    3  A    between atoms: C4_4  and  N1_5 
REMARK       I    between atoms: N1_5  and  C5_7 
REMARK    4  A    between atoms: C5_7  and  C6_9 
REMARK    5  A    between atoms: N2_11  and  C8_12 
REMARK    6  A    between atoms: C8_12  and  O2_13 
REMARK    7  A    between atoms: C8_12  and  C9_15 
REMARK    8  A    between atoms: C9_15  and  C10_16 
REMARK    9  A    between atoms: C9_15  and  N4_24 
REMARK   10  A    between atoms: C10_16  and  C11_17 
REMARK   11  A    between atoms: C11_17  and  C12_18 
REMARK   12  A    between atoms: C12_18  and  C13_19 
REMARK   13  A    between atoms: C13_19  and  N3_20 
REMARK       I    between atoms: N4_24  and  C14_26 
REMARK   14  A    between atoms: C14_26  and  O4_28 
REMARK   15  A    between atoms: O4_28  and  C15_29 
REMARK   16  A    between atoms: C15_29  and  C16_30 
REMARK   17  A    between atoms: C15_29  and  C27_46 
REMARK   18  A    between atoms: C16_30  and  C17_31 
REMARK       I    between atoms: N5_35  and  C21_36 
REMARK   19  A    between atoms: C22_41  and  C23_42 
REMARK   20  A    between atoms: C28_49  and  C29_50 
ROOT
HETATM    1  C9  UNL     1      15.098  21.154   4.135  1.00  0.00     0.161 C 
ENDROOT
BRANCH   1   2
HETATM    2  C8  UNL     1      15.226  20.271   5.284  1.00  0.00     0.138 C 
BRANCH   2   3
HETATM    3  N2  UNL     1      16.212  20.272   6.299  1.00  0.00    -0.347 N 
HETATM    4  C7  UNL     1      17.606  19.961   6.443  1.00  0.00     0.142 C 
HETATM    5  C6  UNL     1      17.613  20.576   7.811  1.00  0.00     0.129 C 
HETATM    6  C28 UNL     1      16.127  20.543   7.709  1.00  0.00     0.201 C 
BRANCH   5   7
HETATM    7  C5  UNL     1      18.193  19.689   8.870  1.00  0.00     0.226 C 
HETATM    8  N1  UNL     1      17.853  18.319   8.944  1.00  0.00    -0.361 N 
ATOM      9  H1  UNL     1      17.208  17.934   8.253  1.00  0.00     0.162 HD
HETATM   10  O1  UNL     1      18.979  20.183   9.681  1.00  0.00    -0.273 OA
BRANCH   8  11
HETATM   11  C4  UNL     1      18.382  17.452   9.958  1.00  0.00     0.122 C 
BRANCH  11  12
HETATM   12  C3  UNL     1      17.398  17.305  11.077  1.00  0.00     0.019 C 
BRANCH  12  13
HETATM   13  C2  UNL     1      16.688  15.975  10.875  1.00  0.00    -0.003 C 
HETATM   14  C1  UNL     1      15.310  15.967  11.491  1.00  0.00     0.005 C 
ENDBRANCH  12  13
ENDBRANCH  11  12
ENDBRANCH   8  11
ENDBRANCH   5   7
BRANCH   6  15
HETATM   15  C29 UNL     1      15.473  21.831   8.100  1.00  0.00     0.197 C 
HETATM   16  O7  UNL     1      16.033  22.934   7.960  1.00  0.00    -0.646 OA
HETATM   17  O8  UNL     1      14.185  21.742   8.636  1.00  0.00    -0.646 OA
ENDBRANCH   6  15
ENDBRANCH   2   3
BRANCH   2  18
HETATM   18  O2  UNL     1      14.290  19.365   5.359  1.00  0.00    -0.348 OA
ATOM     19  H2  UNL     1      13.897  19.076   4.544  1.00  0.00     0.219 HD
ENDBRANCH   2  18
ENDBRANCH   1   2
BRANCH   1  20
HETATM   20  C10 UNL     1      14.743  20.213   2.917  1.00  0.00     0.034 C 
BRANCH  20  21
HETATM   21  C11 UNL     1      15.990  19.567   2.412  1.00  0.00     0.004 C 
BRANCH  21  22
HETATM   22  C12 UNL     1      15.845  18.069   2.445  1.00  0.00     0.027 C 
BRANCH  22  23
HETATM   23  C13 UNL     1      16.897  17.499   3.371  1.00  0.00     0.229 C 
BRANCH  23  24
HETATM   24  N3  UNL     1      16.246  17.066   4.604  1.00  0.00    -0.079 N 
ATOM     25  H33 UNL     1      15.235  17.192   4.578  1.00  0.00     0.274 HD
ATOM     26  H32 UNL     1      16.257  16.051   4.717  1.00  0.00     0.274 HD
ATOM     27  H31 UNL     1      16.681  17.551   5.389  1.00  0.00     0.274 HD
ENDBRANCH  23  24
ENDBRANCH  22  23
ENDBRANCH  21  22
ENDBRANCH  20  21
ENDBRANCH   1  20
BRANCH   1  28
HETATM   28  N4  UNL     1      13.991  22.082   4.238  1.00  0.00    -0.325 N 
HETATM   29  C14 UNL     1      14.090  23.430   4.658  1.00  0.00     0.362 C 
HETATM   30  O3  UNL     1      15.216  23.894   4.951  1.00  0.00    -0.238 OA
ATOM     31  H4  UNL     1      13.065  21.737   3.988  1.00  0.00     0.165 HD
BRANCH  29  32
HETATM   32  O4  UNL     1      12.983  24.231   4.743  1.00  0.00    -0.288 OA
BRANCH  32  33
HETATM   33  C15 UNL     1      12.195  24.131   6.020  1.00  0.00     0.234 C 
BRANCH  33  34
HETATM   34  C16 UNL     1      11.183  25.192   5.892  1.00  0.00     0.050 C 
BRANCH  34  35
HETATM   35  C17 UNL     1       9.817  25.139   6.386  1.00  0.00     0.012 C 
HETATM   36  C18 UNL     1       8.703  24.935   5.423  1.00  0.00     0.008 C 
HETATM   37  C19 UNL     1       8.514  26.007   4.405  1.00  0.00     0.020 C 
HETATM   38  C20 UNL     1       8.666  27.327   5.128  1.00  0.00     0.126 C 
HETATM   39  N5  UNL     1       8.518  27.162   6.587  1.00  0.00    -0.350 N 
HETATM   40  C21 UNL     1       7.393  27.814   7.124  1.00  0.00     0.184 C 
HETATM   41  C22 UNL     1       9.513  26.403   7.247  1.00  0.00     0.098 C 
HETATM   42  N6  UNL     1       7.418  29.089   7.241  1.00  0.00    -0.374 N 
HETATM   43  N7  UNL     1       6.254  27.109   7.523  1.00  0.00    -0.064 NA
ATOM     44  H62 UNL     1       8.249  29.603   6.950  1.00  0.00     0.158 HD
ATOM     45  H61 UNL     1       6.602  29.562   7.630  1.00  0.00     0.158 HD
BRANCH  41  46
HETATM   46  C23 UNL     1       9.388  26.137   8.685  1.00  0.00    -0.030 C 
HETATM   47  C24 UNL     1      10.782  25.758   9.231  1.00  0.00     0.016 C 
HETATM   48  C25 UNL     1       9.052  27.419   9.472  1.00  0.00     0.016 C 
HETATM   49  C26 UNL     1       8.476  25.062   9.145  1.00  0.00     0.016 C 
ENDBRANCH  41  46
ENDBRANCH  34  35
ENDBRANCH  33  34
BRANCH  33  50
HETATM   50  C27 UNL     1      11.624  22.751   5.833  1.00  0.00     0.203 C 
HETATM   51  O5  UNL     1      11.696  21.829   6.676  1.00  0.00    -0.646 OA
HETATM   52  O6  UNL     1      10.965  22.501   4.621  1.00  0.00    -0.646 OA
ENDBRANCH  33  50
ENDBRANCH  32  33
ENDBRANCH  29  32
ENDBRANCH   1  28
TORSDOF 20
ENDMDL
MODEL 2
REMARK VINA RESULT: -8.517359222      2.526     10.822
REMARK  20 active torsions:
REMARK  status: ('A' for Active; 'I' for Inactive)
REMARK    1  A    between atoms: C2_2  and  C3_3 
REMARK    2  A    between atoms: C3_3  and  C4_4 
REMARK    3  A    between atoms: C4_4  and  N1_5 
REMARK       I    between atoms: N1_5  and  C5_7 
REMARK    4  A    between atoms: C5_7  and  C6_9 
REMARK    5  A    between atoms: N2_11  and  C8_12 
REMARK    6  A    between atoms: C8_12  and  O2_13 
REMARK    7  A    between atoms: C8_12  and  C9_15 
REMARK    8  A    between atoms: C9_15  and  C10_16 
REMARK    9  A    between atoms: C9_15  and  N4_24 
REMARK   10  A    between atoms: C10_16  and  C11_17 
REMARK   11  A    between atoms: C11_17  and  C12_18 
REMARK   12  A    between atoms: C12_18  and  C13_19 
REMARK   13  A    between atoms: C13_19  and  N3_20 
REMARK       I    between atoms: N4_24  and  C14_26 
REMARK   14  A    between atoms: C14_26  and  O4_28 
REMARK   15  A    between atoms: O4_28  and  C15_29 
REMARK   16  A    between atoms: C15_29  and  C16_30 
REMARK   17  A    between atoms: C15_29  and  C27_46 
REMARK   18  A    between atoms: C16_30  and  C17_31 
REMARK       I    between atoms: N5_35  and  C21_36 
REMARK   19  A    between atoms: C22_41  and  C23_42 
REMARK   20  A    between atoms: C28_49  and  C29_50 
ROOT
HETATM    1  C9  UNL     1      11.717  25.504   6.888  1.00  0.00     0.161 C 
ENDROOT
BRANCH   1   2
HETATM    2  C8  UNL     1      10.433  24.938   6.502  1.00  0.00     0.138 C 
BRANCH   2   3
HETATM    3  N2  UNL     1       9.601  25.286   5.412  1.00  0.00    -0.347 N 
HETATM    4  C7  UNL     1       8.825  26.408   4.968  1.00  0.00     0.142 C 
HETATM    5  C6  UNL     1       8.626  25.757   3.631  1.00  0.00     0.129 C 
HETATM    6  C28 UNL     1       9.137  24.519   4.287  1.00  0.00     0.201 C 
BRANCH   5   7
HETATM    7  C5  UNL     1       7.194  25.696   3.196  1.00  0.00     0.226 C 
HETATM    8  N1  UNL     1       6.192  25.174   4.045  1.00  0.00    -0.361 N 
ATOM      9  H1  UNL     1       6.456  24.845   4.974  1.00  0.00     0.162 HD
HETATM   10  O1  UNL     1       6.907  26.114   2.071  1.00  0.00    -0.273 OA
BRANCH   8  11
HETATM   11  C4  UNL     1       4.816  25.090   3.645  1.00  0.00     0.122 C 
BRANCH  11  12
HETATM   12  C3  UNL     1       4.495  23.701   3.189  1.00  0.00     0.019 C 
BRANCH  12  13
HETATM   13  C2  UNL     1       3.703  23.036   4.305  1.00  0.00    -0.003 C 
HETATM   14  C1  UNL     1       4.026  21.568   4.433  1.00  0.00     0.005 C 
ENDBRANCH  12  13
ENDBRANCH  11  12
ENDBRANCH   8  11
ENDBRANCH   5   7
BRANCH   6  15
HETATM   15  C29 UNL     1      10.183  23.810   3.488  1.00  0.00     0.197 C 
HETATM   16  O7  UNL     1      10.839  24.375   2.594  1.00  0.00    -0.646 OA
HETATM   17  O8  UNL     1      10.400  22.463   3.794  1.00  0.00    -0.646 OA
ENDBRANCH   6  15
ENDBRANCH   2   3
BRANCH   2  18
HETATM   18  O2  UNL     1      10.020  23.984   7.291  1.00  0.00    -0.348 OA
ATOM     19  H2  UNL     1       9.910  23.121   6.912  1.00  0.00     0.219 HD
ENDBRANCH   2  18
ENDBRANCH   1   2
BRANCH   1  20
HETATM   20  C10 UNL     1      11.591  25.825   8.430  1.00  0.00     0.034 C 
BRANCH  20  21
HETATM   21  C11 UNL     1      10.758  27.050   8.612  1.00  0.00     0.004 C 
BRANCH  21  22
HETATM   22  C12 UNL     1       9.640  26.773   9.580  1.00  0.00     0.027 C 
BRANCH  22  23
HETATM   23  C13 UNL     1       8.331  26.766   8.822  1.00  0.00     0.229 C 
BRANCH  23  24
HETATM   24  N3  UNL     1       7.810  25.401   8.807  1.00  0.00    -0.079 N 
ATOM     25  H33 UNL     1       7.873  24.969   7.886  1.00  0.00     0.274 HD
ATOM     26  H32 UNL     1       8.411  24.747   9.310  1.00  0.00     0.274 HD
ATOM     27  H31 UNL     1       6.857  25.413   9.169  1.00  0.00     0.274 HD
ENDBRANCH  23  24
ENDBRANCH  22  23
ENDBRANCH  21  22
ENDBRANCH  20  21
ENDBRANCH   1  20
BRANCH   1  28
HETATM   28  N4  UNL     1      12.818  24.569   6.779  1.00  0.00    -0.325 N 
HETATM   29  C14 UNL     1      13.601  24.358   5.620  1.00  0.00     0.362 C 
HETATM   30  O3  UNL     1      13.361  25.035   4.594  1.00  0.00    -0.238 OA
ATOM     31  H4  UNL     1      13.047  24.017   7.606  1.00  0.00     0.165 HD
BRANCH  29  32
HETATM   32  O4  UNL     1      14.613  23.436   5.604  1.00  0.00    -0.288 OA
BRANCH  32  33
HETATM   33  C15 UNL     1      14.215  22.028   5.258  1.00  0.00     0.234 C 
BRANCH  33  34
HETATM   34  C16 UNL     1      15.498  21.309   5.182  1.00  0.00     0.050 C 
BRANCH  34  35
HETATM   35  C17 UNL     1      15.713  19.904   5.486  1.00  0.00     0.012 C 
HETATM   36  C18 UNL     1      16.384  19.531   6.759  1.00  0.00     0.008 C 
HETATM   37  C19 UNL     1      17.791  19.996   6.917  1.00  0.00     0.020 C 
HETATM   38  C20 UNL     1      18.482  19.758   5.593  1.00  0.00     0.126 C 
HETATM   39  N5  UNL     1      17.730  18.799   4.759  1.00  0.00    -0.350 N 
HETATM   40  C21 UNL     1      18.415  17.594   4.518  1.00  0.00     0.184 C 
HETATM   41  C22 UNL     1      16.457  19.212   4.303  1.00  0.00     0.098 C 
HETATM   42  N6  UNL     1      19.392  17.595   3.689  1.00  0.00    -0.374 N 
HETATM   43  N7  UNL     1      18.063  16.405   5.163  1.00  0.00    -0.064 NA
ATOM     44  H62 UNL     1      19.649  18.463   3.219  1.00  0.00     0.158 HD
ATOM     45  H61 UNL     1      19.889  16.722   3.515  1.00  0.00     0.158 HD
BRANCH  41  46
HETATM   46  C23 UNL     1      15.626  18.279   3.532  1.00  0.00    -0.030 C 
HETATM   47  C24 UNL     1      14.567  19.098   2.761  1.00  0.00     0.016 C 
HETATM   48  C25 UNL     1      16.427  17.609   2.400  1.00  0.00     0.016 C 
HETATM   49  C26 UNL     1      14.868  17.225   4.247  1.00  0.00     0.016 C 
ENDBRANCH  41  46
ENDBRANCH  34  35
ENDBRANCH  33  34
BRANCH  33  50
HETATM   50  C27 UNL     1      13.431  21.696   6.500  1.00  0.00     0.203 C 
HETATM   51  O5  UNL     1      13.887  21.742   7.665  1.00  0.00    -0.646 OA
HETATM   52  O6  UNL     1      12.095  21.311   6.317  1.00  0.00    -0.646 OA
ENDBRANCH  33  50
ENDBRANCH  32  33
ENDBRANCH  29  32
ENDBRANCH   1  28
TORSDOF 20
ENDMDL
MODEL 3
REMARK VINA RESULT: -8.499761595      2.551     10.959
REMARK  20 active torsions:
REMARK  status: ('A' for Active; 'I' for Inactive)
REMARK    1  A    between atoms: C2_2  and  C3_3 
REMARK    2  A    between atoms: C3_3  and  C4_4 
REMARK    3  A    between atoms: C4_4  and  N1_5 
REMARK       I    between atoms: N1_5  and  C5_7 
REMARK    4  A    between atoms: C5_7  and  C6_9 
REMARK    5  A    between atoms: N2_11  and  C8_12 
REMARK    6  A    between atoms: C8_12  and  O2_13 
REMARK    7  A    between atoms: C8_12  and  C9_15 
REMARK    8  A    between atoms: C9_15  and  C10_16 
REMARK    9  A    between atoms: C9_15  and  N4_24 
REMARK   10  A    between atoms: C10_16  and  C11_17 
REMARK   11  A    between atoms: C11_17  and  C12_18 
REMARK   12  A    between atoms: C12_18  and  C13_19 
REMARK   13  A    between atoms: C13_19  and  N3_20 
REMARK       I    between atoms: N4_24  and  C14_26 
REMARK   14  A    between atoms: C14_26  and  O4_28 
REMARK   15  A    between atoms: O4_28  and  C15_29 
REMARK   16  A    between atoms: C15_29  and  C16_30 
REMARK   17  A    between atoms: C15_29  and  C27_46 
REMARK   18  A    between atoms: C16_30  and  C17_31 
REMARK       I    between atoms: N5_35  and  C21_36 
REMARK   19  A    between atoms: C22_41  and  C23_42 
REMARK   20  A    between atoms: C28_49  and  C29_50 
ROOT
HETATM    1  C9  UNL     1      11.903  25.499   6.786  1.00  0.00     0.161 C 
ENDROOT
BRANCH   1   2
HETATM    2  C8  UNL     1      10.629  24.905   6.409  1.00  0.00     0.138 C 
BRANCH   2   3
HETATM    3  N2  UNL     1       9.667  25.379   5.488  1.00  0.00    -0.347 N 
HETATM    4  C7  UNL     1       8.925  26.581   5.231  1.00  0.00     0.142 C 
HETATM    5  C6  UNL     1       8.465  26.030   3.914  1.00  0.00     0.129 C 
HETATM    6  C28 UNL     1       8.969  24.720   4.416  1.00  0.00     0.201 C 
BRANCH   5   7
HETATM    7  C5  UNL     1       6.982  26.101   3.715  1.00  0.00     0.226 C 
HETATM    8  N1  UNL     1       6.100  26.209   4.814  1.00  0.00    -0.361 N 
ATOM      9  H1  UNL     1       6.489  26.250   5.756  1.00  0.00     0.162 HD
HETATM   10  O1  UNL     1       6.544  26.062   2.562  1.00  0.00    -0.273 OA
BRANCH   8  11
HETATM   11  C4  UNL     1       4.674  26.263   4.650  1.00  0.00     0.122 C 
BRANCH  11  12
HETATM   12  C3  UNL     1       4.013  26.521   5.969  1.00  0.00     0.019 C 
BRANCH  12  13
HETATM   13  C2  UNL     1       5.080  27.070   6.904  1.00  0.00    -0.003 C 
HETATM   14  C1  UNL     1       4.560  28.198   7.760  1.00  0.00     0.005 C 
ENDBRANCH  12  13
ENDBRANCH  11  12
ENDBRANCH   8  11
ENDBRANCH   5   7
BRANCH   6  15
HETATM   15  C29 UNL     1       9.814  23.986   3.424  1.00  0.00     0.197 C 
HETATM   16  O7  UNL     1      10.452  24.570   2.529  1.00  0.00    -0.646 OA
HETATM   17  O8  UNL     1       9.860  22.594   3.548  1.00  0.00    -0.646 OA
ENDBRANCH   6  15
ENDBRANCH   2   3
BRANCH   2  18
HETATM   18  O2  UNL     1      10.368  23.785   7.026  1.00  0.00    -0.348 OA
ATOM     19  H2  UNL     1       9.779  23.823   7.770  1.00  0.00     0.219 HD
ENDBRANCH   2  18
ENDBRANCH   1   2
BRANCH   1  20
HETATM   20  C10 UNL     1      11.801  25.768   8.340  1.00  0.00     0.034 C 
BRANCH  20  21
HETATM   21  C11 UNL     1      10.815  26.860   8.587  1.00  0.00     0.004 C 
BRANCH  21  22
HETATM   22  C12 UNL     1       9.841  26.443   9.656  1.00  0.00     0.027 C 
BRANCH  22  23
HETATM   23  C13 UNL     1       8.482  26.239   9.023  1.00  0.00     0.229 C 
BRANCH  23  24
HETATM   24  N3  UNL     1       8.183  24.810   9.015  1.00  0.00    -0.079 N 
ATOM     25  H33 UNL     1       7.784  24.498   8.129  1.00  0.00     0.274 HD
ATOM     26  H32 UNL     1       9.025  24.233   8.999  1.00  0.00     0.274 HD
ATOM     27  H31 UNL     1       7.580  24.599   9.810  1.00  0.00     0.274 HD
ENDBRANCH  23  24
ENDBRANCH  22  23
ENDBRANCH  21  22
ENDBRANCH  20  21
ENDBRANCH   1  20
BRANCH   1  28
HETATM   28  N4  UNL     1      13.030  24.603   6.625  1.00  0.00    -0.325 N 
HETATM   29  C14 UNL     1      13.697  24.339   5.405  1.00  0.00     0.362 C 
HETATM   30  O3  UNL     1      13.319  24.928   4.366  1.00  0.00    -0.238 OA
ATOM     31  H4  UNL     1      13.371  24.124   7.458  1.00  0.00     0.165 HD
BRANCH  29  32
HETATM   32  O4  UNL     1      14.745  23.459   5.344  1.00  0.00    -0.288 OA
BRANCH  32  33
HETATM   33  C15 UNL     1      14.398  22.049   4.954  1.00  0.00     0.234 C 
BRANCH  33  34
HETATM   34  C16 UNL     1      15.669  21.321   5.105  1.00  0.00     0.050 C 
BRANCH  34  35
HETATM   35  C17 UNL     1      15.817  19.916   5.447  1.00  0.00     0.012 C 
HETATM   36  C18 UNL     1      16.434  19.546   6.749  1.00  0.00     0.008 C 
HETATM   37  C19 UNL     1      17.854  19.958   6.939  1.00  0.00     0.020 C 
HETATM   38  C20 UNL     1      18.573  19.661   5.642  1.00  0.00     0.126 C 
HETATM   39  N5  UNL     1      17.808  18.713   4.808  1.00  0.00    -0.350 N 
HETATM   40  C21 UNL     1      18.449  17.476   4.616  1.00  0.00     0.184 C 
HETATM   41  C22 UNL     1      16.566  19.166   4.304  1.00  0.00     0.098 C 
HETATM   42  N6  UNL     1      19.449  17.418   3.818  1.00  0.00    -0.374 N 
HETATM   43  N7  UNL     1      18.029  16.318   5.277  1.00  0.00    -0.064 NA
ATOM     44  H62 UNL     1      19.756  18.263   3.336  1.00  0.00     0.158 HD
ATOM     45  H61 UNL     1      19.915  16.521   3.678  1.00  0.00     0.158 HD
BRANCH  41  46
HETATM   46  C23 UNL     1      15.721  18.250   3.529  1.00  0.00    -0.030 C 
HETATM   47  C24 UNL     1      14.733  19.093   2.692  1.00  0.00     0.016 C 
HETATM   48  C25 UNL     1      16.531  17.506   2.450  1.00  0.00     0.016 C 
HETATM   49  C26 UNL     1      14.885  17.257   4.245  1.00  0.00     0.016 C 
ENDBRANCH  41  46
ENDBRANCH  34  35
ENDBRANCH  33  34
BRANCH  33  50
HETATM   50  C27 UNL     1      13.412  21.740   6.049  1.00  0.00     0.203 C 
HETATM   51  O5  UNL     1      13.705  21.625   7.260  1.00  0.00    -0.646 OA
HETATM   52  O6  UNL     1      12.075  21.574   5.663  1.00  0.00    -0.646 OA
ENDBRANCH  33  50
ENDBRANCH  32  33
ENDBRANCH  29  32
ENDBRANCH   1  28
TORSDOF 20
ENDMDL
MODEL 4
REMARK VINA RESULT: -8.318377829      3.309      6.415
REMARK  20 active torsions:
REMARK  status: ('A' for Active; 'I' for Inactive)
REMARK    1  A    between atoms: C2_2  and  C3_3 
REMARK    2  A    between atoms: C3_3  and  C4_4 
REMARK    3  A    between atoms: C4_4  and  N1_5 
REMARK       I    between atoms: N1_5  and  C5_7 
REMARK    4  A    between atoms: C5_7  and  C6_9 
REMARK    5  A    between atoms: N2_11  and  C8_12 
REMARK    6  A    between atoms: C8_12  and  O2_13 
REMARK    7  A    between atoms: C8_12  and  C9_15 
REMARK    8  A    between atoms: C9_15  and  C10_16 
REMARK    9  A    between atoms: C9_15  and  N4_24 
REMARK   10  A    between atoms: C10_16  and  C11_17 
REMARK   11  A    between atoms: C11_17  and  C12_18 
REMARK   12  A    between atoms: C12_18  and  C13_19 
REMARK   13  A    between atoms: C13_19  and  N3_20 
REMARK       I    between atoms: N4_24  and  C14_26 
REMARK   14  A    between atoms: C14_26  and  O4_28 
REMARK   15  A    between atoms: O4_28  and  C15_29 
REMARK   16  A    between atoms: C15_29  and  C16_30 
REMARK   17  A    between atoms: C15_29  and  C27_46 
REMARK   18  A    between atoms: C16_30  and  C17_31 
REMARK       I    between atoms: N5_35  and  C21_36 
REMARK   19  A    between atoms: C22_41  and  C23_42 
REMARK   20  A    between atoms: C28_49  and  C29_50 
ROOT
HETATM    1  C9  UNL     1      11.849  24.511   5.325  1.00  0.00     0.161 C 
ENDROOT
BRANCH   1   2
HETATM    2  C8  UNL     1      13.192  24.215   4.849  1.00  0.00     0.138 C 
BRANCH   2   3
HETATM    3  N2  UNL     1      13.860  22.969   4.797  1.00  0.00    -0.347 N 
HETATM    4  C7  UNL     1      15.095  22.432   4.299  1.00  0.00     0.142 C 
HETATM    5  C6  UNL     1      14.842  21.145   5.029  1.00  0.00     0.129 C 
HETATM    6  C28 UNL     1      13.451  21.651   5.205  1.00  0.00     0.201 C 
BRANCH   5   7
HETATM    7  C5  UNL     1      14.966  19.927   4.165  1.00  0.00     0.226 C 
HETATM    8  N1  UNL     1      15.024  20.031   2.757  1.00  0.00    -0.361 N 
ATOM      9  H1  UNL     1      14.993  20.957   2.330  1.00  0.00     0.162 HD
HETATM   10  O1  UNL     1      15.015  18.824   4.715  1.00  0.00    -0.273 OA
BRANCH   8  11
HETATM   11  C4  UNL     1      15.127  18.878   1.908  1.00  0.00     0.122 C 
BRANCH  11  12
HETATM   12  C3  UNL     1      16.546  18.684   1.471  1.00  0.00     0.019 C 
BRANCH  12  13
HETATM   13  C2  UNL     1      17.032  17.384   2.095  1.00  0.00    -0.003 C 
HETATM   14  C1  UNL     1      18.139  17.613   3.094  1.00  0.00     0.005 C 
ENDBRANCH  12  13
ENDBRANCH  11  12
ENDBRANCH   8  11
ENDBRANCH   5   7
BRANCH   6  15
HETATM   15  C29 UNL     1      12.941  21.517   6.605  1.00  0.00     0.197 C 
HETATM   16  O7  UNL     1      13.676  21.654   7.600  1.00  0.00    -0.646 OA
HETATM   17  O8  UNL     1      11.580  21.230   6.750  1.00  0.00    -0.646 OA
ENDBRANCH   6  15
ENDBRANCH   2   3
BRANCH   2  18
HETATM   18  O2  UNL     1      13.842  25.262   4.421  1.00  0.00    -0.348 OA
ATOM     19  H2  UNL     1      13.901  26.008   5.007  1.00  0.00     0.219 HD
ENDBRANCH   2  18
ENDBRANCH   1   2
BRANCH   1  20
HETATM   20  C10 UNL     1      12.026  25.647   6.408  1.00  0.00     0.034 C 
BRANCH  20  21
HETATM   21  C11 UNL     1      10.959  25.513   7.442  1.00  0.00     0.004 C 
BRANCH  21  22
HETATM   22  C12 UNL     1      11.405  26.155   8.729  1.00  0.00     0.027 C 
BRANCH  22  23
HETATM   23  C13 UNL     1      10.194  26.726   9.432  1.00  0.00     0.229 C 
BRANCH  23  24
HETATM   24  N3  UNL     1      10.126  28.158   9.152  1.00  0.00    -0.079 N 
ATOM     25  H33 UNL     1      10.082  28.722  10.001  1.00  0.00     0.274 HD
ATOM     26  H32 UNL     1      11.004  28.527   8.785  1.00  0.00     0.274 HD
ATOM     27  H31 UNL     1       9.338  28.330   8.527  1.00  0.00     0.274 HD
ENDBRANCH  23  24
ENDBRANCH  22  23
ENDBRANCH  21  22
ENDBRANCH  20  21
ENDBRANCH   1  20
BRANCH   1  28
HETATM   28  N4  UNL     1      10.987  25.080   4.309  1.00  0.00    -0.325 N 
HETATM   29  C14 UNL     1      10.088  24.350   3.496  1.00  0.00     0.362 C 
HETATM   30  O3  UNL     1       9.990  23.111   3.659  1.00  0.00    -0.238 OA
ATOM     31  H4  UNL     1      11.032  26.089   4.167  1.00  0.00     0.165 HD
BRANCH  29  32
HETATM   32  O4  UNL     1       9.324  24.972   2.545  1.00  0.00    -0.288 OA
BRANCH  32  33
HETATM   33  C15 UNL     1       7.853  24.663   2.576  1.00  0.00     0.234 C 
BRANCH  33  34
HETATM   34  C16 UNL     1       7.404  25.223   3.863  1.00  0.00     0.050 C 
BRANCH  34  35
HETATM   35  C17 UNL     1       6.821  26.538   4.069  1.00  0.00     0.012 C 
HETATM   36  C18 UNL     1       7.717  27.709   4.258  1.00  0.00     0.008 C 
HETATM   37  C19 UNL     1       8.589  27.676   5.468  1.00  0.00     0.020 C 
HETATM   38  C20 UNL     1       7.732  27.177   6.610  1.00  0.00     0.126 C 
HETATM   39  N5  UNL     1       6.294  27.298   6.296  1.00  0.00    -0.350 N 
HETATM   40  C21 UNL     1       5.605  28.207   7.120  1.00  0.00     0.184 C 
HETATM   41  C22 UNL     1       5.801  26.489   5.247  1.00  0.00     0.098 C 
HETATM   42  N6  UNL     1       5.344  27.869   8.327  1.00  0.00    -0.374 N 
HETATM   43  N7  UNL     1       5.208  29.465   6.657  1.00  0.00    -0.064 NA
ATOM     44  H62 UNL     1       5.634  26.952   8.665  1.00  0.00     0.158 HD
ATOM     45  H61 UNL     1       4.844  28.528   8.924  1.00  0.00     0.158 HD
BRANCH  41  46
HETATM   46  C23 UNL     1       4.398  26.613   4.834  1.00  0.00    -0.030 C 
HETATM   47  C24 UNL     1       4.171  25.702   3.607  1.00  0.00     0.016 C 
HETATM   48  C25 UNL     1       3.442  26.013   5.883  1.00  0.00     0.016 C 
HETATM   49  C26 UNL     1       3.874  27.943   4.441  1.00  0.00     0.016 C 
ENDBRANCH  41  46
ENDBRANCH  34  35
ENDBRANCH  33  34
BRANCH  33  50
HETATM   50  C27 UNL     1       7.417  25.488   1.395  1.00  0.00     0.203 C 
HETATM   51  O5  UNL     1       6.292  25.416   0.851  1.00  0.00    -0.646 OA
HETATM   52  O6  UNL     1       8.352  26.398   0.883  1.00  0.00    -0.646 OA
ENDBRANCH  33  50
ENDBRANCH  32  33
ENDBRANCH  29  32
ENDBRANCH   1  28
TORSDOF 20
ENDMDL
MODEL 5
REMARK VINA RESULT: -8.165362702      3.288      5.702
REMARK  20 active torsions:
REMARK  status: ('A' for Active; 'I' for Inactive)
REMARK    1  A    between atoms: C2_2  and  C3_3 
REMARK    2  A    between atoms: C3_3  and  C4_4 
REMARK    3  A    between atoms: C4_4  and  N1_5 
REMARK       I    between atoms: N1_5  and  C5_7 
REMARK    4  A    between atoms: C5_7  and  C6_9 
REMARK    5  A    between atoms: N2_11  and  C8_12 
REMARK    6  A    between atoms: C8_12  and  O2_13 
REMARK    7  A    between atoms: C8_12  and  C9_15 
REMARK    8  A    between atoms: C9_15  and  C10_16 
REMARK    9  A    between atoms: C9_15  and  N4_24 
REMARK   10  A    between atoms: C10_16  and  C11_17 
REMARK   11  A    between atoms: C11_17  and  C12_18 
REMARK   12  A    between atoms: C12_18  and  C13_19 
REMARK   13  A    between atoms: C13_19  and  N3_20 
REMARK       I    between atoms: N4_24  and  C14_26 
REMARK   14  A    between atoms: C14_26  and  O4_28 
REMARK   15  A    between atoms: O4_28  and  C15_29 
REMARK   16  A    between atoms: C15_29  and  C16_30 
REMARK   17  A    between atoms: C15_29  and  C27_46 
REMARK   18  A    between atoms: C16_30  and  C17_31 
REMARK       I    between atoms: N5_35  and  C21_36 
REMARK   19  A    between atoms: C22_41  and  C23_42 
REMARK   20  A    between atoms: C28_49  and  C29_50 
ROOT
HETATM    1  C9  UNL     1      17.486  20.113   7.074  1.00  0.00     0.161 C 
ENDROOT
BRANCH   1   2
HETATM    2  C8  UNL     1      18.370  19.544   6.067  1.00  0.00     0.138 C 
BRANCH   2   3
HETATM    3  N2  UNL     1      18.585  18.185   5.741  1.00  0.00    -0.347 N 
HETATM    4  C7  UNL     1      18.768  16.933   6.418  1.00  0.00     0.142 C 
HETATM    5  C6  UNL     1      18.628  16.196   5.118  1.00  0.00     0.129 C 
HETATM    6  C28 UNL     1      18.792  17.531   4.476  1.00  0.00     0.201 C 
BRANCH   5   7
HETATM    7  C5  UNL     1      19.738  15.226   4.852  1.00  0.00     0.226 C 
HETATM    8  N1  UNL     1      21.026  15.672   4.478  1.00  0.00    -0.361 N 
ATOM      9  H1  UNL     1      21.197  16.675   4.401  1.00  0.00     0.162 HD
HETATM   10  O1  UNL     1      19.501  14.021   4.965  1.00  0.00    -0.273 OA
BRANCH   8  11
HETATM   11  C4  UNL     1      22.101  14.761   4.201  1.00  0.00     0.122 C 
BRANCH  11  12
HETATM   12  C3  UNL     1      23.239  15.489   3.553  1.00  0.00     0.019 C 
BRANCH  12  13
HETATM   13  C2  UNL     1      24.425  15.398   4.500  1.00  0.00    -0.003 C 
HETATM   14  C1  UNL     1      25.018  16.753   4.798  1.00  0.00     0.005 C 
ENDBRANCH  12  13
ENDBRANCH  11  12
ENDBRANCH   8  11
ENDBRANCH   5   7
BRANCH   6  15
HETATM   15  C29 UNL     1      17.780  17.808   3.410  1.00  0.00     0.197 C 
HETATM   16  O7  UNL     1      16.640  17.310   3.426  1.00  0.00    -0.646 OA
HETATM   17  O8  UNL     1      18.175  18.667   2.380  1.00  0.00    -0.646 OA
ENDBRANCH   6  15
ENDBRANCH   2   3
BRANCH   2  18
HETATM   18  O2  UNL     1      19.044  20.436   5.394  1.00  0.00    -0.348 OA
ATOM     19  H2  UNL     1      19.365  21.192   5.871  1.00  0.00     0.219 HD
ENDBRANCH   2  18
ENDBRANCH   1   2
BRANCH   1  20
HETATM   20  C10 UNL     1      18.425  20.925   8.051  1.00  0.00     0.034 C 
BRANCH  20  21
HETATM   21  C11 UNL     1      18.226  20.436   9.446  1.00  0.00     0.004 C 
BRANCH  21  22
HETATM   22  C12 UNL     1      18.412  18.943   9.500  1.00  0.00     0.027 C 
BRANCH  22  23
HETATM   23  C13 UNL     1      17.389  18.359  10.450  1.00  0.00     0.229 C 
BRANCH  23  24
HETATM   24  N3  UNL     1      16.056  18.725   9.979  1.00  0.00    -0.079 N 
ATOM     25  H33 UNL     1      15.628  19.457  10.545  1.00  0.00     0.274 HD
ATOM     26  H32 UNL     1      16.079  19.229   9.092  1.00  0.00     0.274 HD
ATOM     27  H31 UNL     1      15.485  17.881   9.935  1.00  0.00     0.274 HD
ENDBRANCH  23  24
ENDBRANCH  22  23
ENDBRANCH  21  22
ENDBRANCH  20  21
ENDBRANCH   1  20
BRANCH   1  28
HETATM   28  N4  UNL     1      16.552  21.084   6.542  1.00  0.00    -0.325 N 
HETATM   29  C14 UNL     1      15.341  21.478   7.158  1.00  0.00     0.362 C 
HETATM   30  O3  UNL     1      15.032  20.978   8.265  1.00  0.00    -0.238 OA
ATOM     31  H4  UNL     1      16.787  21.520   5.651  1.00  0.00     0.165 HD
BRANCH  29  32
HETATM   32  O4  UNL     1      14.509  22.392   6.571  1.00  0.00    -0.288 OA
BRANCH  32  33
HETATM   33  C15 UNL     1      13.483  21.835   5.623  1.00  0.00     0.234 C 
BRANCH  33  34
HETATM   34  C16 UNL     1      12.284  22.649   5.886  1.00  0.00     0.050 C 
BRANCH  34  35
HETATM   35  C17 UNL     1      11.962  23.926   5.271  1.00  0.00     0.012 C 
HETATM   36  C18 UNL     1      12.528  25.174   5.847  1.00  0.00     0.008 C 
HETATM   37  C19 UNL     1      12.107  25.501   7.239  1.00  0.00     0.020 C 
HETATM   38  C20 UNL     1      10.621  25.229   7.321  1.00  0.00     0.126 C 
HETATM   39  N5  UNL     1      10.012  25.158   5.978  1.00  0.00    -0.350 N 
HETATM   40  C21 UNL     1       9.084  26.183   5.717  1.00  0.00     0.184 C 
HETATM   41  C22 UNL     1      10.415  24.084   5.151  1.00  0.00     0.098 C 
HETATM   42  N6  UNL     1       7.932  26.127   6.275  1.00  0.00    -0.374 N 
HETATM   43  N7  UNL     1       9.390  27.257   4.877  1.00  0.00    -0.064 NA
ATOM     44  H62 UNL     1       7.710  25.344   6.889  1.00  0.00     0.158 HD
ATOM     45  H61 UNL     1       7.259  26.870   6.087  1.00  0.00     0.158 HD
BRANCH  41  46
HETATM   46  C23 UNL     1       9.906  23.995   3.777  1.00  0.00    -0.030 C 
HETATM   47  C24 UNL     1      10.216  22.582   3.235  1.00  0.00     0.016 C 
HETATM   48  C25 UNL     1       8.366  24.042   3.740  1.00  0.00     0.016 C 
HETATM   49  C26 UNL     1      10.421  24.934   2.753  1.00  0.00     0.016 C 
ENDBRANCH  41  46
ENDBRANCH  34  35
ENDBRANCH  33  34
BRANCH  33  50
HETATM   50  C27 UNL     1      14.154  22.186   4.322  1.00  0.00     0.203 C 
HETATM   51  O5  UNL     1      13.842  21.708   3.207  1.00  0.00    -0.646 OA
HETATM   52  O6  UNL     1      15.200  23.116   4.384  1.00  0.00    -0.646 OA
ENDBRANCH  33  50
ENDBRANCH  32  33
ENDBRANCH  29  32
ENDBRANCH   1  28
TORSDOF 20
ENDMDL
