MODEL 1
REMARK VINA RESULT: -3.801000810      0.000      0.000
REMARK  3 active torsions:
REMARK  status: ('A' for Active; 'I' for Inactive)
REMARK    1  A    between atoms: C4_5  and  N1_6 
REMARK       I    between atoms: N1_6  and  C5_8 
REMARK    2  A    between atoms: C6_15  and  C7_16 
REMARK    3  A    between atoms: N5_17  and  O1_19 
ROOT
HETATM    1  C1  UNL     1      27.093  27.497  15.741  1.00  0.00     0.018 C 
HETATM    2  C2  UNL     1      28.250  27.434  16.083  1.00  0.00    -0.068 C 
HETATM    3  C3  UNL     1      29.640  27.344  16.514  1.00  0.00     0.089 A 
HETATM    4  S1  UNL     1      30.758  28.604  16.761  1.00  0.00    -0.043 SA
HETATM    5  C4  UNL     1      32.091  27.661  17.239  1.00  0.00     0.152 A 
HETATM    6  N4  UNL     1      31.616  26.411  17.188  1.00  0.00    -0.334 N 
ATOM      7  H4  UNL     1      32.213  25.620  17.431  1.00  0.00     0.168 HD
HETATM    8  C6  UNL     1      30.378  26.221  16.824  1.00  0.00     0.077 A 
ENDROOT
BRANCH   8   9
HETATM    9  C7  UNL     1      29.735  24.889  16.728  1.00  0.00     0.145 C 
HETATM   10  N5  UNL     1      29.772  23.945  17.557  1.00  0.00    -0.276 N 
ATOM     11  H5  UNL     1      29.260  23.100  17.306  1.00  0.00     0.193 HD
BRANCH  10  12
HETATM   12  O1  UNL     1      30.406  23.928  18.730  1.00  0.00    -0.286 OA
HETATM   13  C8  UNL     1      31.803  23.725  18.880  1.00  0.00     0.237 C 
ENDBRANCH  10  12
ENDBRANCH   8   9
BRANCH   5  14
HETATM   14  N1  UNL     1      33.304  28.043  17.580  1.00  0.00    -0.311 N 
HETATM   15  C5  UNL     1      34.006  27.167  18.444  1.00  0.00     0.187 C 
HETATM   16  N2  UNL     1      34.998  26.453  18.046  1.00  0.00    -0.373 N 
HETATM   17  N3  UNL     1      33.586  27.085  19.795  1.00  0.00    -0.064 NA
ATOM     18  H22 UNL     1      35.300  26.513  17.074  1.00  0.00     0.158 HD
ATOM     19  H21 UNL     1      35.505  25.822  18.668  1.00  0.00     0.158 HD
ATOM     20  H1  UNL     1      33.712  28.915  17.244  1.00  0.00     0.170 HD
ENDBRANCH   5  14
TORSDOF 3
ENDMDL
MODEL 2
REMARK VINA RESULT: -3.738105806      9.388     10.328
REMARK  3 active torsions:
REMARK  status: ('A' for Active; 'I' for Inactive)
REMARK    1  A    between atoms: C4_5  and  N1_6 
REMARK       I    between atoms: N1_6  and  C5_8 
REMARK    2  A    between atoms: C6_15  and  C7_16 
REMARK    3  A    between atoms: N5_17  and  O1_19 
ROOT
HETATM    1  C1  UNL     1      31.705  33.218  22.412  1.00  0.00     0.018 C 
HETATM    2  C2  UNL     1      30.510  33.080  22.519  1.00  0.00    -0.068 C 
HETATM    3  C3  UNL     1      29.069  32.890  22.639  1.00  0.00     0.089 A 
HETATM    4  S1  UNL     1      27.816  33.917  22.114  1.00  0.00    -0.043 SA
HETATM    5  C4  UNL     1      26.495  32.975  22.627  1.00  0.00     0.152 A 
HETATM    6  N4  UNL     1      27.077  31.906  23.182  1.00  0.00    -0.334 N 
ATOM      7  H4  UNL     1      26.511  31.158  23.582  1.00  0.00     0.168 HD
HETATM    8  C6  UNL     1      28.379  31.837  23.202  1.00  0.00     0.077 A 
ENDROOT
BRANCH   8   9
HETATM    9  C7  UNL     1      29.142  30.707  23.786  1.00  0.00     0.145 C 
HETATM   10  N5  UNL     1      29.120  30.282  24.969  1.00  0.00    -0.276 N 
ATOM     11  H5  UNL     1      29.723  29.486  25.176  1.00  0.00     0.193 HD
BRANCH  10  12
HETATM   12  O1  UNL     1      28.394  30.756  25.982  1.00  0.00    -0.286 OA
HETATM   13  C8  UNL     1      27.001  30.538  26.138  1.00  0.00     0.237 C 
ENDBRANCH  10  12
ENDBRANCH   8   9
BRANCH   5  14
HETATM   14  N1  UNL     1      25.205  33.218  22.517  1.00  0.00    -0.311 N 
HETATM   15  C5  UNL     1      24.511  33.425  23.734  1.00  0.00     0.187 C 
HETATM   16  N2  UNL     1      24.081  34.581  24.096  1.00  0.00    -0.373 N 
HETATM   17  N3  UNL     1      24.289  32.306  24.574  1.00  0.00    -0.064 NA
ATOM     18  H22 UNL     1      24.240  35.387  23.490  1.00  0.00     0.158 HD
ATOM     19  H21 UNL     1      23.580  34.731  24.972  1.00  0.00     0.158 HD
ATOM     20  H1  UNL     1      24.736  33.254  21.612  1.00  0.00     0.170 HD
ENDBRANCH   5  14
TORSDOF 3
ENDMDL
MODEL 3
REMARK VINA RESULT: -3.383557326     10.333     11.455
REMARK  3 active torsions:
REMARK  status: ('A' for Active; 'I' for Inactive)
REMARK    1  A    between atoms: C4_5  and  N1_6 
REMARK       I    between atoms: N1_6  and  C5_8 
REMARK    2  A    between atoms: C6_15  and  C7_16 
REMARK    3  A    between atoms: N5_17  and  O1_19 
ROOT
HETATM    1  C1  UNL     1      30.796  30.960  22.982  1.00  0.00     0.018 C 
HETATM    2  C2  UNL     1      29.709  31.360  23.328  1.00  0.00    -0.068 C 
HETATM    3  C3  UNL     1      28.407  31.847  23.768  1.00  0.00     0.089 A 
HETATM    4  S1  UNL     1      26.880  31.119  23.572  1.00  0.00    -0.043 SA
HETATM    5  C4  UNL     1      25.941  32.305  24.349  1.00  0.00     0.152 A 
HETATM    6  N4  UNL     1      26.845  33.214  24.728  1.00  0.00    -0.334 N 
ATOM      7  H4  UNL     1      26.557  34.055  25.229  1.00  0.00     0.168 HD
HETATM    8  C6  UNL     1      28.102  33.008  24.446  1.00  0.00     0.077 A 
ENDROOT
BRANCH   8   9
HETATM    9  C7  UNL     1      29.199  33.938  24.811  1.00  0.00     0.145 C 
HETATM   10  N5  UNL     1      29.851  33.989  25.884  1.00  0.00    -0.276 N 
ATOM     11  H5  UNL     1      30.573  34.707  25.942  1.00  0.00     0.193 HD
BRANCH  10  12
HETATM   12  O1  UNL     1      29.703  33.209  26.955  1.00  0.00    -0.286 OA
HETATM   13  C8  UNL     1      30.754  32.866  27.845  1.00  0.00     0.237 C 
ENDBRANCH  10  12
ENDBRANCH   8   9
BRANCH   5  14
HETATM   14  N1  UNL     1      24.638  32.342  24.543  1.00  0.00    -0.311 N 
HETATM   15  C5  UNL     1      23.967  33.467  24.004  1.00  0.00     0.187 C 
HETATM   16  N2  UNL     1      23.201  33.388  22.975  1.00  0.00    -0.373 N 
HETATM   17  N3  UNL     1      24.157  34.723  24.635  1.00  0.00    -0.064 NA
ATOM     18  H22 UNL     1      23.064  32.484  22.521  1.00  0.00     0.158 HD
ATOM     19  H21 UNL     1      22.717  34.198  22.587  1.00  0.00     0.158 HD
ATOM     20  H1  UNL     1      24.144  31.607  25.049  1.00  0.00     0.170 HD
ENDBRANCH   5  14
TORSDOF 3
ENDMDL
MODEL 4
REMARK VINA RESULT: -3.343348087     10.039     11.194
REMARK  3 active torsions:
REMARK  status: ('A' for Active; 'I' for Inactive)
REMARK    1  A    between atoms: C4_5  and  N1_6 
REMARK       I    between atoms: N1_6  and  C5_8 
REMARK    2  A    between atoms: C6_15  and  C7_16 
REMARK    3  A    between atoms: N5_17  and  O1_19 
ROOT
HETATM    1  C1  UNL     1      31.668  33.245  22.285  1.00  0.00     0.018 C 
HETATM    2  C2  UNL     1      30.508  33.109  22.593  1.00  0.00    -0.068 C 
HETATM    3  C3  UNL     1      29.114  32.941  22.988  1.00  0.00     0.089 A 
HETATM    4  S1  UNL     1      27.920  31.957  22.277  1.00  0.00    -0.043 SA
HETATM    5  C4  UNL     1      26.632  32.342  23.318  1.00  0.00     0.152 A 
HETATM    6  N4  UNL     1      27.177  33.214  24.173  1.00  0.00    -0.334 N 
ATOM      7  H4  UNL     1      26.620  33.620  24.924  1.00  0.00     0.168 HD
HETATM    8  C6  UNL     1      28.433  33.536  24.029  1.00  0.00     0.077 A 
ENDROOT
BRANCH   8   9
HETATM    9  C7  UNL     1      29.152  34.489  24.908  1.00  0.00     0.145 C 
HETATM   10  N5  UNL     1      29.638  34.281  26.048  1.00  0.00    -0.276 N 
ATOM     11  H5  UNL     1      30.100  35.073  26.496  1.00  0.00     0.193 HD
BRANCH  10  12
HETATM   12  O1  UNL     1      29.617  33.139  26.737  1.00  0.00    -0.286 OA
HETATM   13  C8  UNL     1      30.550  32.801  27.752  1.00  0.00     0.237 C 
ENDBRANCH  10  12
ENDBRANCH   8   9
BRANCH   5  14
HETATM   14  N1  UNL     1      25.390  31.901  23.307  1.00  0.00    -0.311 N 
HETATM   15  C5  UNL     1      24.450  32.690  24.015  1.00  0.00     0.187 C 
HETATM   16  N2  UNL     1      23.561  33.405  23.422  1.00  0.00    -0.373 N 
HETATM   17  N3  UNL     1      24.504  32.680  25.431  1.00  0.00    -0.064 NA
ATOM     18  H22 UNL     1      23.523  33.411  22.402  1.00  0.00     0.158 HD
ATOM     19  H21 UNL     1      22.884  33.972  23.931  1.00  0.00     0.158 HD
ATOM     20  H1  UNL     1      25.123  31.046  22.819  1.00  0.00     0.170 HD
ENDBRANCH   5  14
TORSDOF 3
ENDMDL
MODEL 5
REMARK VINA RESULT: -3.204346925     10.444     11.541
REMARK  3 active torsions:
REMARK  status: ('A' for Active; 'I' for Inactive)
REMARK    1  A    between atoms: C4_5  and  N1_6 
REMARK       I    between atoms: N1_6  and  C5_8 
REMARK    2  A    between atoms: C6_15  and  C7_16 
REMARK    3  A    between atoms: N5_17  and  O1_19 
ROOT
HETATM    1  C1  UNL     1      30.026  29.202  24.479  1.00  0.00     0.018 C 
HETATM    2  C2  UNL     1      29.061  29.915  24.621  1.00  0.00    -0.068 C 
HETATM    3  C3  UNL     1      27.899  30.774  24.818  1.00  0.00     0.089 A 
HETATM    4  S1  UNL     1      26.335  30.610  24.163  1.00  0.00    -0.043 SA
HETATM    5  C4  UNL     1      25.626  31.983  24.875  1.00  0.00     0.152 A 
HETATM    6  N4  UNL     1      26.626  32.510  25.589  1.00  0.00    -0.334 N 
ATOM      7  H4  UNL     1      26.482  33.361  26.134  1.00  0.00     0.168 HD
HETATM    8  C6  UNL     1      27.789  31.919  25.578  1.00  0.00     0.077 A 
ENDROOT
BRANCH   8   9
HETATM    9  C7  UNL     1      28.975  32.402  26.326  1.00  0.00     0.145 C 
HETATM   10  N5  UNL     1      29.513  33.537  26.281  1.00  0.00    -0.276 N 
ATOM     11  H5  UNL     1      30.329  33.676  26.877  1.00  0.00     0.193 HD
BRANCH  10  12
HETATM   12  O1  UNL     1      29.136  34.579  25.540  1.00  0.00    -0.286 OA
HETATM   13  C8  UNL     1      28.947  34.534  24.134  1.00  0.00     0.237 C 
ENDBRANCH  10  12
ENDBRANCH   8   9
BRANCH   5  14
HETATM   14  N1  UNL     1      24.395  32.437  24.765  1.00  0.00    -0.311 N 
HETATM   15  C5  UNL     1      24.200  33.465  23.811  1.00  0.00     0.187 C 
HETATM   16  N2  UNL     1      23.581  33.270  22.701  1.00  0.00    -0.373 N 
HETATM   17  N3  UNL     1      24.712  34.754  24.105  1.00  0.00    -0.064 NA
ATOM     18  H22 UNL     1      23.212  32.343  22.490  1.00  0.00     0.158 HD
ATOM     19  H21 UNL     1      23.440  34.011  22.014  1.00  0.00     0.158 HD
ATOM     20  H1  UNL     1      23.629  32.071  25.332  1.00  0.00     0.170 HD
ENDBRANCH   5  14
TORSDOF 3
ENDMDL
