MODEL 1
REMARK VINA RESULT: -4.457249271      0.000      0.000
REMARK  3 active torsions:
REMARK  status: ('A' for Active; 'I' for Inactive)
REMARK    1  A    between atoms: N1_2  and  C2_4 
REMARK    2  A    between atoms: N4_11  and  C5_13 
REMARK    3  A    between atoms: C5_13  and  C6_14 
ROOT
HETATM    1  C6  UNL     1      29.882  33.069  22.683  1.00  0.00     0.106 C 
HETATM    2  C7  UNL     1      31.349  33.239  22.373  1.00  0.00     0.027 C 
HETATM    3  C8  UNL     1      29.591  33.730  23.957  1.00  0.00     0.065 C 
HETATM    4  N5  UNL     1      29.376  34.253  24.959  1.00  0.00    -0.197 NA
ENDROOT
BRANCH   1   5
HETATM    5  C5  UNL     1      29.639  31.557  22.822  1.00  0.00     0.140 C 
BRANCH   5   6
HETATM    6  N4  UNL     1      28.876  31.353  23.979  1.00  0.00    -0.373 N 
HETATM    7  C4  UNL     1      27.721  31.565  24.356  1.00  0.00     0.133 A 
HETATM    8  C3  UNL     1      26.745  32.155  23.592  1.00  0.00     0.122 A 
HETATM    9  N6  UNL     1      27.366  31.191  25.629  1.00  0.00    -0.337 N 
HETATM   10  N3  UNL     1      26.740  32.640  22.317  1.00  0.00    -0.293 N 
HETATM   11  C10 UNL     1      25.471  32.368  24.061  1.00  0.00     0.111 A 
HETATM   12  N2  UNL     1      25.537  33.121  22.022  1.00  0.00    -0.283 N 
ATOM     13  H3  UNL     1      27.540  32.635  21.684  1.00  0.00     0.187 HD
HETATM   14  C2  UNL     1      24.739  32.967  23.074  1.00  0.00     0.145 A 
ATOM     15  H2  UNL     1      25.268  33.541  21.132  1.00  0.00     0.188 HD
HETATM   16  N7  UNL     1      25.192  31.973  25.329  1.00  0.00    -0.347 N 
HETATM   17  C9  UNL     1      26.129  31.393  26.097  1.00  0.00     0.182 A 
ATOM     18  H7  UNL     1      24.254  32.119  25.705  1.00  0.00     0.167 HD
ATOM     19  H6  UNL     1      28.061  30.750  26.232  1.00  0.00     0.168 HD
ATOM     20  H4  UNL     1      29.428  30.906  24.711  1.00  0.00     0.161 HD
BRANCH  14  21
HETATM   21  N1  UNL     1      23.497  33.289  23.230  1.00  0.00    -0.378 N 
HETATM   22  C1  UNL     1      23.062  34.358  24.104  1.00  0.00     0.148 C 
ATOM     23  H1  UNL     1      22.790  32.766  22.714  1.00  0.00     0.160 HD
ENDBRANCH  14  21
ENDBRANCH   5   6
ENDBRANCH   1   5
TORSDOF 3
ENDMDL
MODEL 2
REMARK VINA RESULT: -4.438708187      0.858      1.218
REMARK  3 active torsions:
REMARK  status: ('A' for Active; 'I' for Inactive)
REMARK    1  A    between atoms: N1_2  and  C2_4 
REMARK    2  A    between atoms: N4_11  and  C5_13 
REMARK    3  A    between atoms: C5_13  and  C6_14 
ROOT
HETATM    1  C6  UNL     1      30.154  32.868  22.822  1.00  0.00     0.106 C 
HETATM    2  C7  UNL     1      29.934  33.429  24.206  1.00  0.00     0.027 C 
HETATM    3  C8  UNL     1      29.337  33.626  21.872  1.00  0.00     0.065 C 
HETATM    4  N5  UNL     1      28.689  34.230  21.137  1.00  0.00    -0.197 NA
ENDROOT
BRANCH   1   5
HETATM    5  C5  UNL     1      29.672  31.409  22.862  1.00  0.00     0.140 C 
BRANCH   5   6
HETATM    6  N4  UNL     1      28.919  31.240  24.032  1.00  0.00    -0.373 N 
HETATM    7  C4  UNL     1      27.770  31.474  24.415  1.00  0.00     0.133 A 
HETATM    8  C3  UNL     1      26.793  32.056  23.647  1.00  0.00     0.122 A 
HETATM    9  N6  UNL     1      27.424  31.135  25.700  1.00  0.00    -0.337 N 
HETATM   10  N3  UNL     1      26.780  32.511  22.360  1.00  0.00    -0.293 N 
HETATM   11  C10 UNL     1      25.526  32.294  24.123  1.00  0.00     0.111 A 
HETATM   12  N2  UNL     1      25.579  32.998  22.066  1.00  0.00    -0.283 N 
ATOM     13  H3  UNL     1      27.574  32.482  21.720  1.00  0.00     0.187 HD
HETATM   14  C2  UNL     1      24.790  32.878  23.130  1.00  0.00     0.145 A 
ATOM     15  H2  UNL     1      25.306  33.399  21.170  1.00  0.00     0.188 HD
HETATM   16  N7  UNL     1      25.256  31.933  25.403  1.00  0.00    -0.347 N 
HETATM   17  C9  UNL     1      26.194  31.361  26.176  1.00  0.00     0.182 A 
ATOM     18  H7  UNL     1      24.324  32.098  25.785  1.00  0.00     0.167 HD
ATOM     19  H6  UNL     1      28.121  30.700  26.306  1.00  0.00     0.168 HD
ATOM     20  H4  UNL     1      29.473  30.805  24.769  1.00  0.00     0.161 HD
BRANCH  14  21
HETATM   21  N1  UNL     1      23.554  33.217  23.291  1.00  0.00    -0.378 N 
HETATM   22  C1  UNL     1      23.140  34.318  24.134  1.00  0.00     0.148 C 
ATOM     23  H1  UNL     1      22.835  32.684  22.801  1.00  0.00     0.160 HD
ENDBRANCH  14  21
ENDBRANCH   5   6
ENDBRANCH   1   5
TORSDOF 3
ENDMDL
MODEL 3
REMARK VINA RESULT: -3.728572026      9.129     11.141
REMARK  3 active torsions:
REMARK  status: ('A' for Active; 'I' for Inactive)
REMARK    1  A    between atoms: N1_2  and  C2_4 
REMARK    2  A    between atoms: N4_11  and  C5_13 
REMARK    3  A    between atoms: C5_13  and  C6_14 
ROOT
HETATM    1  C6  UNL     1      27.479  28.662  15.821  1.00  0.00     0.106 C 
HETATM    2  C7  UNL     1      26.348  27.809  15.300  1.00  0.00     0.027 C 
HETATM    3  C8  UNL     1      27.233  30.054  15.438  1.00  0.00     0.065 C 
HETATM    4  N5  UNL     1      27.028  31.144  15.130  1.00  0.00    -0.197 NA
ENDROOT
BRANCH   1   5
HETATM    5  C5  UNL     1      28.758  28.158  15.132  1.00  0.00     0.140 C 
BRANCH   5   6
HETATM    6  N4  UNL     1      28.882  26.791  15.412  1.00  0.00    -0.373 N 
HETATM    7  C4  UNL     1      29.684  26.050  15.986  1.00  0.00     0.133 A 
HETATM    8  C3  UNL     1      30.844  26.468  16.588  1.00  0.00     0.122 A 
HETATM    9  N6  UNL     1      29.414  24.703  16.037  1.00  0.00    -0.337 N 
HETATM   10  N3  UNL     1      31.417  27.699  16.729  1.00  0.00    -0.293 N 
HETATM   11  C10 UNL     1      31.704  25.599  17.215  1.00  0.00     0.111 A 
HETATM   12  N2  UNL     1      32.558  27.590  17.401  1.00  0.00    -0.283 N 
ATOM     13  H3  UNL     1      31.028  28.571  16.371  1.00  0.00     0.187 HD
HETATM   14  C2  UNL     1      32.758  26.313  17.712  1.00  0.00     0.145 A 
ATOM     15  H2  UNL     1      33.180  28.362  17.641  1.00  0.00     0.188 HD
HETATM   16  N7  UNL     1      31.373  24.283  17.226  1.00  0.00    -0.347 N 
HETATM   17  C9  UNL     1      30.243  23.847  16.644  1.00  0.00     0.182 A 
ATOM     18  H7  UNL     1      31.992  23.614  17.683  1.00  0.00     0.167 HD
ATOM     19  H6  UNL     1      28.562  24.349  15.601  1.00  0.00     0.168 HD
ATOM     20  H4  UNL     1      28.093  26.264  15.039  1.00  0.00     0.161 HD
BRANCH  14  21
HETATM   21  N1  UNL     1      33.731  25.756  18.356  1.00  0.00    -0.378 N 
HETATM   22  C1  UNL     1      34.930  25.269  17.709  1.00  0.00     0.148 C 
ATOM     23  H1  UNL     1      33.650  25.656  19.368  1.00  0.00     0.160 HD
ENDBRANCH  14  21
ENDBRANCH   5   6
ENDBRANCH   1   5
TORSDOF 3
ENDMDL
MODEL 4
REMARK VINA RESULT: -3.598194776      0.951      1.656
REMARK  3 active torsions:
REMARK  status: ('A' for Active; 'I' for Inactive)
REMARK    1  A    between atoms: N1_2  and  C2_4 
REMARK    2  A    between atoms: N4_11  and  C5_13 
REMARK    3  A    between atoms: C5_13  and  C6_14 
ROOT
HETATM    1  C6  UNL     1      30.287  32.767  23.043  1.00  0.00     0.106 C 
HETATM    2  C7  UNL     1      29.539  33.376  21.883  1.00  0.00     0.027 C 
HETATM    3  C8  UNL     1      29.840  31.383  23.217  1.00  0.00     0.065 C 
HETATM    4  N5  UNL     1      29.480  30.297  23.343  1.00  0.00    -0.197 NA
ENDROOT
BRANCH   1   5
HETATM    5  C5  UNL     1      29.908  33.588  24.286  1.00  0.00     0.140 C 
BRANCH   5   6
HETATM    6  N4  UNL     1      29.070  32.796  25.081  1.00  0.00    -0.373 N 
HETATM    7  C4  UNL     1      27.868  32.532  25.154  1.00  0.00     0.133 A 
HETATM    8  C3  UNL     1      26.902  33.048  24.327  1.00  0.00     0.122 A 
HETATM    9  N6  UNL     1      27.443  31.662  26.129  1.00  0.00    -0.337 N 
HETATM   10  N3  UNL     1      26.957  33.918  23.276  1.00  0.00    -0.293 N 
HETATM   11  C10 UNL     1      25.573  32.722  24.451  1.00  0.00     0.111 A 
HETATM   12  N2  UNL     1      25.737  34.112  22.788  1.00  0.00    -0.283 N 
ATOM     13  H3  UNL     1      27.808  34.354  22.920  1.00  0.00     0.187 HD
HETATM   14  C2  UNL     1      24.869  33.390  23.490  1.00  0.00     0.145 A 
ATOM     15  H2  UNL     1      25.504  34.718  22.001  1.00  0.00     0.188 HD
HETATM   16  N7  UNL     1      25.227  31.855  25.437  1.00  0.00    -0.347 N 
HETATM   17  C9  UNL     1      26.152  31.336  26.261  1.00  0.00     0.182 A 
ATOM     18  H7  UNL     1      24.247  31.594  25.554  1.00  0.00     0.167 HD
ATOM     19  H6  UNL     1      28.128  31.255  26.767  1.00  0.00     0.168 HD
ATOM     20  H4  UNL     1      29.602  32.299  25.797  1.00  0.00     0.161 HD
BRANCH  14  21
HETATM   21  N1  UNL     1      23.588  33.277  23.363  1.00  0.00    -0.378 N 
HETATM   22  C1  UNL     1      22.646  34.112  24.079  1.00  0.00     0.148 C 
ATOM     23  H1  UNL     1      23.222  32.566  22.730  1.00  0.00     0.160 HD
ENDBRANCH  14  21
ENDBRANCH   5   6
ENDBRANCH   1   5
TORSDOF 3
ENDMDL
MODEL 5
REMARK VINA RESULT: -3.219455788      1.667      4.862
REMARK  3 active torsions:
REMARK  status: ('A' for Active; 'I' for Inactive)
REMARK    1  A    between atoms: N1_2  and  C2_4 
REMARK    2  A    between atoms: N4_11  and  C5_13 
REMARK    3  A    between atoms: C5_13  and  C6_14 
ROOT
HETATM    1  C6  UNL     1      24.418  33.154  24.136  1.00  0.00     0.106 C 
HETATM    2  C7  UNL     1      24.882  34.561  23.848  1.00  0.00     0.027 C 
HETATM    3  C8  UNL     1      25.036  32.702  25.385  1.00  0.00     0.065 C 
HETATM    4  N5  UNL     1      25.528  32.360  26.368  1.00  0.00    -0.197 NA
ENDROOT
BRANCH   1   5
HETATM    5  C5  UNL     1      24.919  32.283  22.972  1.00  0.00     0.140 C 
BRANCH   5   6
HETATM    6  N4  UNL     1      25.864  31.386  23.487  1.00  0.00    -0.373 N 
HETATM    7  C4  UNL     1      27.093  31.282  23.525  1.00  0.00     0.133 A 
HETATM    8  C3  UNL     1      27.971  32.180  22.973  1.00  0.00     0.122 A 
HETATM    9  N6  UNL     1      27.642  30.195  24.162  1.00  0.00    -0.337 N 
HETATM   10  N3  UNL     1      27.788  33.344  22.283  1.00  0.00    -0.293 N 
HETATM   11  C10 UNL     1      29.334  32.018  23.043  1.00  0.00     0.111 A 
HETATM   12  N2  UNL     1      28.966  33.862  21.952  1.00  0.00    -0.283 N 
ATOM     13  H3  UNL     1      26.882  33.754  22.056  1.00  0.00     0.187 HD
HETATM   14  C2  UNL     1      29.932  33.068  22.406  1.00  0.00     0.145 A 
ATOM     15  H2  UNL     1      29.108  34.728  21.433  1.00  0.00     0.188 HD
HETATM   16  N7  UNL     1      29.805  30.920  23.688  1.00  0.00    -0.347 N 
HETATM   17  C9  UNL     1      28.967  30.025  24.237  1.00  0.00     0.182 A 
ATOM     18  H7  UNL     1      30.812  30.771  23.756  1.00  0.00     0.167 HD
ATOM     19  H6  UNL     1      27.025  29.502  24.586  1.00  0.00     0.168 HD
ATOM     20  H4  UNL     1      25.412  30.604  23.961  1.00  0.00     0.161 HD
BRANCH  14  21
HETATM   21  N1  UNL     1      31.215  33.183  22.312  1.00  0.00    -0.378 N 
HETATM   22  C1  UNL     1      31.863  34.049  21.350  1.00  0.00     0.148 C 
ATOM     23  H1  UNL     1      31.800  32.639  22.946  1.00  0.00     0.160 HD
ENDBRANCH  14  21
ENDBRANCH   5   6
ENDBRANCH   1   5
TORSDOF 3
ENDMDL
