MODEL 1
REMARK VINA RESULT: -3.457803129      0.000      0.000
REMARK  4 active torsions:
REMARK  status: ('A' for Active; 'I' for Inactive)
REMARK    1  A    between atoms: C2_2  and  N1_3 
REMARK    2  A    between atoms: N1_3  and  C3_5 
REMARK    3  A    between atoms: C4_8  and  N3_9 
REMARK    4  A    between atoms: N3_9  and  C5_11 
ROOT
HETATM    1  C5  UNL     1      26.363  29.448  25.120  1.00  0.00     0.245 C 
HETATM    2  C6  UNL     1      26.763  30.464  26.086  1.00  0.00     0.078 C 
HETATM    3  N4  UNL     1      27.063  31.272  26.863  1.00  0.00    -0.196 NA
ENDROOT
BRANCH   1   4
HETATM    4  N3  UNL     1      26.832  29.789  23.788  1.00  0.00    -0.363 N 
ATOM      5  H3  UNL     1      27.239  29.053  23.211  1.00  0.00     0.162 HD
BRANCH   4   6
HETATM    6  C4  UNL     1      26.758  30.976  23.304  1.00  0.00     0.130 A 
HETATM    7  N2  UNL     1      25.591  31.615  23.056  1.00  0.00    -0.176 N 
HETATM    8  C3  UNL     1      25.553  32.848  22.552  1.00  0.00     0.680 A 
ATOM      9  H2  UNL     1      24.712  31.137  23.261  1.00  0.00     0.186 HD
HETATM   10  N6  UNL     1      26.693  33.484  22.280  1.00  0.00    -0.190 N 
HETATM   11  C11 UNL     1      27.913  32.918  22.498  1.00  0.00     0.078 A 
ATOM     12  H6  UNL     1      26.651  34.429  21.896  1.00  0.00     0.184 HD
HETATM   13  C7  UNL     1      27.934  31.638  23.020  1.00  0.00     0.038 A 
HETATM   14  C10 UNL     1      29.091  33.575  22.216  1.00  0.00     0.118 A 
HETATM   15  C8  UNL     1      29.185  31.085  23.232  1.00  0.00     0.034 A 
HETATM   16  C9  UNL     1      30.360  31.752  22.946  1.00  0.00     0.088 A 
HETATM   17  N5  UNL     1      30.300  33.001  22.436  1.00  0.00    -0.373 N 
ATOM     18  H5  UNL     1      31.157  33.509  22.219  1.00  0.00     0.164 HD
BRANCH   8  19
HETATM   19  N1  UNL     1      24.440  33.423  22.331  1.00  0.00    -0.226 N 
ATOM     20  H1  UNL     1      24.173  33.673  21.379  1.00  0.00     0.177 HD
BRANCH  19  21
HETATM   21  C2  UNL     1      23.556  33.719  23.436  1.00  0.00     0.133 C 
HETATM   22  C1  UNL     1      24.392  34.354  24.526  1.00  0.00     0.027 C 
ENDBRANCH  19  21
ENDBRANCH   8  19
ENDBRANCH   4   6
ENDBRANCH   1   4
TORSDOF 4
ENDMDL
MODEL 2
REMARK VINA RESULT: -2.725166913      1.375      3.328
REMARK  4 active torsions:
REMARK  status: ('A' for Active; 'I' for Inactive)
REMARK    1  A    between atoms: C2_2  and  N1_3 
REMARK    2  A    between atoms: N1_3  and  C3_5 
REMARK    3  A    between atoms: C4_8  and  N3_9 
REMARK    4  A    between atoms: N3_9  and  C5_11 
ROOT
HETATM    1  C5  UNL     1      29.422  33.709  22.450  1.00  0.00     0.245 C 
HETATM    2  C6  UNL     1      29.179  34.120  23.827  1.00  0.00     0.078 C 
HETATM    3  N4  UNL     1      29.005  34.449  24.927  1.00  0.00    -0.196 NA
ENDROOT
BRANCH   1   4
HETATM    4  N3  UNL     1      28.622  32.545  22.110  1.00  0.00    -0.363 N 
ATOM      5  H3  UNL     1      28.955  31.924  21.372  1.00  0.00     0.162 HD
BRANCH   4   6
HETATM    6  C4  UNL     1      27.515  32.262  22.696  1.00  0.00     0.130 A 
HETATM    7  N2  UNL     1      26.317  32.769  22.321  1.00  0.00    -0.176 N 
HETATM    8  C3  UNL     1      25.188  32.453  22.955  1.00  0.00     0.680 A 
ATOM      9  H2  UNL     1      26.276  33.412  21.530  1.00  0.00     0.186 HD
HETATM   10  N6  UNL     1      25.225  31.613  23.991  1.00  0.00    -0.190 N 
HETATM   11  C11 UNL     1      26.386  31.058  24.436  1.00  0.00     0.078 A 
ATOM     12  H6  UNL     1      24.353  31.379  24.467  1.00  0.00     0.184 HD
HETATM   13  C7  UNL     1      27.548  31.396  23.768  1.00  0.00     0.038 A 
HETATM   14  C10 UNL     1      26.425  30.190  25.507  1.00  0.00     0.118 A 
HETATM   15  C8  UNL     1      28.714  30.818  24.239  1.00  0.00     0.034 A 
HETATM   16  C9  UNL     1      28.743  29.951  25.313  1.00  0.00     0.088 A 
HETATM   17  N5  UNL     1      27.587  29.643  25.941  1.00  0.00    -0.373 N 
ATOM     18  H5  UNL     1      27.589  29.005  26.736  1.00  0.00     0.164 HD
BRANCH   8  19
HETATM   19  N1  UNL     1      24.076  32.944  22.580  1.00  0.00    -0.226 N 
ATOM     20  H1  UNL     1      23.738  32.782  21.631  1.00  0.00     0.177 HD
BRANCH  19  21
HETATM   21  C2  UNL     1      23.293  33.732  23.506  1.00  0.00     0.133 C 
HETATM   22  C1  UNL     1      24.257  34.594  24.292  1.00  0.00     0.027 C 
ENDBRANCH  19  21
ENDBRANCH   8  19
ENDBRANCH   4   6
ENDBRANCH   1   4
TORSDOF 4
ENDMDL
MODEL 3
REMARK VINA RESULT: -2.573860620      1.304      4.308
REMARK  4 active torsions:
REMARK  status: ('A' for Active; 'I' for Inactive)
REMARK    1  A    between atoms: C2_2  and  N1_3 
REMARK    2  A    between atoms: N1_3  and  C3_5 
REMARK    3  A    between atoms: C4_8  and  N3_9 
REMARK    4  A    between atoms: N3_9  and  C5_11 
ROOT
HETATM    1  C5  UNL     1      26.883  31.190  26.588  1.00  0.00     0.245 C 
HETATM    2  C6  UNL     1      26.417  30.239  25.586  1.00  0.00     0.078 C 
HETATM    3  N4  UNL     1      26.060  29.470  24.793  1.00  0.00    -0.196 NA
ENDROOT
BRANCH   1   4
HETATM    4  N3  UNL     1      26.951  32.532  26.035  1.00  0.00    -0.363 N 
ATOM      5  H3  UNL     1      26.720  33.320  26.639  1.00  0.00     0.162 HD
BRANCH   4   6
HETATM    6  C4  UNL     1      27.288  32.770  24.819  1.00  0.00     0.130 A 
HETATM    7  N2  UNL     1      28.572  32.846  24.397  1.00  0.00    -0.176 N 
HETATM    8  C3  UNL     1      28.884  33.095  23.126  1.00  0.00     0.680 A 
ATOM      9  H2  UNL     1      29.324  32.708  25.073  1.00  0.00     0.186 HD
HETATM   10  N6  UNL     1      27.912  33.278  22.231  1.00  0.00    -0.190 N 
HETATM   11  C11 UNL     1      26.593  33.219  22.567  1.00  0.00     0.078 A 
ATOM     12  H6  UNL     1      28.164  33.467  21.261  1.00  0.00     0.184 HD
HETATM   13  C7  UNL     1      26.287  32.960  23.891  1.00  0.00     0.038 A 
HETATM   14  C10 UNL     1      25.588  33.408  21.643  1.00  0.00     0.118 A 
HETATM   15  C8  UNL     1      24.941  32.906  24.206  1.00  0.00     0.034 A 
HETATM   16  C9  UNL     1      23.941  33.096  23.274  1.00  0.00     0.088 A 
HETATM   17  N5  UNL     1      24.278  33.348  21.990  1.00  0.00    -0.373 N 
ATOM     18  H5  UNL     1      23.554  33.492  21.287  1.00  0.00     0.164 HD
BRANCH   8  19
HETATM   19  N1  UNL     1      30.100  33.160  22.759  1.00  0.00    -0.226 N 
ATOM     20  H1  UNL     1      30.513  34.058  22.507  1.00  0.00     0.177 HD
BRANCH  19  21
HETATM   21  C2  UNL     1      30.895  31.953  22.701  1.00  0.00     0.133 C 
HETATM   22  C1  UNL     1      30.038  30.822  23.227  1.00  0.00     0.027 C 
ENDBRANCH  19  21
ENDBRANCH   8  19
ENDBRANCH   4   6
ENDBRANCH   1   4
TORSDOF 4
ENDMDL
MODEL 4
REMARK VINA RESULT: -2.488090473      1.382      1.885
REMARK  4 active torsions:
REMARK  status: ('A' for Active; 'I' for Inactive)
REMARK    1  A    between atoms: C2_2  and  N1_3 
REMARK    2  A    between atoms: N1_3  and  C3_5 
REMARK    3  A    between atoms: C4_8  and  N3_9 
REMARK    4  A    between atoms: N3_9  and  C5_11 
ROOT
HETATM    1  C5  UNL     1      27.105  30.649  26.379  1.00  0.00     0.245 C 
HETATM    2  C6  UNL     1      26.240  30.179  25.303  1.00  0.00     0.078 C 
HETATM    3  N4  UNL     1      25.559  29.787  24.449  1.00  0.00    -0.196 NA
ENDROOT
BRANCH   1   4
HETATM    4  N3  UNL     1      27.747  31.901  26.016  1.00  0.00    -0.363 N 
ATOM      5  H3  UNL     1      28.553  32.210  26.559  1.00  0.00     0.162 HD
BRANCH   4   6
HETATM    6  C4  UNL     1      27.345  32.635  25.042  1.00  0.00     0.130 A 
HETATM    7  N2  UNL     1      26.097  33.156  24.960  1.00  0.00    -0.176 N 
HETATM    8  C3  UNL     1      25.716  33.914  23.932  1.00  0.00     0.680 A 
ATOM      9  H2  UNL     1      25.430  32.961  25.706  1.00  0.00     0.186 HD
HETATM   10  N6  UNL     1      26.578  34.176  22.949  1.00  0.00    -0.190 N 
HETATM   11  C11 UNL     1      27.851  33.694  22.950  1.00  0.00     0.078 A 
ATOM     12  H6  UNL     1      26.273  34.759  22.169  1.00  0.00     0.184 HD
HETATM   13  C7  UNL     1      28.232  32.909  24.023  1.00  0.00     0.038 A 
HETATM   14  C10 UNL     1      28.743  33.964  21.934  1.00  0.00     0.118 A 
HETATM   15  C8  UNL     1      29.530  32.431  24.001  1.00  0.00     0.034 A 
HETATM   16  C9  UNL     1      30.416  32.707  22.978  1.00  0.00     0.088 A 
HETATM   17  N5  UNL     1      30.009  33.478  21.946  1.00  0.00    -0.373 N 
ATOM     18  H5  UNL     1      30.649  33.693  21.182  1.00  0.00     0.164 HD
BRANCH   8  19
HETATM   19  N1  UNL     1      24.537  34.390  23.883  1.00  0.00    -0.226 N 
ATOM     20  H1  UNL     1      24.356  35.346  24.188  1.00  0.00     0.177 HD
BRANCH  19  21
HETATM   21  C2  UNL     1      23.454  33.567  23.391  1.00  0.00     0.133 C 
HETATM   22  C1  UNL     1      24.052  32.550  22.445  1.00  0.00     0.027 C 
ENDBRANCH  19  21
ENDBRANCH   8  19
ENDBRANCH   4   6
ENDBRANCH   1   4
TORSDOF 4
ENDMDL
MODEL 5
REMARK VINA RESULT: -2.391695526      1.542      4.582
REMARK  4 active torsions:
REMARK  status: ('A' for Active; 'I' for Inactive)
REMARK    1  A    between atoms: C2_2  and  N1_3 
REMARK    2  A    between atoms: N1_3  and  C3_5 
REMARK    3  A    between atoms: C4_8  and  N3_9 
REMARK    4  A    between atoms: N3_9  and  C5_11 
ROOT
HETATM    1  C5  UNL     1      24.401  33.067  22.279  1.00  0.00     0.245 C 
HETATM    2  C6  UNL     1      24.671  33.789  23.517  1.00  0.00     0.078 C 
HETATM    3  N4  UNL     1      24.881  34.380  24.494  1.00  0.00    -0.196 NA
ENDROOT
BRANCH   1   4
HETATM    4  N3  UNL     1      25.435  32.079  22.022  1.00  0.00    -0.363 N 
ATOM      5  H3  UNL     1      25.215  31.292  21.412  1.00  0.00     0.162 HD
BRANCH   4   6
HETATM    6  C4  UNL     1      26.613  32.152  22.528  1.00  0.00     0.130 A 
HETATM    7  N2  UNL     1      27.625  32.862  21.976  1.00  0.00    -0.176 N 
HETATM    8  C3  UNL     1      28.835  32.914  22.531  1.00  0.00     0.680 A 
ATOM      9  H2  UNL     1      27.455  33.373  21.109  1.00  0.00     0.186 HD
HETATM   10  N6  UNL     1      29.071  32.251  23.664  1.00  0.00    -0.190 N 
HETATM   11  C11 UNL     1      28.112  31.512  24.287  1.00  0.00     0.078 A 
ATOM     12  H6  UNL     1      30.002  32.300  24.078  1.00  0.00     0.184 HD
HETATM   13  C7  UNL     1      26.862  31.468  23.699  1.00  0.00     0.038 A 
HETATM   14  C10 UNL     1      28.356  30.826  25.458  1.00  0.00     0.118 A 
HETATM   15  C8  UNL     1      25.906  30.710  24.352  1.00  0.00     0.034 A 
HETATM   16  C9  UNL     1      26.159  30.027  25.524  1.00  0.00     0.088 A 
HETATM   17  N5  UNL     1      27.393  30.093  26.070  1.00  0.00    -0.373 N 
ATOM     18  H5  UNL     1      27.599  29.595  26.935  1.00  0.00     0.164 HD
BRANCH   8  19
HETATM   19  N1  UNL     1      29.767  33.591  21.989  1.00  0.00    -0.226 N 
ATOM     20  H1  UNL     1      29.543  34.327  21.319  1.00  0.00     0.177 HD
BRANCH  19  21
HETATM   21  C2  UNL     1      31.144  33.310  22.328  1.00  0.00     0.133 C 
HETATM   22  C1  UNL     1      32.014  34.049  21.334  1.00  0.00     0.027 C 
ENDBRANCH  19  21
ENDBRANCH   8  19
ENDBRANCH   4   6
ENDBRANCH   1   4
TORSDOF 4
ENDMDL
