MODEL 1
REMARK VINA RESULT: -5.310965836      0.000      0.000
REMARK  5 active torsions:
REMARK  status: ('A' for Active; 'I' for Inactive)
REMARK    1  A    between atoms: N1_2  and  C2_4 
REMARK    2  A    between atoms: C2_4  and  N2_6 
REMARK    3  A    between atoms: N2_6  and  C4_8 
REMARK    4  A    between atoms: C4_8  and  C5_9 
REMARK    5  A    between atoms: C6_12  and  N4_13 
ROOT
HETATM    1  C5  UNL     1      27.044  33.060  22.768  1.00  0.00     0.107 A 
HETATM    2  N3  UNL     1      26.010  33.616  23.348  1.00  0.00    -0.324 N 
ATOM      3  H3  UNL     1      26.139  34.391  23.998  1.00  0.00     0.169 HD
HETATM    4  C6  UNL     1      24.803  33.164  23.081  1.00  0.00     0.160 A 
HETATM    5  S2  UNL     1      25.131  31.909  21.975  1.00  0.00     0.024 SA
HETATM    6  N5  UNL     1      26.805  32.047  21.926  1.00  0.00    -0.312 N 
ATOM      7  H5  UNL     1      27.474  31.496  21.388  1.00  0.00     0.175 HD
ENDROOT
BRANCH   1   8
HETATM    8  C4  UNL     1      28.450  33.580  23.077  1.00  0.00     0.201 C 
BRANCH   8   9
HETATM    9  N2  UNL     1      28.773  33.285  24.428  1.00  0.00    -0.356 N 
HETATM   10  C3  UNL     1      29.331  34.329  25.258  1.00  0.00     0.152 C 
BRANCH   9  11
HETATM   11  C2  UNL     1      28.538  31.999  24.967  1.00  0.00     0.169 C 
HETATM   12  S1  UNL     1      29.214  30.659  24.254  1.00  0.00    -0.041 SA
BRANCH  11  13
HETATM   13  N1  UNL     1      27.743  31.725  26.109  1.00  0.00    -0.371 N 
HETATM   14  C1  UNL     1      26.375  31.323  26.068  1.00  0.00     0.148 C 
ATOM     15  H1  UNL     1      28.181  31.822  27.026  1.00  0.00     0.161 HD
ENDBRANCH  11  13
ENDBRANCH   9  11
ENDBRANCH   8   9
ENDBRANCH   1   8
BRANCH   4  16
HETATM   16  N4  UNL     1      23.663  33.603  23.571  1.00  0.00    -0.379 N 
ATOM     17  H42 UNL     1      23.163  33.352  24.424  1.00  0.00     0.158 HD
ATOM     18  H41 UNL     1      23.048  34.307  23.164  1.00  0.00     0.158 HD
ENDBRANCH   4  16
TORSDOF 5
ENDMDL
MODEL 2
REMARK VINA RESULT: -4.585040645      1.032      1.493
REMARK  5 active torsions:
REMARK  status: ('A' for Active; 'I' for Inactive)
REMARK    1  A    between atoms: N1_2  and  C2_4 
REMARK    2  A    between atoms: C2_4  and  N2_6 
REMARK    3  A    between atoms: N2_6  and  C4_8 
REMARK    4  A    between atoms: C4_8  and  C5_9 
REMARK    5  A    between atoms: C6_12  and  N4_13 
ROOT
HETATM    1  C5  UNL     1      26.733  33.496  23.186  1.00  0.00     0.107 A 
HETATM    2  N3  UNL     1      26.410  32.420  22.516  1.00  0.00    -0.324 N 
ATOM      3  H3  UNL     1      27.131  31.859  22.063  1.00  0.00     0.169 HD
HETATM    4  C6  UNL     1      25.143  32.070  22.434  1.00  0.00     0.160 A 
HETATM    5  S2  UNL     1      24.377  33.300  23.331  1.00  0.00     0.024 SA
HETATM    6  N5  UNL     1      25.739  34.189  23.756  1.00  0.00    -0.312 N 
ATOM      7  H5  UNL     1      25.795  35.043  24.311  1.00  0.00     0.175 HD
ENDROOT
BRANCH   1   8
HETATM    8  C4  UNL     1      28.205  33.909  23.282  1.00  0.00     0.201 C 
BRANCH   8   9
HETATM    9  N2  UNL     1      28.739  33.461  24.519  1.00  0.00    -0.356 N 
HETATM   10  C3  UNL     1      29.483  34.392  25.337  1.00  0.00     0.152 C 
BRANCH   9  11
HETATM   11  C2  UNL     1      28.535  32.133  24.960  1.00  0.00     0.169 C 
HETATM   12  S1  UNL     1      29.190  30.862  24.114  1.00  0.00    -0.041 SA
BRANCH  11  13
HETATM   13  N1  UNL     1      27.790  31.760  26.108  1.00  0.00    -0.371 N 
HETATM   14  C1  UNL     1      26.452  31.268  26.081  1.00  0.00     0.148 C 
ATOM     15  H1  UNL     1      28.244  31.849  27.017  1.00  0.00     0.161 HD
ENDBRANCH  11  13
ENDBRANCH   9  11
ENDBRANCH   8   9
ENDBRANCH   1   8
BRANCH   4  16
HETATM   16  N4  UNL     1      24.645  31.026  21.805  1.00  0.00    -0.379 N 
ATOM     17  H42 UNL     1      25.044  30.106  21.623  1.00  0.00     0.158 HD
ATOM     18  H41 UNL     1      23.727  30.950  21.368  1.00  0.00     0.158 HD
ENDBRANCH   4  16
TORSDOF 5
ENDMDL
MODEL 3
REMARK VINA RESULT: -4.521090950      1.420      1.661
REMARK  5 active torsions:
REMARK  status: ('A' for Active; 'I' for Inactive)
REMARK    1  A    between atoms: N1_2  and  C2_4 
REMARK    2  A    between atoms: C2_4  and  N2_6 
REMARK    3  A    between atoms: N2_6  and  C4_8 
REMARK    4  A    between atoms: C4_8  and  C5_9 
REMARK    5  A    between atoms: C6_12  and  N4_13 
ROOT
HETATM    1  C5  UNL     1      26.899  32.882  22.546  1.00  0.00     0.107 A 
HETATM    2  N3  UNL     1      26.258  33.735  23.303  1.00  0.00    -0.324 N 
ATOM      3  H3  UNL     1      26.769  34.444  23.828  1.00  0.00     0.169 HD
HETATM    4  C6  UNL     1      24.945  33.667  23.380  1.00  0.00     0.160 A 
HETATM    5  S2  UNL     1      24.597  32.354  22.350  1.00  0.00     0.024 SA
HETATM    6  N5  UNL     1      26.167  31.975  21.885  1.00  0.00    -0.312 N 
ATOM      7  H5  UNL     1      26.484  31.238  21.256  1.00  0.00     0.175 HD
ENDROOT
BRANCH   1   8
HETATM    8  C4  UNL     1      28.425  32.954  22.456  1.00  0.00     0.201 C 
BRANCH   8   9
HETATM    9  N2  UNL     1      28.994  32.259  23.556  1.00  0.00    -0.356 N 
HETATM   10  C3  UNL     1      29.745  31.049  23.307  1.00  0.00     0.152 C 
BRANCH   9  11
HETATM   11  C2  UNL     1      28.849  32.746  24.876  1.00  0.00     0.169 C 
HETATM   12  S1  UNL     1      29.370  34.275  25.264  1.00  0.00    -0.041 SA
BRANCH  11  13
HETATM   13  N1  UNL     1      28.275  32.024  25.954  1.00  0.00    -0.371 N 
HETATM   14  C1  UNL     1      27.060  31.282  25.877  1.00  0.00     0.148 C 
ATOM     15  H1  UNL     1      28.767  32.036  26.847  1.00  0.00     0.161 HD
ENDBRANCH  11  13
ENDBRANCH   9  11
ENDBRANCH   8   9
ENDBRANCH   1   8
BRANCH   4  16
HETATM   16  N4  UNL     1      24.149  34.440  24.088  1.00  0.00    -0.379 N 
ATOM     17  H42 UNL     1      24.220  35.429  24.327  1.00  0.00     0.158 HD
ATOM     18  H41 UNL     1      23.276  34.173  24.544  1.00  0.00     0.158 HD
ENDBRANCH   4  16
TORSDOF 5
ENDMDL
MODEL 4
REMARK VINA RESULT: -4.375414430      1.615      2.696
REMARK  5 active torsions:
REMARK  status: ('A' for Active; 'I' for Inactive)
REMARK    1  A    between atoms: N1_2  and  C2_4 
REMARK    2  A    between atoms: C2_4  and  N2_6 
REMARK    3  A    between atoms: N2_6  and  C4_8 
REMARK    4  A    between atoms: C4_8  and  C5_9 
REMARK    5  A    between atoms: C6_12  and  N4_13 
ROOT
HETATM    1  C5  UNL     1      26.198  31.843  24.194  1.00  0.00     0.107 A 
HETATM    2  N3  UNL     1      25.277  32.746  24.413  1.00  0.00    -0.324 N 
ATOM      3  H3  UNL     1      25.227  33.224  25.312  1.00  0.00     0.169 HD
HETATM    4  C6  UNL     1      24.416  33.031  23.458  1.00  0.00     0.160 A 
HETATM    5  S2  UNL     1      24.918  31.990  22.206  1.00  0.00     0.024 SA
HETATM    6  N5  UNL     1      26.208  31.252  22.992  1.00  0.00    -0.312 N 
ATOM      7  H5  UNL     1      26.841  30.533  22.642  1.00  0.00     0.175 HD
ENDROOT
BRANCH   1   8
HETATM    8  C4  UNL     1      27.199  31.506  25.302  1.00  0.00     0.201 C 
BRANCH   8   9
HETATM    9  N2  UNL     1      28.519  31.596  24.786  1.00  0.00    -0.356 N 
HETATM   10  C3  UNL     1      29.338  30.405  24.749  1.00  0.00     0.152 C 
BRANCH   9  11
HETATM   11  C2  UNL     1      29.026  32.822  24.298  1.00  0.00     0.169 C 
HETATM   12  S1  UNL     1      29.281  34.094  25.336  1.00  0.00    -0.041 SA
BRANCH  11  13
HETATM   13  N1  UNL     1      29.353  33.088  22.943  1.00  0.00    -0.371 N 
HETATM   14  C1  UNL     1      28.498  33.758  22.019  1.00  0.00     0.148 C 
ATOM     15  H1  UNL     1      30.265  32.780  22.607  1.00  0.00     0.161 HD
ENDBRANCH  11  13
ENDBRANCH   9  11
ENDBRANCH   8   9
ENDBRANCH   1   8
BRANCH   4  16
HETATM   16  N4  UNL     1      23.434  33.906  23.508  1.00  0.00    -0.379 N 
ATOM     17  H42 UNL     1      22.548  33.885  24.012  1.00  0.00     0.158 HD
ATOM     18  H41 UNL     1      23.384  34.804  23.028  1.00  0.00     0.158 HD
ENDBRANCH   4  16
TORSDOF 5
ENDMDL
MODEL 5
REMARK VINA RESULT: -4.368395465      1.231      1.919
REMARK  5 active torsions:
REMARK  status: ('A' for Active; 'I' for Inactive)
REMARK    1  A    between atoms: N1_2  and  C2_4 
REMARK    2  A    between atoms: C2_4  and  N2_6 
REMARK    3  A    between atoms: N2_6  and  C4_8 
REMARK    4  A    between atoms: C4_8  and  C5_9 
REMARK    5  A    between atoms: C6_12  and  N4_13 
ROOT
HETATM    1  C5  UNL     1      26.945  32.928  22.558  1.00  0.00     0.107 A 
HETATM    2  N3  UNL     1      26.295  33.769  23.324  1.00  0.00    -0.324 N 
ATOM      3  H3  UNL     1      26.800  34.476  23.857  1.00  0.00     0.169 HD
HETATM    4  C6  UNL     1      24.983  33.690  23.396  1.00  0.00     0.160 A 
HETATM    5  S2  UNL     1      24.647  32.385  22.352  1.00  0.00     0.024 SA
HETATM    6  N5  UNL     1      26.222  32.023  21.886  1.00  0.00    -0.312 N 
ATOM      7  H5  UNL     1      26.546  31.295  21.250  1.00  0.00     0.175 HD
ENDROOT
BRANCH   1   8
HETATM    8  C4  UNL     1      28.471  33.013  22.473  1.00  0.00     0.201 C 
BRANCH   8   9
HETATM    9  N2  UNL     1      29.044  32.136  23.431  1.00  0.00    -0.356 N 
HETATM   10  C3  UNL     1      30.095  31.235  23.014  1.00  0.00     0.152 C 
BRANCH   9  11
HETATM   11  C2  UNL     1      28.614  32.151  24.779  1.00  0.00     0.169 C 
HETATM   12  S1  UNL     1      27.742  30.875  25.390  1.00  0.00    -0.041 SA
BRANCH  11  13
HETATM   13  N1  UNL     1      28.863  33.196  25.704  1.00  0.00    -0.371 N 
HETATM   14  C1  UNL     1      29.429  34.460  25.365  1.00  0.00     0.148 C 
ATOM     15  H1  UNL     1      28.621  33.032  26.681  1.00  0.00     0.161 HD
ENDBRANCH  11  13
ENDBRANCH   9  11
ENDBRANCH   8   9
ENDBRANCH   1   8
BRANCH   4  16
HETATM   16  N4  UNL     1      24.179  34.450  24.110  1.00  0.00    -0.379 N 
ATOM     17  H42 UNL     1      24.061  35.463  24.129  1.00  0.00     0.158 HD
ATOM     18  H41 UNL     1      23.498  34.144  24.805  1.00  0.00     0.158 HD
ENDBRANCH   4  16
TORSDOF 5
ENDMDL
