MODEL 1
REMARK VINA RESULT: -6.150421023      0.000      0.000
REMARK  3 active torsions:
REMARK  status: ('A' for Active; 'I' for Inactive)
REMARK    1  A    between atoms: C2_2  and  N1_3 
REMARK    2  A    between atoms: C4_8  and  N3_9 
REMARK    3  A    between atoms: N3_9  and  C5_11 
ROOT
HETATM    1  N1  UNL     1      12.149  46.020  20.019  1.00  0.00    -0.375 N 
ATOM      2  H1  UNL     1      12.734  46.456  20.731  1.00  0.00     0.161 HD
HETATM    3  C3  UNL     1      12.797  45.450  19.110  1.00  0.00     0.136 A 
HETATM    4  N2  UNL     1      14.185  45.461  19.147  1.00  0.00    -0.176 N 
ATOM      5  H2  UNL     1      14.636  45.941  19.926  1.00  0.00     0.186 HD
HETATM    6  C4  UNL     1      14.957  44.896  18.246  1.00  0.00     0.680 A 
HETATM    7  N5  UNL     1      14.417  44.254  17.204  1.00  0.00    -0.195 N 
ATOM      8  H5  UNL     1      15.029  43.821  16.512  1.00  0.00     0.184 HD
HETATM    9  C12 UNL     1      13.088  44.169  17.050  1.00  0.00     0.043 A 
HETATM   10  C13 UNL     1      12.478  43.451  15.884  1.00  0.00     0.070 C 
HETATM   11  C14 UNL     1      12.288  44.782  18.026  1.00  0.00     0.077 A 
HETATM   12 BR1  UNL     1      10.400  44.619  17.738  1.00  0.00    -0.045 Br
ENDROOT
BRANCH   6  13
HETATM   13  N3  UNL     1      16.245  44.956  18.360  1.00  0.00    -0.219 N 
ATOM     14  H3  UNL     1      16.809  44.293  17.828  1.00  0.00     0.178 HD
BRANCH  13  15
HETATM   15  C5  UNL     1      16.917  45.903  19.193  1.00  0.00     0.130 C 
HETATM   16  C6  UNL     1      17.464  47.043  18.353  1.00  0.00     0.034 C 
HETATM   17  C7  UNL     1      18.962  47.132  18.466  1.00  0.00     0.013 C 
HETATM   18  C8  UNL     1      19.538  45.830  17.944  1.00  0.00     0.008 C 
HETATM   19  C11 UNL     1      19.323  47.296  19.919  1.00  0.00     0.237 C 
HETATM   20  C9  UNL     1      18.983  44.657  18.737  1.00  0.00     0.035 C 
HETATM   21  C10 UNL     1      18.128  45.207  19.828  1.00  0.00     0.209 C 
HETATM   22  N4  UNL     1      18.835  46.153  20.644  1.00  0.00    -0.069 N 
ATOM     23  H42 UNL     1      18.260  46.447  21.433  1.00  0.00     0.277 HD
ATOM     24  H41 UNL     1      19.596  45.696  21.148  1.00  0.00     0.277 HD
ENDBRANCH  13  15
ENDBRANCH   6  13
BRANCH   1  25
HETATM   25  C2  UNL     1      10.792  46.169  20.242  1.00  0.00     0.116 C 
HETATM   26  C1  UNL     1      10.466  47.337  21.190  1.00  0.00     0.026 C 
ENDBRANCH   1  25
TORSDOF 3
ENDMDL
MODEL 2
REMARK VINA RESULT: -5.858202649      1.007      1.502
REMARK  3 active torsions:
REMARK  status: ('A' for Active; 'I' for Inactive)
REMARK    1  A    between atoms: C2_2  and  N1_3 
REMARK    2  A    between atoms: C4_8  and  N3_9 
REMARK    3  A    between atoms: N3_9  and  C5_11 
ROOT
HETATM    1  N1  UNL     1      12.300  45.903  19.917  1.00  0.00    -0.375 N 
ATOM      2  H1  UNL     1      12.869  46.346  20.638  1.00  0.00     0.161 HD
HETATM    3  C3  UNL     1      12.964  45.437  18.962  1.00  0.00     0.136 A 
HETATM    4  N2  UNL     1      14.347  45.556  18.966  1.00  0.00    -0.176 N 
ATOM      5  H2  UNL     1      14.781  46.027  19.761  1.00  0.00     0.186 HD
HETATM    6  C4  UNL     1      15.136  45.104  18.017  1.00  0.00     0.680 A 
HETATM    7  N5  UNL     1      14.619  44.479  16.954  1.00  0.00    -0.195 N 
ATOM      8  H5  UNL     1      15.243  44.133  16.225  1.00  0.00     0.184 HD
HETATM    9  C12 UNL     1      13.296  44.296  16.827  1.00  0.00     0.043 A 
HETATM   10  C13 UNL     1      12.711  43.596  15.638  1.00  0.00     0.070 C 
HETATM   11  C14 UNL     1      12.479  44.790  17.855  1.00  0.00     0.077 A 
HETATM   12 BR1  UNL     1      10.602  44.493  17.604  1.00  0.00    -0.045 Br
ENDROOT
BRANCH   6  13
HETATM   13  N3  UNL     1      16.418  45.260  18.104  1.00  0.00    -0.219 N 
ATOM     14  H3  UNL     1      16.855  45.988  17.539  1.00  0.00     0.178 HD
BRANCH  13  15
HETATM   15  C5  UNL     1      17.251  44.466  18.950  1.00  0.00     0.130 C 
HETATM   16  C6  UNL     1      17.388  45.122  20.314  1.00  0.00     0.034 C 
HETATM   17  C7  UNL     1      18.824  45.457  20.614  1.00  0.00     0.013 C 
HETATM   18  C8  UNL     1      19.294  46.438  19.558  1.00  0.00     0.008 C 
HETATM   19  C11 UNL     1      19.639  44.194  20.526  1.00  0.00     0.237 C 
HETATM   20  C9  UNL     1      19.137  45.833  18.173  1.00  0.00     0.035 C 
HETATM   21  C10 UNL     1      18.657  44.431  18.339  1.00  0.00     0.209 C 
HETATM   22  N4  UNL     1      19.519  43.663  19.194  1.00  0.00    -0.069 N 
ATOM     23  H42 UNL     1      19.221  42.688  19.222  1.00  0.00     0.277 HD
ATOM     24  H41 UNL     1      20.440  43.549  18.769  1.00  0.00     0.277 HD
ENDBRANCH  13  15
ENDBRANCH   6  13
BRANCH   1  25
HETATM   25  C2  UNL     1      10.942  45.932  20.181  1.00  0.00     0.116 C 
HETATM   26  C1  UNL     1      10.538  47.084  21.117  1.00  0.00     0.026 C 
ENDBRANCH   1  25
TORSDOF 3
ENDMDL
MODEL 3
REMARK VINA RESULT: -5.777273314      1.501      2.063
REMARK  3 active torsions:
REMARK  status: ('A' for Active; 'I' for Inactive)
REMARK    1  A    between atoms: C2_2  and  N1_3 
REMARK    2  A    between atoms: C4_8  and  N3_9 
REMARK    3  A    between atoms: N3_9  and  C5_11 
ROOT
HETATM    1  N1  UNL     1      11.465  45.021  19.033  1.00  0.00    -0.375 N 
ATOM      2  H1  UNL     1      11.568  45.213  20.029  1.00  0.00     0.161 HD
HETATM    3  C3  UNL     1      12.546  45.042  18.398  1.00  0.00     0.136 A 
HETATM    4  N2  UNL     1      13.730  45.313  19.069  1.00  0.00    -0.176 N 
ATOM      5  H2  UNL     1      13.678  45.487  20.073  1.00  0.00     0.186 HD
HETATM    6  C4  UNL     1      14.914  45.359  18.500  1.00  0.00     0.680 A 
HETATM    7  N5  UNL     1      15.038  45.138  17.187  1.00  0.00    -0.195 N 
ATOM      8  H5  UNL     1      15.963  45.178  16.758  1.00  0.00     0.184 HD
HETATM    9  C12 UNL     1      13.971  44.865  16.421  1.00  0.00     0.043 A 
HETATM   10  C13 UNL     1      14.105  44.617  14.949  1.00  0.00     0.070 C 
HETATM   11  C14 UNL     1      12.720  44.823  17.056  1.00  0.00     0.077 A 
HETATM   12 BR1  UNL     1      11.244  44.428  15.899  1.00  0.00    -0.045 Br
ENDROOT
BRANCH   6  13
HETATM   13  N3  UNL     1      15.967  45.619  19.205  1.00  0.00    -0.219 N 
ATOM     14  H3  UNL     1      16.092  46.569  19.555  1.00  0.00     0.178 HD
BRANCH  13  15
HETATM   15  C5  UNL     1      16.964  44.645  19.519  1.00  0.00     0.130 C 
HETATM   16  C6  UNL     1      17.377  44.769  20.976  1.00  0.00     0.034 C 
HETATM   17  C7  UNL     1      18.841  45.092  21.100  1.00  0.00     0.013 C 
HETATM   18  C8  UNL     1      19.075  46.425  20.418  1.00  0.00     0.008 C 
HETATM   19  C11 UNL     1      19.629  44.020  20.394  1.00  0.00     0.237 C 
HETATM   20  C9  UNL     1      18.637  46.354  18.964  1.00  0.00     0.035 C 
HETATM   21  C10 UNL     1      18.213  44.952  18.683  1.00  0.00     0.209 C 
HETATM   22  N4  UNL     1      19.239  44.002  19.009  1.00  0.00    -0.069 N 
ATOM     23  H42 UNL     1      18.960  43.062  18.727  1.00  0.00     0.277 HD
ATOM     24  H41 UNL     1      20.052  44.128  18.405  1.00  0.00     0.277 HD
ENDBRANCH  13  15
ENDBRANCH   6  13
BRANCH   1  25
HETATM   25  C2  UNL     1      10.159  44.785  18.641  1.00  0.00     0.116 C 
HETATM   26  C1  UNL     1       9.132  45.565  19.481  1.00  0.00     0.026 C 
ENDBRANCH   1  25
TORSDOF 3
ENDMDL
MODEL 4
REMARK VINA RESULT: -5.776698073      0.937      1.293
REMARK  3 active torsions:
REMARK  status: ('A' for Active; 'I' for Inactive)
REMARK    1  A    between atoms: C2_2  and  N1_3 
REMARK    2  A    between atoms: C4_8  and  N3_9 
REMARK    3  A    between atoms: N3_9  and  C5_11 
ROOT
HETATM    1  N1  UNL     1      11.955  46.105  20.201  1.00  0.00    -0.375 N 
ATOM      2  H1  UNL     1      12.547  46.517  20.922  1.00  0.00     0.161 HD
HETATM    3  C3  UNL     1      12.592  45.510  19.300  1.00  0.00     0.136 A 
HETATM    4  N2  UNL     1      13.978  45.465  19.356  1.00  0.00    -0.176 N 
ATOM      5  H2  UNL     1      14.437  45.925  20.142  1.00  0.00     0.186 HD
HETATM    6  C4  UNL     1      14.739  44.869  18.465  1.00  0.00     0.680 A 
HETATM    7  N5  UNL     1      14.188  44.251  17.415  1.00  0.00    -0.195 N 
ATOM      8  H5  UNL     1      14.791  43.794  16.731  1.00  0.00     0.184 HD
HETATM    9  C12 UNL     1      12.858  44.220  17.242  1.00  0.00     0.043 A 
HETATM   10  C13 UNL     1      12.236  43.529  16.067  1.00  0.00     0.070 C 
HETATM   11  C14 UNL     1      12.071  44.864  18.208  1.00  0.00     0.077 A 
HETATM   12 BR1  UNL     1      10.182  44.779  17.894  1.00  0.00    -0.045 Br
ENDROOT
BRANCH   6  13
HETATM   13  N3  UNL     1      16.026  44.877  18.597  1.00  0.00    -0.219 N 
ATOM     14  H3  UNL     1      16.453  44.184  19.213  1.00  0.00     0.178 HD
BRANCH  13  15
HETATM   15  C5  UNL     1      16.880  45.806  17.927  1.00  0.00     0.130 C 
HETATM   16  C6  UNL     1      17.789  45.073  16.955  1.00  0.00     0.034 C 
HETATM   17  C7  UNL     1      19.238  45.273  17.310  1.00  0.00     0.013 C 
HETATM   18  C8  UNL     1      19.452  44.699  18.697  1.00  0.00     0.008 C 
HETATM   19  C11 UNL     1      19.527  46.751  17.327  1.00  0.00     0.237 C 
HETATM   20  C9  UNL     1      18.530  45.381  19.694  1.00  0.00     0.035 C 
HETATM   21  C10 UNL     1      17.793  46.458  18.973  1.00  0.00     0.209 C 
HETATM   22  N4  UNL     1      18.682  47.372  18.312  1.00  0.00    -0.069 N 
ATOM     23  H42 UNL     1      18.161  48.146  17.901  1.00  0.00     0.277 HD
ATOM     24  H41 UNL     1      19.242  47.885  18.993  1.00  0.00     0.277 HD
ENDBRANCH  13  15
ENDBRANCH   6  13
BRANCH   1  25
HETATM   25  C2  UNL     1      10.602  46.309  20.406  1.00  0.00     0.116 C 
HETATM   26  C1  UNL     1      10.304  47.584  21.215  1.00  0.00     0.026 C 
ENDBRANCH   1  25
TORSDOF 3
ENDMDL
MODEL 5
REMARK VINA RESULT: -5.483031031      0.910      3.054
REMARK  3 active torsions:
REMARK  status: ('A' for Active; 'I' for Inactive)
REMARK    1  A    between atoms: C2_2  and  N1_3 
REMARK    2  A    between atoms: C4_8  and  N3_9 
REMARK    3  A    between atoms: N3_9  and  C5_11 
ROOT
HETATM    1  N1  UNL     1      13.064  43.687  15.613  1.00  0.00    -0.375 N 
ATOM      2  H1  UNL     1      13.862  43.387  15.054  1.00  0.00     0.161 HD
HETATM    3  C3  UNL     1      13.379  44.202  16.712  1.00  0.00     0.136 A 
HETATM    4  N2  UNL     1      14.720  44.315  17.055  1.00  0.00    -0.176 N 
ATOM      5  H2  UNL     1      15.412  43.970  16.390  1.00  0.00     0.186 HD
HETATM    6  C4  UNL     1      15.157  44.838  18.179  1.00  0.00     0.680 A 
HETATM    7  N5  UNL     1      14.292  45.306  19.085  1.00  0.00    -0.195 N 
ATOM      8  H5  UNL     1      14.647  45.709  19.954  1.00  0.00     0.184 HD
HETATM    9  C12 UNL     1      12.969  45.258  18.876  1.00  0.00     0.043 A 
HETATM   10  C13 UNL     1      11.995  45.781  19.889  1.00  0.00     0.070 C 
HETATM   11  C14 UNL     1      12.530  44.694  17.669  1.00  0.00     0.077 A 
HETATM   12 BR1  UNL     1      10.627  44.659  17.442  1.00  0.00    -0.045 Br
ENDROOT
BRANCH   6  13
HETATM   13  N3  UNL     1      16.428  44.903  18.417  1.00  0.00    -0.219 N 
ATOM     14  H3  UNL     1      17.031  44.181  18.022  1.00  0.00     0.178 HD
BRANCH  13  15
HETATM   15  C5  UNL     1      17.030  45.933  19.203  1.00  0.00     0.130 C 
HETATM   16  C6  UNL     1      17.481  47.076  18.311  1.00  0.00     0.034 C 
HETATM   17  C7  UNL     1      18.968  47.286  18.406  1.00  0.00     0.013 C 
HETATM   18  C8  UNL     1      19.640  46.011  17.933  1.00  0.00     0.008 C 
HETATM   19  C11 UNL     1      19.324  47.538  19.847  1.00  0.00     0.237 C 
HETATM   20  C9  UNL     1      19.183  44.834  18.779  1.00  0.00     0.035 C 
HETATM   21  C10 UNL     1      18.295  45.361  19.854  1.00  0.00     0.209 C 
HETATM   22  N4  UNL     1      18.932  46.392  20.624  1.00  0.00    -0.069 N 
ATOM     23  H42 UNL     1      18.340  46.674  21.405  1.00  0.00     0.277 HD
ATOM     24  H41 UNL     1      19.729  46.017  21.138  1.00  0.00     0.277 HD
ENDBRANCH  13  15
ENDBRANCH   6  13
BRANCH   1  25
HETATM   25  C2  UNL     1      11.839  43.447  15.015  1.00  0.00     0.116 C 
HETATM   26  C1  UNL     1      11.918  42.400  13.890  1.00  0.00     0.026 C 
ENDBRANCH   1  25
TORSDOF 3
ENDMDL
