MODEL 1
REMARK VINA RESULT: -6.014699197      0.000      0.000
REMARK  5 active torsions:
REMARK  status: ('A' for Active; 'I' for Inactive)
REMARK    1  A    between atoms: N1_2  and  C2_4 
REMARK    2  A    between atoms: C3_9  and  N4_10 
REMARK    3  A    between atoms: N4_10  and  C4_12 
REMARK    4  A    between atoms: C4_12  and  C6_14 
REMARK       I    between atoms: N5_18  and  C10_19 
REMARK    5  A    between atoms: C10_19  and  C11_21 
ROOT
HETATM    1  C4  UNL     1      12.471  44.271  17.090  1.00  0.00     0.118 C 
HETATM    2  C5  UNL     1      11.646  44.000  15.887  1.00  0.00     0.035 C 
ENDROOT
BRANCH   1   3
HETATM    3  N4  UNL     1      11.650  44.055  18.264  1.00  0.00    -0.218 N 
ATOM      4  H4  UNL     1      11.272  43.124  18.438  1.00  0.00     0.178 HD
BRANCH   3   5
HETATM    5  C3  UNL     1      11.382  45.000  19.093  1.00  0.00     0.708 A 
HETATM    6  N3  UNL     1      12.314  45.698  19.765  1.00  0.00    -0.117 N 
HETATM    7  N2  UNL     1      11.703  46.600  20.536  1.00  0.00    -0.117 N 
ATOM      8  H3  UNL     1      13.323  45.561  19.697  1.00  0.00     0.206 HD
HETATM    9  C2  UNL     1      10.372  46.493  20.369  1.00  0.00     0.707 A 
ATOM     10  H2  UNL     1      12.170  47.264  21.153  1.00  0.00     0.206 HD
HETATM   11  N6  UNL     1      10.197  45.501  19.475  1.00  0.00    -0.020 N 
ATOM     12  H6  UNL     1       9.292  45.176  19.136  1.00  0.00     0.203 HD
BRANCH   9  13
HETATM   13  N1  UNL     1       9.442  47.197  20.946  1.00  0.00    -0.229 N 
HETATM   14  C1  UNL     1       9.713  48.582  21.234  1.00  0.00     0.165 C 
ATOM     15  H1  UNL     1       8.545  46.778  21.188  1.00  0.00     0.177 HD
ENDBRANCH   9  13
ENDBRANCH   3   5
ENDBRANCH   1   3
BRANCH   1  16
HETATM   16  C6  UNL     1      13.727  43.471  17.194  1.00  0.00     0.110 C 
HETATM   17  C7  UNL     1      13.822  42.313  16.267  1.00  0.00     0.029 C 
HETATM   18  C8  UNL     1      14.763  42.709  15.167  1.00  0.00     0.022 C 
HETATM   19  C9  UNL     1      15.249  44.064  15.553  1.00  0.00     0.126 C 
HETATM   20  N5  UNL     1      14.915  44.264  16.940  1.00  0.00    -0.345 N 
HETATM   21  C10 UNL     1      15.631  45.079  17.845  1.00  0.00     0.226 C 
HETATM   22  O1  UNL     1      15.178  45.116  19.029  1.00  0.00    -0.273 OA
BRANCH  21  23
HETATM   23  C11 UNL     1      16.810  45.816  17.404  1.00  0.00     0.106 A 
HETATM   24  C12 UNL     1      17.089  47.056  18.260  1.00  0.00     0.104 A 
HETATM   25 CL1  UNL     1      18.785  47.208  18.771  1.00  0.00    -0.123 Cl
HETATM   26  C13 UNL     1      16.748  47.164  16.809  1.00  0.00    -0.017 A 
HETATM   27  C14 UNL     1      17.906  47.593  15.930  1.00  0.00     0.017 C 
HETATM   28  C15 UNL     1      15.425  47.775  16.398  1.00  0.00     0.017 C 
ENDBRANCH  21  23
ENDBRANCH   1  16
TORSDOF 5
ENDMDL
MODEL 2
REMARK VINA RESULT: -5.944169696      3.162      5.468
REMARK  5 active torsions:
REMARK  status: ('A' for Active; 'I' for Inactive)
REMARK    1  A    between atoms: N1_2  and  C2_4 
REMARK    2  A    between atoms: C3_9  and  N4_10 
REMARK    3  A    between atoms: N4_10  and  C4_12 
REMARK    4  A    between atoms: C4_12  and  C6_14 
REMARK       I    between atoms: N5_18  and  C10_19 
REMARK    5  A    between atoms: C10_19  and  C11_21 
ROOT
HETATM    1  C4  UNL     1      12.716  45.269  18.688  1.00  0.00     0.118 C 
HETATM    2  C5  UNL     1      12.139  45.929  19.885  1.00  0.00     0.035 C 
ENDROOT
BRANCH   1   3
HETATM    3  N4  UNL     1      14.019  44.743  19.041  1.00  0.00    -0.218 N 
ATOM      4  H4  UNL     1      14.077  43.841  19.512  1.00  0.00     0.178 HD
BRANCH   3   5
HETATM    5  C3  UNL     1      15.105  45.380  18.780  1.00  0.00     0.708 A 
HETATM    6  N3  UNL     1      15.207  46.346  17.850  1.00  0.00    -0.117 N 
HETATM    7  N2  UNL     1      16.463  46.796  17.834  1.00  0.00    -0.117 N 
ATOM      8  H3  UNL     1      14.448  46.680  17.255  1.00  0.00     0.206 HD
HETATM    9  C2  UNL     1      17.184  46.126  18.752  1.00  0.00     0.707 A 
ATOM     10  H2  UNL     1      16.819  47.531  17.224  1.00  0.00     0.206 HD
HETATM   11  N6  UNL     1      16.327  45.258  19.323  1.00  0.00    -0.020 N 
ATOM     12  H6  UNL     1      16.571  44.601  20.063  1.00  0.00     0.203 HD
BRANCH   9  13
HETATM   13  N1  UNL     1      18.444  46.278  19.034  1.00  0.00    -0.229 N 
HETATM   14  C1  UNL     1      18.854  47.490  19.697  1.00  0.00     0.165 C 
ATOM     15  H1  UNL     1      19.125  45.559  18.792  1.00  0.00     0.177 HD
ENDBRANCH   9  13
ENDBRANCH   3   5
ENDBRANCH   1   3
BRANCH   1  16
HETATM   16  C6  UNL     1      11.878  44.189  18.090  1.00  0.00     0.110 C 
HETATM   17  C7  UNL     1      10.424  44.486  18.003  1.00  0.00     0.029 C 
HETATM   18  C8  UNL     1      10.129  44.814  16.569  1.00  0.00     0.022 C 
HETATM   19  C9  UNL     1      11.423  44.604  15.858  1.00  0.00     0.126 C 
HETATM   20  N5  UNL     1      12.281  43.854  16.739  1.00  0.00    -0.345 N 
HETATM   21  C10 UNL     1      13.305  42.971  16.325  1.00  0.00     0.226 C 
HETATM   22  O1  UNL     1      13.946  42.398  17.257  1.00  0.00    -0.273 OA
BRANCH  21  23
HETATM   23  C11 UNL     1      13.576  42.763  14.907  1.00  0.00     0.106 A 
HETATM   24  C12 UNL     1      14.733  41.789  14.661  1.00  0.00     0.104 A 
HETATM   25 CL1  UNL     1      14.374  40.542  13.446  1.00  0.00    -0.123 Cl
HETATM   26  C13 UNL     1      14.810  43.222  14.242  1.00  0.00    -0.017 A 
HETATM   27  C14 UNL     1      14.757  43.432  12.742  1.00  0.00     0.017 C 
HETATM   28  C15 UNL     1      15.775  44.153  14.945  1.00  0.00     0.017 C 
ENDBRANCH  21  23
ENDBRANCH   1  16
TORSDOF 5
ENDMDL
MODEL 3
REMARK VINA RESULT: -5.924561872      3.280      4.906
REMARK  5 active torsions:
REMARK  status: ('A' for Active; 'I' for Inactive)
REMARK    1  A    between atoms: N1_2  and  C2_4 
REMARK    2  A    between atoms: C3_9  and  N4_10 
REMARK    3  A    between atoms: N4_10  and  C4_12 
REMARK    4  A    between atoms: C4_12  and  C6_14 
REMARK       I    between atoms: N5_18  and  C10_19 
REMARK    5  A    between atoms: C10_19  and  C11_21 
ROOT
HETATM    1  C4  UNL     1      12.739  44.713  17.943  1.00  0.00     0.118 C 
HETATM    2  C5  UNL     1      12.794  45.596  19.135  1.00  0.00     0.035 C 
ENDROOT
BRANCH   1   3
HETATM    3  N4  UNL     1      11.500  43.964  17.989  1.00  0.00    -0.218 N 
ATOM      4  H4  UNL     1      11.518  42.965  17.783  1.00  0.00     0.178 HD
BRANCH   3   5
HETATM    5  C3  UNL     1      10.378  44.519  18.281  1.00  0.00     0.708 A 
HETATM    6  N3  UNL     1       9.415  44.790  17.382  1.00  0.00    -0.117 N 
HETATM    7  N2  UNL     1       8.387  45.362  18.012  1.00  0.00    -0.117 N 
ATOM      8  H3  UNL     1       9.463  44.591  16.382  1.00  0.00     0.206 HD
HETATM    9  C2  UNL     1       8.675  45.465  19.322  1.00  0.00     0.707 A 
ATOM     10  H2  UNL     1       7.521  45.671  17.571  1.00  0.00     0.206 HD
HETATM   11  N6  UNL     1       9.907  44.939  19.465  1.00  0.00    -0.020 N 
ATOM     12  H6  UNL     1      10.411  44.870  20.349  1.00  0.00     0.203 HD
BRANCH   9  13
HETATM   13  N1  UNL     1       7.927  45.966  20.261  1.00  0.00    -0.229 N 
HETATM   14  C1  UNL     1       8.567  46.469  21.449  1.00  0.00     0.165 C 
ATOM     15  H1  UNL     1       6.913  46.002  20.157  1.00  0.00     0.177 HD
ENDBRANCH   9  13
ENDBRANCH   3   5
ENDBRANCH   1   3
BRANCH   1  16
HETATM   16  C6  UNL     1      12.864  45.410  16.629  1.00  0.00     0.110 C 
HETATM   17  C7  UNL     1      13.778  46.582  16.615  1.00  0.00     0.029 C 
HETATM   18  C8  UNL     1      15.041  46.144  15.932  1.00  0.00     0.022 C 
HETATM   19  C9  UNL     1      14.769  44.745  15.494  1.00  0.00     0.126 C 
HETATM   20  N5  UNL     1      13.347  44.534  15.579  1.00  0.00    -0.345 N 
HETATM   21  C10 UNL     1      12.603  43.641  14.775  1.00  0.00     0.226 C 
HETATM   22  O1  UNL     1      11.355  43.607  15.000  1.00  0.00    -0.273 OA
BRANCH  21  23
HETATM   23  C11 UNL     1      13.267  42.827  13.763  1.00  0.00     0.106 A 
HETATM   24  C12 UNL     1      12.510  41.531  13.455  1.00  0.00     0.104 A 
HETATM   25 CL1  UNL     1      12.312  41.212  11.717  1.00  0.00    -0.123 Cl
HETATM   26  C13 UNL     1      13.880  41.517  14.052  1.00  0.00    -0.017 A 
HETATM   27  C14 UNL     1      14.962  41.030  13.108  1.00  0.00     0.017 C 
HETATM   28  C15 UNL     1      14.068  41.040  15.476  1.00  0.00     0.017 C 
ENDBRANCH  21  23
ENDBRANCH   1  16
TORSDOF 5
ENDMDL
MODEL 4
REMARK VINA RESULT: -5.922902863      1.759      2.324
REMARK  5 active torsions:
REMARK  status: ('A' for Active; 'I' for Inactive)
REMARK    1  A    between atoms: N1_2  and  C2_4 
REMARK    2  A    between atoms: C3_9  and  N4_10 
REMARK    3  A    between atoms: N4_10  and  C4_12 
REMARK    4  A    between atoms: C4_12  and  C6_14 
REMARK       I    between atoms: N5_18  and  C10_19 
REMARK    5  A    between atoms: C10_19  and  C11_21 
ROOT
HETATM    1  C4  UNL     1      10.893  44.824  16.800  1.00  0.00     0.118 C 
HETATM    2  C5  UNL     1       9.677  44.712  15.957  1.00  0.00     0.035 C 
ENDROOT
BRANCH   1   3
HETATM    3  N4  UNL     1      10.569  44.354  18.132  1.00  0.00    -0.218 N 
ATOM      4  H4  UNL     1      10.921  43.446  18.436  1.00  0.00     0.178 HD
BRANCH   3   5
HETATM    5  C3  UNL     1       9.850  45.046  18.943  1.00  0.00     0.708 A 
HETATM    6  N3  UNL     1       8.510  44.965  19.019  1.00  0.00    -0.117 N 
HETATM    7  N2  UNL     1       8.082  45.811  19.958  1.00  0.00    -0.117 N 
ATOM      8  H3  UNL     1       7.919  44.358  18.452  1.00  0.00     0.206 HD
HETATM    9  C2  UNL     1       9.139  46.445  20.497  1.00  0.00     0.707 A 
ATOM     10  H2  UNL     1       7.108  45.954  20.224  1.00  0.00     0.206 HD
HETATM   11  N6  UNL     1      10.219  45.958  19.856  1.00  0.00    -0.020 N 
ATOM     12  H6  UNL     1      11.181  46.241  20.040  1.00  0.00     0.203 HD
BRANCH   9  13
HETATM   13  N1  UNL     1       9.129  47.342  21.439  1.00  0.00    -0.229 N 
HETATM   14  C1  UNL     1       9.873  48.558  21.233  1.00  0.00     0.165 C 
ATOM     15  H1  UNL     1       8.608  47.188  22.302  1.00  0.00     0.177 HD
ENDBRANCH   9  13
ENDBRANCH   3   5
ENDBRANCH   1   3
BRANCH   1  16
HETATM   16  C6  UNL     1      12.093  44.101  16.285  1.00  0.00     0.110 C 
HETATM   17  C7  UNL     1      11.993  43.621  14.882  1.00  0.00     0.029 C 
HETATM   18  C8  UNL     1      12.817  44.551  14.040  1.00  0.00     0.022 C 
HETATM   19  C9  UNL     1      13.440  45.492  15.015  1.00  0.00     0.126 C 
HETATM   20  N5  UNL     1      13.293  44.915  16.326  1.00  0.00    -0.345 N 
HETATM   21  C10 UNL     1      14.171  45.123  17.414  1.00  0.00     0.226 C 
HETATM   22  O1  UNL     1      13.870  44.517  18.487  1.00  0.00    -0.273 OA
BRANCH  21  23
HETATM   23  C11 UNL     1      15.335  45.990  17.271  1.00  0.00     0.106 A 
HETATM   24  C12 UNL     1      16.595  45.226  16.854  1.00  0.00     0.104 A 
HETATM   25 CL1  UNL     1      17.485  45.986  15.515  1.00  0.00    -0.123 Cl
HETATM   26  C13 UNL     1      16.505  45.931  18.169  1.00  0.00    -0.017 A 
HETATM   27  C14 UNL     1      17.371  47.170  18.268  1.00  0.00     0.017 C 
HETATM   28  C15 UNL     1      16.467  45.121  19.447  1.00  0.00     0.017 C 
ENDBRANCH  21  23
ENDBRANCH   1  16
TORSDOF 5
ENDMDL
MODEL 5
REMARK VINA RESULT: -5.910205636      1.154      1.530
REMARK  5 active torsions:
REMARK  status: ('A' for Active; 'I' for Inactive)
REMARK    1  A    between atoms: N1_2  and  C2_4 
REMARK    2  A    between atoms: C3_9  and  N4_10 
REMARK    3  A    between atoms: N4_10  and  C4_12 
REMARK    4  A    between atoms: C4_12  and  C6_14 
REMARK       I    between atoms: N5_18  and  C10_19 
REMARK    5  A    between atoms: C10_19  and  C11_21 
ROOT
HETATM    1  C4  UNL     1      12.334  44.297  17.059  1.00  0.00     0.118 C 
HETATM    2  C5  UNL     1      11.512  44.054  15.847  1.00  0.00     0.035 C 
ENDROOT
BRANCH   1   3
HETATM    3  N4  UNL     1      11.500  44.088  18.224  1.00  0.00    -0.218 N 
ATOM      4  H4  UNL     1      11.084  43.169  18.377  1.00  0.00     0.178 HD
BRANCH   3   5
HETATM    5  C3  UNL     1      11.267  45.025  19.073  1.00  0.00     0.708 A 
HETATM    6  N3  UNL     1      12.224  45.693  19.740  1.00  0.00    -0.117 N 
HETATM    7  N2  UNL     1      11.645  46.594  20.536  1.00  0.00    -0.117 N 
ATOM      8  H3  UNL     1      13.229  45.537  19.652  1.00  0.00     0.206 HD
HETATM    9  C2  UNL     1      10.309  46.517  20.390  1.00  0.00     0.707 A 
ATOM     10  H2  UNL     1      12.137  47.239  21.154  1.00  0.00     0.206 HD
HETATM   11  N6  UNL     1      10.098  45.543  19.484  1.00  0.00    -0.020 N 
ATOM     12  H6  UNL     1       9.181  45.242  19.156  1.00  0.00     0.203 HD
BRANCH   9  13
HETATM   13  N1  UNL     1       9.405  47.230  20.995  1.00  0.00    -0.229 N 
HETATM   14  C1  UNL     1       9.700  48.611  21.279  1.00  0.00     0.165 C 
ATOM     15  H1  UNL     1       8.510  46.821  21.262  1.00  0.00     0.177 HD
ENDBRANCH   9  13
ENDBRANCH   3   5
ENDBRANCH   1   3
BRANCH   1  16
HETATM   16  C6  UNL     1      13.572  43.470  17.165  1.00  0.00     0.110 C 
HETATM   17  C7  UNL     1      13.695  42.378  16.164  1.00  0.00     0.029 C 
HETATM   18  C8  UNL     1      14.693  42.833  15.140  1.00  0.00     0.022 C 
HETATM   19  C9  UNL     1      15.180  44.149  15.644  1.00  0.00     0.126 C 
HETATM   20  N5  UNL     1      14.782  44.257  17.024  1.00  0.00    -0.345 N 
HETATM   21  C10 UNL     1      15.465  44.994  18.017  1.00  0.00     0.226 C 
HETATM   22  O1  UNL     1      14.956  44.956  19.179  1.00  0.00    -0.273 OA
BRANCH  21  23
HETATM   23  C11 UNL     1      16.675  45.739  17.686  1.00  0.00     0.106 A 
HETATM   24  C12 UNL     1      17.920  44.849  17.618  1.00  0.00     0.104 A 
HETATM   25 CL1  UNL     1      18.917  45.119  16.171  1.00  0.00    -0.123 Cl
HETATM   26  C13 UNL     1      17.788  45.939  18.632  1.00  0.00    -0.017 A 
HETATM   27  C14 UNL     1      18.704  47.123  18.391  1.00  0.00     0.017 C 
HETATM   28  C15 UNL     1      17.642  45.582  20.096  1.00  0.00     0.017 C 
ENDBRANCH  21  23
ENDBRANCH   1  16
TORSDOF 5
ENDMDL
