MODEL 1
REMARK VINA RESULT: -6.035198673      0.000      0.000
REMARK  3 active torsions:
REMARK  status: ('A' for Active; 'I' for Inactive)
REMARK    1  A    between atoms: N3_11  and  C8_13 
REMARK    2  A    between atoms: C8_13  and  C9_14 
REMARK    3  A    between atoms: C9_14  and  O1_15 
ROOT
HETATM    1  C1  UNL     1      13.808  44.045  15.581  1.00  0.00     0.044 C 
HETATM    2  C2  UNL     1      12.367  44.070  16.027  1.00  0.00     0.231 C 
HETATM    3  N1  UNL     1      11.519  44.816  15.154  1.00  0.00     0.093 N 
HETATM    4  C3  UNL     1      11.896  44.808  13.782  1.00  0.00     0.310 C 
HETATM    5  C4  UNL     1      10.173  44.241  15.369  1.00  0.00     0.313 C 
HETATM    6  C5  UNL     1       9.805  44.741  16.728  1.00  0.00    -0.006 A 
HETATM    7  C6  UNL     1       8.478  45.041  17.008  1.00  0.00     0.099 A 
HETATM    8  N2  UNL     1       8.129  45.501  18.202  1.00  0.00    -0.351 N 
ATOM      9  H2  UNL     1       7.149  45.715  18.386  1.00  0.00     0.166 HD
HETATM   10  C7  UNL     1       9.061  45.697  19.204  1.00  0.00     0.119 A 
HETATM   11  N3  UNL     1       8.625  46.140  20.310  1.00  0.00    -0.373 N 
ATOM     12  H3  UNL     1       7.616  46.291  20.294  1.00  0.00     0.161 HD
HETATM   13  C10 UNL     1      10.368  45.392  18.903  1.00  0.00     0.062 A 
HETATM   14 BR1  UNL     1      11.708  45.645  20.208  1.00  0.00    -0.046 Br
HETATM   15  C11 UNL     1      10.792  44.905  17.665  1.00  0.00    -0.018 A 
HETATM   16  C12 UNL     1      12.209  44.597  17.432  1.00  0.00     0.012 C 
HETATM   17  C13 UNL     1      13.104  45.808  17.587  1.00  0.00     0.022 C 
HETATM   18  C14 UNL     1      12.635  43.479  18.363  1.00  0.00     0.022 C 
ENDROOT
BRANCH  11  19
HETATM   19  C8  UNL     1       9.186  46.471  21.540  1.00  0.00     0.147 C 
BRANCH  19  20
HETATM   20  C9  UNL     1       9.295  48.001  21.728  1.00  0.00     0.183 C 
BRANCH  20  21
HETATM   21  O1  UNL     1       8.152  48.396  22.418  1.00  0.00    -0.399 OA
ATOM     22  H1  UNL     1       8.370  49.211  22.854  1.00  0.00     0.209 HD
ENDBRANCH  20  21
ENDBRANCH  19  20
ENDBRANCH  11  19
TORSDOF 3
ENDMDL
MODEL 2
REMARK VINA RESULT: -5.903213114      3.632      5.099
REMARK  3 active torsions:
REMARK  status: ('A' for Active; 'I' for Inactive)
REMARK    1  A    between atoms: N3_11  and  C8_13 
REMARK    2  A    between atoms: C8_13  and  C9_14 
REMARK    3  A    between atoms: C9_14  and  O1_15 
ROOT
HETATM    1  C1  UNL     1      11.052  43.453  13.944  1.00  0.00     0.044 C 
HETATM    2  C2  UNL     1      11.372  43.699  15.398  1.00  0.00     0.231 C 
HETATM    3  N1  UNL     1      10.660  44.805  15.953  1.00  0.00     0.093 N 
HETATM    4  C3  UNL     1       9.370  45.040  15.401  1.00  0.00     0.310 C 
HETATM    5  C4  UNL     1      10.606  44.517  17.403  1.00  0.00     0.313 C 
HETATM    6  C5  UNL     1      12.015  44.747  17.845  1.00  0.00    -0.006 A 
HETATM    7  C6  UNL     1      12.256  45.266  19.111  1.00  0.00     0.099 A 
HETATM    8  N2  UNL     1      13.496  45.493  19.521  1.00  0.00    -0.351 N 
ATOM      9  H2  UNL     1      13.651  45.875  20.454  1.00  0.00     0.166 HD
HETATM   10  C7  UNL     1      14.587  45.226  18.714  1.00  0.00     0.119 A 
HETATM   11  N3  UNL     1      15.732  45.479  19.200  1.00  0.00    -0.373 N 
ATOM     12  H3  UNL     1      15.675  45.855  20.146  1.00  0.00     0.161 HD
HETATM   13  C10 UNL     1      14.323  44.713  17.466  1.00  0.00     0.062 A 
HETATM   14 BR1  UNL     1      15.752  44.333  16.293  1.00  0.00    -0.046 Br
HETATM   15  C11 UNL     1      13.039  44.453  16.983  1.00  0.00    -0.018 A 
HETATM   16  C12 UNL     1      12.848  43.895  15.638  1.00  0.00     0.012 C 
HETATM   17  C13 UNL     1      13.388  44.797  14.549  1.00  0.00     0.022 C 
HETATM   18  C14 UNL     1      13.483  42.519  15.575  1.00  0.00     0.022 C 
ENDROOT
BRANCH  11  19
HETATM   19  C8  UNL     1      17.047  45.368  18.757  1.00  0.00     0.147 C 
BRANCH  19  20
HETATM   20  C9  UNL     1      17.843  46.672  18.994  1.00  0.00     0.183 C 
BRANCH  20  21
HETATM   21  O1  UNL     1      17.034  47.714  18.551  1.00  0.00    -0.399 OA
ATOM     22  H1  UNL     1      17.617  48.423  18.309  1.00  0.00     0.209 HD
ENDBRANCH  20  21
ENDBRANCH  19  20
ENDBRANCH  11  19
TORSDOF 3
ENDMDL
MODEL 3
REMARK VINA RESULT: -5.579586955      1.481      2.121
REMARK  3 active torsions:
REMARK  status: ('A' for Active; 'I' for Inactive)
REMARK    1  A    between atoms: N3_11  and  C8_13 
REMARK    2  A    between atoms: C8_13  and  C9_14 
REMARK    3  A    between atoms: C9_14  and  O1_15 
ROOT
HETATM    1  C1  UNL     1      15.265  44.218  14.944  1.00  0.00     0.044 C 
HETATM    2  C2  UNL     1      13.758  44.186  14.886  1.00  0.00     0.231 C 
HETATM    3  N1  UNL     1      13.203  45.215  14.068  1.00  0.00     0.093 N 
HETATM    4  C3  UNL     1      14.004  45.616  12.963  1.00  0.00     0.310 C 
HETATM    5  C4  UNL     1      11.890  44.681  13.645  1.00  0.00     0.313 C 
HETATM    6  C5  UNL     1      11.077  44.751  14.897  1.00  0.00    -0.006 A 
HETATM    7  C6  UNL     1       9.718  45.025  14.814  1.00  0.00     0.099 A 
HETATM    8  N2  UNL     1       8.979  45.107  15.913  1.00  0.00    -0.351 N 
ATOM      9  H2  UNL     1       7.983  45.309  15.828  1.00  0.00     0.166 HD
HETATM   10  C7  UNL     1       9.526  44.924  17.169  1.00  0.00     0.119 A 
HETATM   11  N3  UNL     1       8.734  45.024  18.156  1.00  0.00    -0.373 N 
ATOM     12  H3  UNL     1       7.778  45.231  17.864  1.00  0.00     0.161 HD
HETATM   13  C10 UNL     1      10.873  44.654  17.226  1.00  0.00     0.062 A 
HETATM   14 BR1  UNL     1      11.705  44.407  18.902  1.00  0.00    -0.046 Br
HETATM   15  C11 UNL     1      11.698  44.556  16.104  1.00  0.00    -0.018 A 
HETATM   16  C12 UNL     1      13.128  44.254  16.255  1.00  0.00     0.012 C 
HETATM   17  C13 UNL     1      13.864  45.301  17.063  1.00  0.00     0.022 C 
HETATM   18  C14 UNL     1      13.284  42.877  16.872  1.00  0.00     0.022 C 
ENDROOT
BRANCH  11  19
HETATM   19  C8  UNL     1       8.850  44.919  19.539  1.00  0.00     0.147 C 
BRANCH  19  20
HETATM   20  C9  UNL     1       8.703  46.293  20.232  1.00  0.00     0.183 C 
BRANCH  20  21
HETATM   21  O1  UNL     1       7.840  46.103  21.307  1.00  0.00    -0.399 OA
ATOM     22  H1  UNL     1       7.336  45.322  21.112  1.00  0.00     0.209 HD
ENDBRANCH  20  21
ENDBRANCH  19  20
ENDBRANCH  11  19
TORSDOF 3
ENDMDL
MODEL 4
REMARK VINA RESULT: -5.578141861      3.721      5.145
REMARK  3 active torsions:
REMARK  status: ('A' for Active; 'I' for Inactive)
REMARK    1  A    between atoms: N3_11  and  C8_13 
REMARK    2  A    between atoms: C8_13  and  C9_14 
REMARK    3  A    between atoms: C9_14  and  O1_15 
ROOT
HETATM    1  C1  UNL     1      11.088  43.415  13.873  1.00  0.00     0.044 C 
HETATM    2  C2  UNL     1      11.377  43.664  15.332  1.00  0.00     0.231 C 
HETATM    3  N1  UNL     1      10.654  44.772  15.869  1.00  0.00     0.093 N 
HETATM    4  C3  UNL     1       9.375  45.005  15.290  1.00  0.00     0.310 C 
HETATM    5  C4  UNL     1      10.570  44.488  17.318  1.00  0.00     0.313 C 
HETATM    6  C5  UNL     1      11.969  44.720  17.790  1.00  0.00    -0.006 A 
HETATM    7  C6  UNL     1      12.183  45.242  19.059  1.00  0.00     0.099 A 
HETATM    8  N2  UNL     1      13.415  45.471  19.494  1.00  0.00    -0.351 N 
ATOM      9  H2  UNL     1      13.550  45.855  20.429  1.00  0.00     0.166 HD
HETATM   10  C7  UNL     1      14.522  45.201  18.710  1.00  0.00     0.119 A 
HETATM   11  N3  UNL     1      15.656  45.456  19.219  1.00  0.00    -0.373 N 
ATOM     12  H3  UNL     1      15.580  45.835  20.163  1.00  0.00     0.161 HD
HETATM   13  C10 UNL     1      14.284  44.685  17.458  1.00  0.00     0.062 A 
HETATM   14 BR1  UNL     1      15.737  44.302  16.316  1.00  0.00    -0.046 Br
HETATM   15  C11 UNL     1      13.010  44.424  16.950  1.00  0.00    -0.018 A 
HETATM   16  C12 UNL     1      12.848  43.861  15.602  1.00  0.00     0.012 C 
HETATM   17  C13 UNL     1      13.410  44.760  14.522  1.00  0.00     0.022 C 
HETATM   18  C14 UNL     1      13.484  42.486  15.556  1.00  0.00     0.022 C 
ENDROOT
BRANCH  11  19
HETATM   19  C8  UNL     1      16.980  45.344  18.803  1.00  0.00     0.147 C 
BRANCH  19  20
HETATM   20  C9  UNL     1      17.917  44.958  19.971  1.00  0.00     0.183 C 
BRANCH  20  21
HETATM   21  O1  UNL     1      17.229  44.020  20.736  1.00  0.00    -0.399 OA
ATOM     22  H1  UNL     1      17.608  44.052  21.606  1.00  0.00     0.209 HD
ENDBRANCH  20  21
ENDBRANCH  19  20
ENDBRANCH  11  19
TORSDOF 3
ENDMDL
MODEL 5
REMARK VINA RESULT: -5.434136376      2.275      3.457
REMARK  3 active torsions:
REMARK  status: ('A' for Active; 'I' for Inactive)
REMARK    1  A    between atoms: N3_11  and  C8_13 
REMARK    2  A    between atoms: C8_13  and  C9_14 
REMARK    3  A    between atoms: C9_14  and  O1_15 
ROOT
HETATM    1  C1  UNL     1      17.065  44.761  15.669  1.00  0.00     0.044 C 
HETATM    2  C2  UNL     1      15.643  44.315  15.443  1.00  0.00     0.231 C 
HETATM    3  N1  UNL     1      15.060  44.862  14.260  1.00  0.00     0.093 N 
HETATM    4  C3  UNL     1      15.966  45.106  13.190  1.00  0.00     0.310 C 
HETATM    5  C4  UNL     1      14.002  43.896  13.891  1.00  0.00     0.313 C 
HETATM    6  C5  UNL     1      12.957  44.124  14.935  1.00  0.00    -0.006 A 
HETATM    7  C6  UNL     1      11.617  43.989  14.598  1.00  0.00     0.099 A 
HETATM    8  N2  UNL     1      10.670  44.201  15.503  1.00  0.00    -0.351 N 
ATOM      9  H2  UNL     1       9.692  44.097  15.235  1.00  0.00     0.166 HD
HETATM   10  C7  UNL     1      10.978  44.560  16.803  1.00  0.00     0.119 A 
HETATM   11  N3  UNL     1      10.000  44.739  17.591  1.00  0.00    -0.373 N 
ATOM     12  H3  UNL     1       9.101  44.587  17.133  1.00  0.00     0.161 HD
HETATM   13  C10 UNL     1      12.312  44.687  17.111  1.00  0.00     0.062 A 
HETATM   14 BR1  UNL     1      12.821  45.189  18.858  1.00  0.00    -0.046 Br
HETATM   15  C11 UNL     1      13.348  44.476  16.200  1.00  0.00    -0.018 A 
HETATM   16  C12 UNL     1      14.749  44.625  16.618  1.00  0.00     0.012 C 
HETATM   17  C13 UNL     1      15.069  46.024  17.100  1.00  0.00     0.022 C 
HETATM   18  C14 UNL     1      15.063  43.593  17.684  1.00  0.00     0.022 C 
ENDROOT
BRANCH  11  19
HETATM   19  C8  UNL     1       9.853  45.094  18.929  1.00  0.00     0.147 C 
BRANCH  19  20
HETATM   20  C9  UNL     1       8.365  45.179  19.340  1.00  0.00     0.183 C 
BRANCH  20  21
HETATM   21  O1  UNL     1       7.628  45.152  18.160  1.00  0.00    -0.399 OA
ATOM     22  H1  UNL     1       8.256  45.071  17.453  1.00  0.00     0.209 HD
ENDBRANCH  20  21
ENDBRANCH  19  20
ENDBRANCH  11  19
TORSDOF 3
ENDMDL
