MODEL 1
REMARK VINA RESULT: -7.050650589      0.000      0.000
REMARK  5 active torsions:
REMARK  status: ('A' for Active; 'I' for Inactive)
REMARK    1  A    between atoms: C2_2  and  C4_4 
REMARK    2  A    between atoms: C5_6  and  C6_7 
REMARK    3  A    between atoms: C6_7  and  O2_8 
REMARK    4  A    between atoms: C6_7  and  C7_10 
REMARK    5  A    between atoms: C7_10  and  O3_11 
ROOT
HETATM    1  C4  UNL     1      38.184  24.827  15.780  1.00  0.00     0.130 C 
HETATM    2  O1  UNL     1      39.219  25.356  16.439  1.00  0.00    -0.367 OA
HETATM    3  C5  UNL     1      39.789  24.857  17.535  1.00  0.00     0.111 C 
HETATM    4  C8  UNL     1      39.694  25.856  18.624  1.00  0.00     0.011 C 
HETATM    5  C9  UNL     1      39.372  25.342  19.789  1.00  0.00    -0.018 C 
HETATM    6  C10 UNL     1      39.202  23.877  19.615  1.00  0.00    -0.023 C 
HETATM    7  C11 UNL     1      37.837  23.571  20.224  1.00  0.00     0.019 C 
HETATM    8  C12 UNL     1      40.187  23.071  20.429  1.00  0.00     0.019 C 
HETATM    9  C13 UNL     1      39.275  23.614  18.137  1.00  0.00     0.039 C 
HETATM   10  C14 UNL     1      38.066  23.006  17.542  1.00  0.00     0.016 C 
HETATM   11  C15 UNL     1      37.373  23.759  16.456  1.00  0.00     0.011 C 
HETATM   12  C16 UNL     1      35.999  24.247  16.894  1.00  0.00     0.012 C 
ENDROOT
BRANCH   3  13
HETATM   13  C6  UNL     1      41.303  24.776  17.237  1.00  0.00     0.180 C 
BRANCH  13  14
HETATM   14  O2  UNL     1      41.820  25.924  16.716  1.00  0.00    -0.390 OA
ATOM     15  H2  UNL     1      42.154  25.826  15.832  1.00  0.00     0.210 HD
ENDBRANCH  13  14
BRANCH  13  16
HETATM   16  C7  UNL     1      41.497  23.579  16.331  1.00  0.00     0.199 C 
BRANCH  16  17
HETATM   17  O3  UNL     1      42.590  23.791  15.474  1.00  0.00    -0.398 OA
ATOM     18  H3  UNL     1      42.702  23.047  14.894  1.00  0.00     0.209 HD
ENDBRANCH  16  17
ENDBRANCH  13  16
ENDBRANCH   3  13
BRANCH   1  19
HETATM   19  C2  UNL     1      38.457  24.516  14.318  1.00  0.00     0.007 C 
HETATM   20  C1  UNL     1      39.584  25.192  13.682  1.00  0.00     0.012 C 
HETATM   21  C3  UNL     1      38.574  23.025  14.082  1.00  0.00     0.012 C 
ENDBRANCH   1  19
TORSDOF 5
ENDMDL
MODEL 2
REMARK VINA RESULT: -6.997881457      2.625      3.771
REMARK  5 active torsions:
REMARK  status: ('A' for Active; 'I' for Inactive)
REMARK    1  A    between atoms: C2_2  and  C4_4 
REMARK    2  A    between atoms: C5_6  and  C6_7 
REMARK    3  A    between atoms: C6_7  and  O2_8 
REMARK    4  A    between atoms: C6_7  and  C7_10 
REMARK    5  A    between atoms: C7_10  and  O3_11 
ROOT
HETATM    1  C4  UNL     1      37.859  27.514  16.479  1.00  0.00     0.130 C 
HETATM    2  O1  UNL     1      39.121  27.285  16.104  1.00  0.00    -0.367 OA
HETATM    3  C5  UNL     1      39.638  26.103  15.770  1.00  0.00     0.111 C 
HETATM    4  C8  UNL     1      40.764  25.796  16.683  1.00  0.00     0.011 C 
HETATM    5  C9  UNL     1      40.789  24.549  17.093  1.00  0.00    -0.018 C 
HETATM    6  C10 UNL     1      39.635  23.840  16.484  1.00  0.00    -0.023 C 
HETATM    7  C11 UNL     1      38.932  23.165  17.658  1.00  0.00     0.019 C 
HETATM    8  C12 UNL     1      40.055  22.711  15.571  1.00  0.00     0.019 C 
HETATM    9  C13 UNL     1      38.802  24.891  15.807  1.00  0.00     0.039 C 
HETATM   10  C14 UNL     1      37.417  25.022  16.308  1.00  0.00     0.016 C 
HETATM   11  C15 UNL     1      37.002  26.342  16.865  1.00  0.00     0.011 C 
HETATM   12  C16 UNL     1      36.740  26.267  18.363  1.00  0.00     0.012 C 
ENDROOT
BRANCH   3  13
HETATM   13  C6  UNL     1      40.317  26.301  14.397  1.00  0.00     0.180 C 
BRANCH  13  14
HETATM   14  O2  UNL     1      41.084  27.426  14.322  1.00  0.00    -0.390 OA
ATOM     15  H2  UNL     1      40.587  28.232  14.404  1.00  0.00     0.210 HD
ENDBRANCH  13  14
BRANCH  13  16
HETATM   16  C7  UNL     1      39.211  26.272  13.365  1.00  0.00     0.199 C 
BRANCH  16  17
HETATM   17  O3  UNL     1      39.510  27.150  12.309  1.00  0.00    -0.398 OA
ATOM     18  H3  UNL     1      38.935  26.984  11.571  1.00  0.00     0.209 HD
ENDBRANCH  16  17
ENDBRANCH  13  16
ENDBRANCH   3  13
BRANCH   1  19
HETATM   19  C2  UNL     1      37.116  28.524  15.621  1.00  0.00     0.007 C 
HETATM   20  C1  UNL     1      36.024  29.265  16.246  1.00  0.00     0.012 C 
HETATM   21  C3  UNL     1      38.069  29.500  14.966  1.00  0.00     0.012 C 
ENDBRANCH   1  19
TORSDOF 5
ENDMDL
MODEL 3
REMARK VINA RESULT: -6.941014585      1.820      3.112
REMARK  5 active torsions:
REMARK  status: ('A' for Active; 'I' for Inactive)
REMARK    1  A    between atoms: C2_2  and  C4_4 
REMARK    2  A    between atoms: C5_6  and  C6_7 
REMARK    3  A    between atoms: C6_7  and  O2_8 
REMARK    4  A    between atoms: C6_7  and  C7_10 
REMARK    5  A    between atoms: C7_10  and  O3_11 
ROOT
HETATM    1  C4  UNL     1      39.683  26.495  15.439  1.00  0.00     0.130 C 
HETATM    2  O1  UNL     1      40.416  25.490  15.928  1.00  0.00    -0.367 OA
HETATM    3  C5  UNL     1      40.044  24.213  16.002  1.00  0.00     0.111 C 
HETATM    4  C8  UNL     1      40.078  23.785  17.420  1.00  0.00     0.011 C 
HETATM    5  C9  UNL     1      39.052  23.047  17.776  1.00  0.00    -0.018 C 
HETATM    6  C10 UNL     1      38.167  22.888  16.594  1.00  0.00    -0.023 C 
HETATM    7  C11 UNL     1      36.781  23.287  17.092  1.00  0.00     0.019 C 
HETATM    8  C12 UNL     1      38.030  21.449  16.153  1.00  0.00     0.019 C 
HETATM    9  C13 UNL     1      38.711  23.800  15.531  1.00  0.00     0.039 C 
HETATM   10  C14 UNL     1      37.785  24.855  15.067  1.00  0.00     0.016 C 
HETATM   11  C15 UNL     1      38.213  26.275  15.229  1.00  0.00     0.011 C 
HETATM   12  C16 UNL     1      37.352  27.013  16.246  1.00  0.00     0.012 C 
ENDROOT
BRANCH   3  13
HETATM   13  C6  UNL     1      41.175  23.394  15.340  1.00  0.00     0.180 C 
BRANCH  13  14
HETATM   14  O2  UNL     1      42.404  23.618  15.884  1.00  0.00    -0.390 OA
ATOM     15  H2  UNL     1      42.839  22.828  16.183  1.00  0.00     0.210 HD
ENDBRANCH  13  14
BRANCH  13  16
HETATM   16  C7  UNL     1      41.120  23.709  13.860  1.00  0.00     0.199 C 
BRANCH  16  17
HETATM   17  O3  UNL     1      42.377  24.149  13.411  1.00  0.00    -0.398 OA
ATOM     18  H3  UNL     1      42.812  24.648  14.093  1.00  0.00     0.209 HD
ENDBRANCH  16  17
ENDBRANCH  13  16
ENDBRANCH   3  13
BRANCH   1  19
HETATM   19  C2  UNL     1      40.330  27.251  14.290  1.00  0.00     0.007 C 
HETATM   20  C1  UNL     1      39.496  27.563  13.134  1.00  0.00     0.012 C 
HETATM   21  C3  UNL     1      41.006  28.517  14.772  1.00  0.00     0.012 C 
ENDBRANCH   1  19
TORSDOF 5
ENDMDL
MODEL 4
REMARK VINA RESULT: -6.871233613      1.607      4.107
REMARK  5 active torsions:
REMARK  status: ('A' for Active; 'I' for Inactive)
REMARK    1  A    between atoms: C2_2  and  C4_4 
REMARK    2  A    between atoms: C5_6  and  C6_7 
REMARK    3  A    between atoms: C6_7  and  O2_8 
REMARK    4  A    between atoms: C6_7  and  C7_10 
REMARK    5  A    between atoms: C7_10  and  O3_11 
ROOT
HETATM    1  C4  UNL     1      39.304  23.783  19.064  1.00  0.00     0.130 C 
HETATM    2  O1  UNL     1      39.804  24.023  17.848  1.00  0.00    -0.367 OA
HETATM    3  C5  UNL     1      39.835  25.203  17.231  1.00  0.00     0.111 C 
HETATM    4  C8  UNL     1      39.085  25.099  15.957  1.00  0.00     0.011 C 
HETATM    5  C9  UNL     1      38.315  26.133  15.710  1.00  0.00    -0.018 C 
HETATM    6  C10 UNL     1      38.457  27.094  16.834  1.00  0.00    -0.023 C 
HETATM    7  C11 UNL     1      37.026  27.394  17.269  1.00  0.00     0.019 C 
HETATM    8  C12 UNL     1      39.027  28.425  16.401  1.00  0.00     0.019 C 
HETATM    9  C13 UNL     1      39.273  26.397  17.886  1.00  0.00     0.039 C 
HETATM   10  C14 UNL     1      38.602  26.218  19.192  1.00  0.00     0.016 C 
HETATM   11  C15 UNL     1      38.425  24.825  19.695  1.00  0.00     0.011 C 
HETATM   12  C16 UNL     1      36.958  24.419  19.732  1.00  0.00     0.012 C 
ENDROOT
BRANCH   3  13
HETATM   13  C6  UNL     1      41.298  25.419  16.784  1.00  0.00     0.180 C 
BRANCH  13  14
HETATM   14  O2  UNL     1      41.592  26.715  16.478  1.00  0.00    -0.390 OA
ATOM     15  H2  UNL     1      41.065  27.348  16.953  1.00  0.00     0.210 HD
ENDBRANCH  13  14
BRANCH  13  16
HETATM   16  C7  UNL     1      41.535  24.473  15.627  1.00  0.00     0.199 C 
BRANCH  16  17
HETATM   17  O3  UNL     1      42.355  23.406  16.034  1.00  0.00    -0.398 OA
ATOM     18  H3  UNL     1      42.759  22.996  15.278  1.00  0.00     0.209 HD
ENDBRANCH  16  17
ENDBRANCH  13  16
ENDBRANCH   3  13
BRANCH   1  19
HETATM   19  C2  UNL     1      40.291  23.178  20.047  1.00  0.00     0.007 C 
HETATM   20  C1  UNL     1      41.381  24.028  20.519  1.00  0.00     0.012 C 
HETATM   21  C3  UNL     1      39.583  22.570  21.239  1.00  0.00     0.012 C 
ENDBRANCH   1  19
TORSDOF 5
ENDMDL
MODEL 5
REMARK VINA RESULT: -6.803332744      2.283      3.574
REMARK  5 active torsions:
REMARK  status: ('A' for Active; 'I' for Inactive)
REMARK    1  A    between atoms: C2_2  and  C4_4 
REMARK    2  A    between atoms: C5_6  and  C6_7 
REMARK    3  A    between atoms: C6_7  and  O2_8 
REMARK    4  A    between atoms: C6_7  and  C7_10 
REMARK    5  A    between atoms: C7_10  and  O3_11 
ROOT
HETATM    1  C4  UNL     1      40.557  27.346  16.034  1.00  0.00     0.130 C 
HETATM    2  O1  UNL     1      41.144  26.160  15.850  1.00  0.00    -0.367 OA
HETATM    3  C5  UNL     1      40.568  24.968  16.000  1.00  0.00     0.111 C 
HETATM    4  C8  UNL     1      41.307  24.205  17.033  1.00  0.00     0.011 C 
HETATM    5  C9  UNL     1      40.530  23.553  17.868  1.00  0.00    -0.018 C 
HETATM    6  C10 UNL     1      39.120  23.813  17.482  1.00  0.00    -0.023 C 
HETATM    7  C11 UNL     1      38.444  24.267  18.773  1.00  0.00     0.019 C 
HETATM    8  C12 UNL     1      38.383  22.559  17.070  1.00  0.00     0.019 C 
HETATM    9  C13 UNL     1      39.159  24.873  16.418  1.00  0.00     0.039 C 
HETATM   10  C14 UNL     1      38.450  26.128  16.747  1.00  0.00     0.016 C 
HETATM   11  C15 UNL     1      39.244  27.390  16.761  1.00  0.00     0.011 C 
HETATM   12  C16 UNL     1      39.362  27.970  18.164  1.00  0.00     0.012 C 
ENDROOT
BRANCH   3  13
HETATM   13  C6  UNL     1      40.842  24.187  14.695  1.00  0.00     0.180 C 
BRANCH  13  14
HETATM   14  O2  UNL     1      42.008  24.540  14.081  1.00  0.00    -0.390 OA
ATOM     15  H2  UNL     1      41.932  24.621  13.137  1.00  0.00     0.210 HD
ENDBRANCH  13  14
BRANCH  13  16
HETATM   16  C7  UNL     1      39.628  24.388  13.814  1.00  0.00     0.199 C 
BRANCH  16  17
HETATM   17  O3  UNL     1      39.803  25.518  12.998  1.00  0.00    -0.398 OA
ATOM     18  H3  UNL     1      39.210  25.482  12.256  1.00  0.00     0.209 HD
ENDBRANCH  16  17
ENDBRANCH  13  16
ENDBRANCH   3  13
BRANCH   1  19
HETATM   19  C2  UNL     1      40.585  28.262  14.822  1.00  0.00     0.007 C 
HETATM   20  C1  UNL     1      39.306  28.753  14.318  1.00  0.00     0.012 C 
HETATM   21  C3  UNL     1      41.518  29.435  15.038  1.00  0.00     0.012 C 
ENDBRANCH   1  19
TORSDOF 5
ENDMDL
