MODEL 1
REMARK VINA RESULT: -7.214403561      0.000      0.000
REMARK  4 active torsions:
REMARK  status: ('A' for Active; 'I' for Inactive)
REMARK    1  A    between atoms: C5_5  and  C6_6 
REMARK    2  A    between atoms: C6_6  and  N1_7 
REMARK    3  A    between atoms: N1_7  and  O1_8 
REMARK       I    between atoms: N1_7  and  C7_10 
REMARK       I    between atoms: C7_10  and  N2_12 
REMARK    4  A    between atoms: N2_12  and  C8_14 
ROOT
HETATM    1  C8  UNL     1      32.358  19.085  19.184  1.00  0.00     0.123 A 
HETATM    2  C9  UNL     1      31.229  19.241  20.126  1.00  0.00     0.091 C 
HETATM    3  N3  UNL     1      30.334  19.350  20.855  1.00  0.00    -0.195 NA
HETATM    4  C10 UNL     1      33.155  17.837  19.316  1.00  0.00     0.050 A 
HETATM    5  C11 UNL     1      32.201  17.952  18.192  1.00  0.00     0.050 A 
ENDROOT
BRANCH   1   6
HETATM    6  N2  UNL     1      33.047  20.284  18.758  1.00  0.00    -0.319 N 
HETATM    7  C7  UNL     1      33.818  21.078  19.675  1.00  0.00     0.343 C 
HETATM    8  N1  UNL     1      34.492  22.237  19.289  1.00  0.00    -0.210 N 
HETATM    9  O2  UNL     1      33.861  20.678  20.859  1.00  0.00    -0.245 OA
ATOM     10  H2  UNL     1      32.986  20.573  17.781  1.00  0.00     0.166 HD
BRANCH   8  11
HETATM   11  C6  UNL     1      35.222  23.058  20.188  1.00  0.00     0.166 C 
BRANCH  11  12
HETATM   12  C5  UNL     1      36.611  23.419  19.855  1.00  0.00     0.010 C 
HETATM   13  C4  UNL     1      37.517  22.789  20.920  1.00  0.00     0.007 C 
HETATM   14  C3  UNL     1      38.854  22.621  20.282  1.00  0.00     0.005 C 
HETATM   15  C2  UNL     1      39.325  23.910  19.704  1.00  0.00    -0.018 C 
HETATM   16  C1  UNL     1      39.686  23.655  18.250  1.00  0.00     0.010 C 
HETATM   17  C14 UNL     1      38.451  25.095  19.882  1.00  0.00     0.009 C 
HETATM   18  C12 UNL     1      36.968  24.841  19.633  1.00  0.00    -0.013 C 
HETATM   19  C13 UNL     1      36.564  25.334  18.262  1.00  0.00     0.010 C 
ENDBRANCH  11  12
ENDBRANCH   8  11
BRANCH   8  20
HETATM   20  O1  UNL     1      34.441  22.592  17.970  1.00  0.00    -0.283 OA
ATOM     21  H1  UNL     1      33.913  23.341  17.719  1.00  0.00     0.245 HD
ENDBRANCH   8  20
ENDBRANCH   1   6
TORSDOF 4
ENDMDL
MODEL 2
REMARK VINA RESULT: -7.190397078      5.741      9.008
REMARK  4 active torsions:
REMARK  status: ('A' for Active; 'I' for Inactive)
REMARK    1  A    between atoms: C5_5  and  C6_6 
REMARK    2  A    between atoms: C6_6  and  N1_7 
REMARK    3  A    between atoms: N1_7  and  O1_8 
REMARK       I    between atoms: N1_7  and  C7_10 
REMARK       I    between atoms: C7_10  and  N2_12 
REMARK    4  A    between atoms: N2_12  and  C8_14 
ROOT
HETATM    1  C8  UNL     1      39.350  29.524  15.582  1.00  0.00     0.123 A 
HETATM    2  C9  UNL     1      40.775  29.222  15.336  1.00  0.00     0.091 C 
HETATM    3  N3  UNL     1      41.888  28.974  15.128  1.00  0.00    -0.195 NA
HETATM    4  C10 UNL     1      38.703  30.462  14.626  1.00  0.00     0.050 A 
HETATM    5  C11 UNL     1      38.402  29.018  14.515  1.00  0.00     0.050 A 
ENDROOT
BRANCH   1   6
HETATM    6  N2  UNL     1      38.894  29.542  16.956  1.00  0.00    -0.319 N 
HETATM    7  C7  UNL     1      39.059  28.405  17.820  1.00  0.00     0.343 C 
HETATM    8  N1  UNL     1      38.629  28.396  19.148  1.00  0.00    -0.210 N 
HETATM    9  O2  UNL     1      39.616  27.403  17.322  1.00  0.00    -0.245 OA
ATOM     10  H2  UNL     1      38.444  30.382  17.321  1.00  0.00     0.166 HD
BRANCH   8  11
HETATM   11  C6  UNL     1      38.743  27.269  20.003  1.00  0.00     0.166 C 
BRANCH  11  12
HETATM   12  C5  UNL     1      37.829  26.130  19.806  1.00  0.00     0.010 C 
HETATM   13  C4  UNL     1      38.692  24.885  19.566  1.00  0.00     0.007 C 
HETATM   14  C3  UNL     1      37.861  23.717  19.977  1.00  0.00     0.005 C 
HETATM   15  C2  UNL     1      36.543  23.743  19.285  1.00  0.00    -0.018 C 
HETATM   16  C1  UNL     1      35.464  23.641  20.350  1.00  0.00     0.010 C 
HETATM   17  C14 UNL     1      36.301  24.844  18.322  1.00  0.00     0.009 C 
HETATM   18  C12 UNL     1      36.743  26.222  18.800  1.00  0.00    -0.013 C 
HETATM   19  C13 UNL     1      35.560  27.023  19.294  1.00  0.00     0.010 C 
ENDBRANCH  11  12
ENDBRANCH   8  11
BRANCH   8  20
HETATM   20  O1  UNL     1      38.068  29.541  19.641  1.00  0.00    -0.283 OA
ATOM     21  H1  UNL     1      37.143  29.540  19.856  1.00  0.00     0.245 HD
ENDBRANCH   8  20
ENDBRANCH   1   6
TORSDOF 4
ENDMDL
MODEL 3
REMARK VINA RESULT: -7.170086691      4.591      8.331
REMARK  4 active torsions:
REMARK  status: ('A' for Active; 'I' for Inactive)
REMARK    1  A    between atoms: C5_5  and  C6_6 
REMARK    2  A    between atoms: C6_6  and  N1_7 
REMARK    3  A    between atoms: N1_7  and  O1_8 
REMARK       I    between atoms: N1_7  and  C7_10 
REMARK       I    between atoms: C7_10  and  N2_12 
REMARK    4  A    between atoms: N2_12  and  C8_14 
ROOT
HETATM    1  C8  UNL     1      38.752  28.556  14.895  1.00  0.00     0.123 A 
HETATM    2  C9  UNL     1      40.129  28.168  14.525  1.00  0.00     0.091 C 
HETATM    3  N3  UNL     1      41.207  27.872  14.218  1.00  0.00    -0.195 NA
HETATM    4  C10 UNL     1      38.558  29.969  15.315  1.00  0.00     0.050 A 
HETATM    5  C11 UNL     1      38.108  29.564  13.965  1.00  0.00     0.050 A 
ENDROOT
BRANCH   1   6
HETATM    6  N2  UNL     1      37.911  27.549  15.508  1.00  0.00    -0.319 N 
HETATM    7  C7  UNL     1      38.024  27.220  16.902  1.00  0.00     0.343 C 
HETATM    8  N1  UNL     1      37.226  26.254  17.518  1.00  0.00    -0.210 N 
HETATM    9  O2  UNL     1      38.885  27.848  17.556  1.00  0.00    -0.245 OA
ATOM     10  H2  UNL     1      37.221  27.062  14.936  1.00  0.00     0.166 HD
BRANCH   8  11
HETATM   11  C6  UNL     1      37.352  25.884  18.882  1.00  0.00     0.166 C 
BRANCH  11  12
HETATM   12  C5  UNL     1      37.192  24.466  19.253  1.00  0.00     0.010 C 
HETATM   13  C4  UNL     1      35.827  24.323  19.937  1.00  0.00     0.007 C 
HETATM   14  C3  UNL     1      35.416  22.902  19.748  1.00  0.00     0.005 C 
HETATM   15  C2  UNL     1      36.485  21.980  20.222  1.00  0.00    -0.018 C 
HETATM   16  C1  UNL     1      36.795  21.017  19.088  1.00  0.00     0.010 C 
HETATM   17  C14 UNL     1      37.701  22.592  20.808  1.00  0.00     0.009 C 
HETATM   18  C12 UNL     1      38.251  23.788  20.039  1.00  0.00    -0.013 C 
HETATM   19  C13 UNL     1      39.434  23.381  19.190  1.00  0.00     0.010 C 
ENDBRANCH  11  12
ENDBRANCH   8  11
BRANCH   8  20
HETATM   20  O1  UNL     1      36.274  25.637  16.755  1.00  0.00    -0.283 OA
ATOM     21  H1  UNL     1      35.361  25.859  16.895  1.00  0.00     0.245 HD
ENDBRANCH   8  20
ENDBRANCH   1   6
TORSDOF 4
ENDMDL
MODEL 4
REMARK VINA RESULT: -7.147692952      3.983      7.800
REMARK  4 active torsions:
REMARK  status: ('A' for Active; 'I' for Inactive)
REMARK    1  A    between atoms: C5_5  and  C6_6 
REMARK    2  A    between atoms: C6_6  and  N1_7 
REMARK    3  A    between atoms: N1_7  and  O1_8 
REMARK       I    between atoms: N1_7  and  C7_10 
REMARK       I    between atoms: C7_10  and  N2_12 
REMARK    4  A    between atoms: N2_12  and  C8_14 
ROOT
HETATM    1  C8  UNL     1      39.041  27.629  15.577  1.00  0.00     0.123 A 
HETATM    2  C9  UNL     1      40.435  27.302  15.946  1.00  0.00     0.091 C 
HETATM    3  N3  UNL     1      41.533  27.051  16.217  1.00  0.00    -0.195 NA
HETATM    4  C10 UNL     1      38.680  29.072  15.593  1.00  0.00     0.050 A 
HETATM    5  C11 UNL     1      38.895  28.410  14.288  1.00  0.00     0.050 A 
ENDROOT
BRANCH   1   6
HETATM    6  N2  UNL     1      38.012  26.673  15.924  1.00  0.00    -0.319 N 
HETATM    7  C7  UNL     1      37.627  26.440  17.290  1.00  0.00     0.343 C 
HETATM    8  N1  UNL     1      36.638  25.524  17.651  1.00  0.00    -0.210 N 
HETATM    9  O2  UNL     1      38.228  27.107  18.159  1.00  0.00    -0.245 OA
ATOM     10  H2  UNL     1      37.547  26.151  15.181  1.00  0.00     0.166 HD
BRANCH   8  11
HETATM   11  C6  UNL     1      36.275  25.249  18.994  1.00  0.00     0.166 C 
BRANCH  11  12
HETATM   12  C5  UNL     1      36.381  23.865  19.492  1.00  0.00     0.010 C 
HETATM   13  C4  UNL     1      35.115  23.574  20.307  1.00  0.00     0.007 C 
HETATM   14  C3  UNL     1      34.930  22.094  20.272  1.00  0.00     0.005 C 
HETATM   15  C2  UNL     1      36.170  21.401  20.719  1.00  0.00    -0.018 C 
HETATM   16  C1  UNL     1      36.545  20.396  19.642  1.00  0.00     0.010 C 
HETATM   17  C14 UNL     1      37.310  22.250  21.140  1.00  0.00     0.009 C 
HETATM   18  C12 UNL     1      37.594  23.439  20.230  1.00  0.00    -0.013 C 
HETATM   19  C13 UNL     1      38.759  23.145  19.312  1.00  0.00     0.010 C 
ENDBRANCH  11  12
ENDBRANCH   8  11
BRANCH   8  20
HETATM   20  O1  UNL     1      35.990  24.861  16.646  1.00  0.00    -0.283 OA
ATOM     21  H1  UNL     1      36.505  24.383  16.007  1.00  0.00     0.245 HD
ENDBRANCH   8  20
ENDBRANCH   1   6
TORSDOF 4
ENDMDL
MODEL 5
REMARK VINA RESULT: -7.105793662      4.438      7.890
REMARK  4 active torsions:
REMARK  status: ('A' for Active; 'I' for Inactive)
REMARK    1  A    between atoms: C5_5  and  C6_6 
REMARK    2  A    between atoms: C6_6  and  N1_7 
REMARK    3  A    between atoms: N1_7  and  O1_8 
REMARK       I    between atoms: N1_7  and  C7_10 
REMARK       I    between atoms: C7_10  and  N2_12 
REMARK    4  A    between atoms: N2_12  and  C8_14 
ROOT
HETATM    1  C8  UNL     1      39.551  26.768  14.449  1.00  0.00     0.123 A 
HETATM    2  C9  UNL     1      40.510  25.654  14.285  1.00  0.00     0.091 C 
HETATM    3  N3  UNL     1      41.263  24.785  14.138  1.00  0.00    -0.195 NA
HETATM    4  C10 UNL     1      40.132  28.136  14.468  1.00  0.00     0.050 A 
HETATM    5  C11 UNL     1      39.431  27.681  13.247  1.00  0.00     0.050 A 
ENDROOT
BRANCH   1   6
HETATM    6  N2  UNL     1      38.371  26.526  15.251  1.00  0.00    -0.319 N 
HETATM    7  C7  UNL     1      38.456  26.281  16.665  1.00  0.00     0.343 C 
HETATM    8  N1  UNL     1      37.334  26.046  17.461  1.00  0.00    -0.210 N 
HETATM    9  O2  UNL     1      39.602  26.290  17.164  1.00  0.00    -0.245 OA
ATOM     10  H2  UNL     1      37.455  26.528  14.802  1.00  0.00     0.166 HD
BRANCH   8  11
HETATM   11  C6  UNL     1      37.400  25.761  18.849  1.00  0.00     0.166 C 
BRANCH  11  12
HETATM   12  C5  UNL     1      37.237  24.366  19.298  1.00  0.00     0.010 C 
HETATM   13  C4  UNL     1      35.872  24.265  19.990  1.00  0.00     0.007 C 
HETATM   14  C3  UNL     1      35.456  22.836  19.881  1.00  0.00     0.005 C 
HETATM   15  C2  UNL     1      36.523  21.939  20.404  1.00  0.00    -0.018 C 
HETATM   16  C1  UNL     1      36.828  20.914  19.324  1.00  0.00     0.010 C 
HETATM   17  C14 UNL     1      37.742  22.579  20.954  1.00  0.00     0.009 C 
HETATM   18  C12 UNL     1      38.294  23.729  20.119  1.00  0.00    -0.013 C 
HETATM   19  C13 UNL     1      39.475  23.272  19.293  1.00  0.00     0.010 C 
ENDBRANCH  11  12
ENDBRANCH   8  11
BRANCH   8  20
HETATM   20  O1  UNL     1      36.107  26.096  16.858  1.00  0.00    -0.283 OA
ATOM     21  H1  UNL     1      36.062  26.053  15.910  1.00  0.00     0.245 HD
ENDBRANCH   8  20
ENDBRANCH   1   6
TORSDOF 4
ENDMDL
