MODEL 1
REMARK VINA RESULT: -7.558613943      0.000      0.000
REMARK  4 active torsions:
REMARK  status: ('A' for Active; 'I' for Inactive)
REMARK    1  A    between atoms: C9_10  and  C10_11 
REMARK    2  A    between atoms: C10_11  and  C11_12 
REMARK    3  A    between atoms: C11_12  and  C12_13 
REMARK    4  A    between atoms: C14_15  and  O2_16 
ROOT
HETATM    1  C1  UNL     1      38.196  27.548  19.659  1.00  0.00     0.018 C 
HETATM    2  C2  UNL     1      38.457  26.222  19.009  1.00  0.00    -0.013 C 
HETATM    3  C3  UNL     1      39.456  26.444  17.890  1.00  0.00     0.014 C 
HETATM    4  C4  UNL     1      39.771  25.126  17.237  1.00  0.00     0.033 C 
HETATM    5  C5  UNL     1      38.908  24.072  17.916  1.00  0.00     0.126 C 
HETATM    6  O1  UNL     1      37.581  24.427  17.779  1.00  0.00    -0.374 OA
HETATM    7  C6  UNL     1      37.233  25.598  18.404  1.00  0.00     0.061 C 
HETATM    8  C7  UNL     1      36.584  26.586  17.431  1.00  0.00     0.046 C 
HETATM    9  C8  UNL     1      36.182  25.275  19.450  1.00  0.00     0.046 C 
HETATM   10  C9  UNL     1      39.240  23.936  19.369  1.00  0.00     0.015 C 
HETATM   11  C16 UNL     1      39.041  25.296  20.030  1.00  0.00     0.019 C 
ENDROOT
BRANCH  10  12
HETATM   12  C10 UNL     1      40.651  23.515  19.627  1.00  0.00     0.009 C 
BRANCH  12  13
HETATM   13  C11 UNL     1      41.217  24.139  20.878  1.00  0.00     0.033 C 
BRANCH  13  14
HETATM   14  C12 UNL     1      41.887  23.040  21.676  1.00  0.00     0.188 C 
HETATM   15  C13 UNL     1      40.866  22.333  22.506  1.00  0.00     0.066 C 
HETATM   16  C14 UNL     1      41.511  22.197  23.873  1.00  0.00     0.145 C 
HETATM   17  C15 UNL     1      42.917  22.660  23.636  1.00  0.00     0.264 C 
HETATM   18  N1  UNL     1      42.778  23.709  22.635  1.00  0.00    -0.068 N 
ATOM     19  H12 UNL     1      43.650  24.074  22.251  1.00  0.00     0.277 HD
ATOM     20  H11 UNL     1      42.456  24.613  22.983  1.00  0.00     0.277 HD
BRANCH  16  21
HETATM   21  O2  UNL     1      40.827  22.990  24.791  1.00  0.00    -0.394 OA
ATOM     22  H2  UNL     1      41.449  23.520  25.276  1.00  0.00     0.210 HD
ENDBRANCH  16  21
ENDBRANCH  13  14
ENDBRANCH  12  13
ENDBRANCH  10  12
TORSDOF 4
ENDMDL
MODEL 2
REMARK VINA RESULT: -7.551050134      1.865      2.668
REMARK  4 active torsions:
REMARK  status: ('A' for Active; 'I' for Inactive)
REMARK    1  A    between atoms: C9_10  and  C10_11 
REMARK    2  A    between atoms: C10_11  and  C11_12 
REMARK    3  A    between atoms: C11_12  and  C12_13 
REMARK    4  A    between atoms: C14_15  and  O2_16 
ROOT
HETATM    1  C1  UNL     1      35.817  22.929  20.667  1.00  0.00     0.018 C 
HETATM    2  C2  UNL     1      36.890  23.380  19.721  1.00  0.00    -0.013 C 
HETATM    3  C3  UNL     1      36.787  24.887  19.590  1.00  0.00     0.014 C 
HETATM    4  C4  UNL     1      37.874  25.381  18.674  1.00  0.00     0.033 C 
HETATM    5  C5  UNL     1      38.629  24.157  18.174  1.00  0.00     0.126 C 
HETATM    6  O1  UNL     1      37.740  23.316  17.535  1.00  0.00    -0.374 OA
HETATM    7  C6  UNL     1      36.760  22.798  18.343  1.00  0.00     0.061 C 
HETATM    8  C7  UNL     1      35.362  23.093  17.794  1.00  0.00     0.046 C 
HETATM    9  C8  UNL     1      36.907  21.287  18.347  1.00  0.00     0.046 C 
HETATM   10  C9  UNL     1      39.295  23.421  19.295  1.00  0.00     0.015 C 
HETATM   11  C16 UNL     1      38.221  23.013  20.298  1.00  0.00     0.019 C 
ENDROOT
BRANCH  10  12
HETATM   12  C10 UNL     1      40.310  24.236  20.030  1.00  0.00     0.009 C 
BRANCH  12  13
HETATM   13  C11 UNL     1      41.497  23.415  20.467  1.00  0.00     0.033 C 
BRANCH  13  14
HETATM   14  C12 UNL     1      41.586  23.505  21.976  1.00  0.00     0.188 C 
HETATM   15  C13 UNL     1      43.009  23.346  22.403  1.00  0.00     0.066 C 
HETATM   16  C14 UNL     1      42.953  22.379  23.572  1.00  0.00     0.145 C 
HETATM   17  C15 UNL     1      41.483  22.238  23.829  1.00  0.00     0.264 C 
HETATM   18  N1  UNL     1      40.884  22.326  22.503  1.00  0.00    -0.068 N 
ATOM     19  H12 UNL     1      39.865  22.369  22.479  1.00  0.00     0.277 HD
ATOM     20  H11 UNL     1      40.945  21.482  21.933  1.00  0.00     0.277 HD
BRANCH  16  21
HETATM   21  O2  UNL     1      43.557  21.178  23.213  1.00  0.00    -0.394 OA
ATOM     22  H2  UNL     1      42.888  20.526  23.039  1.00  0.00     0.210 HD
ENDBRANCH  16  21
ENDBRANCH  13  14
ENDBRANCH  12  13
ENDBRANCH  10  12
TORSDOF 4
ENDMDL
MODEL 3
REMARK VINA RESULT: -7.497604275      1.569      1.770
REMARK  4 active torsions:
REMARK  status: ('A' for Active; 'I' for Inactive)
REMARK    1  A    between atoms: C9_10  and  C10_11 
REMARK    2  A    between atoms: C10_11  and  C11_12 
REMARK    3  A    between atoms: C11_12  and  C12_13 
REMARK    4  A    between atoms: C14_15  and  O2_16 
ROOT
HETATM    1  C1  UNL     1      38.471  28.366  19.438  1.00  0.00     0.018 C 
HETATM    2  C2  UNL     1      38.227  27.005  18.858  1.00  0.00    -0.013 C 
HETATM    3  C3  UNL     1      39.145  26.841  17.662  1.00  0.00     0.014 C 
HETATM    4  C4  UNL     1      38.954  25.469  17.073  1.00  0.00     0.033 C 
HETATM    5  C5  UNL     1      37.853  24.788  17.875  1.00  0.00     0.126 C 
HETATM    6  O1  UNL     1      36.710  25.558  17.805  1.00  0.00    -0.374 OA
HETATM    7  C6  UNL     1      36.819  26.800  18.376  1.00  0.00     0.061 C 
HETATM    8  C7  UNL     1      36.450  27.910  17.389  1.00  0.00     0.046 C 
HETATM    9  C8  UNL     1      35.813  26.884  19.510  1.00  0.00     0.046 C 
HETATM   10  C9  UNL     1      38.245  24.604  19.308  1.00  0.00     0.015 C 
HETATM   11  C16 UNL     1      38.559  25.977  19.893  1.00  0.00     0.019 C 
ENDROOT
BRANCH  10  12
HETATM   12  C10 UNL     1      39.456  23.748  19.496  1.00  0.00     0.009 C 
BRANCH  12  13
HETATM   13  C11 UNL     1      40.538  24.449  20.280  1.00  0.00     0.033 C 
BRANCH  13  14
HETATM   14  C12 UNL     1      41.593  23.420  20.625  1.00  0.00     0.188 C 
HETATM   15  C13 UNL     1      41.839  23.431  22.098  1.00  0.00     0.066 C 
HETATM   16  C14 UNL     1      43.351  23.402  22.235  1.00  0.00     0.145 C 
HETATM   17  C15 UNL     1      43.817  23.174  20.829  1.00  0.00     0.264 C 
HETATM   18  N1  UNL     1      42.845  23.891  20.014  1.00  0.00    -0.068 N 
ATOM     19  H12 UNL     1      42.925  23.756  19.006  1.00  0.00     0.277 HD
ATOM     20  H11 UNL     1      42.964  24.904  19.972  1.00  0.00     0.277 HD
BRANCH  16  21
HETATM   21  O2  UNL     1      43.793  24.613  22.762  1.00  0.00    -0.394 OA
ATOM     22  H2  UNL     1      43.615  25.312  22.143  1.00  0.00     0.210 HD
ENDBRANCH  16  21
ENDBRANCH  13  14
ENDBRANCH  12  13
ENDBRANCH  10  12
TORSDOF 4
ENDMDL
MODEL 4
REMARK VINA RESULT: -7.465015463      1.662      2.349
REMARK  4 active torsions:
REMARK  status: ('A' for Active; 'I' for Inactive)
REMARK    1  A    between atoms: C9_10  and  C10_11 
REMARK    2  A    between atoms: C10_11  and  C11_12 
REMARK    3  A    between atoms: C11_12  and  C12_13 
REMARK    4  A    between atoms: C14_15  and  O2_16 
ROOT
HETATM    1  C1  UNL     1      35.822  24.097  19.813  1.00  0.00     0.018 C 
HETATM    2  C2  UNL     1      37.253  24.179  19.372  1.00  0.00    -0.013 C 
HETATM    3  C3  UNL     1      37.813  25.500  19.864  1.00  0.00     0.014 C 
HETATM    4  C4  UNL     1      39.262  25.601  19.471  1.00  0.00     0.033 C 
HETATM    5  C5  UNL     1      39.596  24.354  18.664  1.00  0.00     0.126 C 
HETATM    6  O1  UNL     1      38.754  24.291  17.572  1.00  0.00    -0.374 OA
HETATM    7  C6  UNL     1      37.425  24.145  17.880  1.00  0.00     0.061 C 
HETATM    8  C7  UNL     1      36.573  25.245  17.243  1.00  0.00     0.046 C 
HETATM    9  C8  UNL     1      36.948  22.834  17.283  1.00  0.00     0.046 C 
HETATM   10  C9  UNL     1      39.446  23.109  19.482  1.00  0.00     0.015 C 
HETATM   11  C16 UNL     1      38.010  23.047  19.991  1.00  0.00     0.019 C 
ENDROOT
BRANCH  10  12
HETATM   12  C10 UNL     1      40.347  23.060  20.673  1.00  0.00     0.009 C 
BRANCH  12  13
HETATM   13  C11 UNL     1      39.780  22.215  21.787  1.00  0.00     0.033 C 
BRANCH  13  14
HETATM   14  C12 UNL     1      40.539  22.557  23.052  1.00  0.00     0.188 C 
HETATM   15  C13 UNL     1      41.932  22.969  22.703  1.00  0.00     0.066 C 
HETATM   16  C14 UNL     1      42.810  22.232  23.698  1.00  0.00     0.145 C 
HETATM   17  C15 UNL     1      41.820  21.627  24.647  1.00  0.00     0.264 C 
HETATM   18  N1  UNL     1      40.678  21.301  23.803  1.00  0.00    -0.068 N 
ATOM     19  H12 UNL     1      39.841  20.982  24.293  1.00  0.00     0.277 HD
ATOM     20  H11 UNL     1      40.771  20.455  23.240  1.00  0.00     0.277 HD
BRANCH  16  21
HETATM   21  O2  UNL     1      43.570  21.276  23.028  1.00  0.00    -0.394 OA
ATOM     22  H2  UNL     1      43.021  20.814  22.405  1.00  0.00     0.210 HD
ENDBRANCH  16  21
ENDBRANCH  13  14
ENDBRANCH  12  13
ENDBRANCH  10  12
TORSDOF 4
ENDMDL
MODEL 5
REMARK VINA RESULT: -7.411533047      1.617      2.050
REMARK  4 active torsions:
REMARK  status: ('A' for Active; 'I' for Inactive)
REMARK    1  A    between atoms: C9_10  and  C10_11 
REMARK    2  A    between atoms: C10_11  and  C11_12 
REMARK    3  A    between atoms: C11_12  and  C12_13 
REMARK    4  A    between atoms: C14_15  and  O2_16 
ROOT
HETATM    1  C1  UNL     1      36.357  26.065  18.194  1.00  0.00     0.018 C 
HETATM    2  C2  UNL     1      37.224  24.879  18.493  1.00  0.00    -0.013 C 
HETATM    3  C3  UNL     1      38.063  24.597  17.261  1.00  0.00     0.014 C 
HETATM    4  C4  UNL     1      38.975  23.433  17.538  1.00  0.00     0.033 C 
HETATM    5  C5  UNL     1      38.657  22.938  18.942  1.00  0.00     0.126 C 
HETATM    6  O1  UNL     1      37.322  22.591  19.000  1.00  0.00    -0.374 OA
HETATM    7  C6  UNL     1      36.450  23.631  18.807  1.00  0.00     0.061 C 
HETATM    8  C7  UNL     1      35.468  23.341  17.669  1.00  0.00     0.046 C 
HETATM    9  C8  UNL     1      35.614  23.781  20.065  1.00  0.00     0.046 C 
HETATM   10  C9  UNL     1      38.946  23.982  19.975  1.00  0.00     0.015 C 
HETATM   11  C16 UNL     1      38.118  25.219  19.645  1.00  0.00     0.019 C 
ENDROOT
BRANCH  10  12
HETATM   12  C10 UNL     1      40.380  24.401  20.021  1.00  0.00     0.009 C 
BRANCH  12  13
HETATM   13  C11 UNL     1      41.288  23.290  20.489  1.00  0.00     0.033 C 
BRANCH  13  14
HETATM   14  C12 UNL     1      41.503  23.469  21.977  1.00  0.00     0.188 C 
HETATM   15  C13 UNL     1      42.955  23.314  22.293  1.00  0.00     0.066 C 
HETATM   16  C14 UNL     1      42.986  22.420  23.521  1.00  0.00     0.145 C 
HETATM   17  C15 UNL     1      41.541  22.317  23.905  1.00  0.00     0.264 C 
HETATM   18  N1  UNL     1      40.835  22.334  22.630  1.00  0.00    -0.068 N 
ATOM     19  H12 UNL     1      39.818  22.391  22.688  1.00  0.00     0.277 HD
ATOM     20  H11 UNL     1      40.840  21.457  22.109  1.00  0.00     0.277 HD
BRANCH  16  21
HETATM   21  O2  UNL     1      43.546  21.191  23.186  1.00  0.00    -0.394 OA
ATOM     22  H2  UNL     1      42.881  20.634  22.797  1.00  0.00     0.210 HD
ENDBRANCH  16  21
ENDBRANCH  13  14
ENDBRANCH  12  13
ENDBRANCH  10  12
TORSDOF 4
ENDMDL
