MODEL 1
REMARK VINA RESULT: -7.559110254      0.000      0.000
REMARK  4 active torsions:
REMARK  status: ('A' for Active; 'I' for Inactive)
REMARK    1  A    between atoms: C2_2  and  C4_4 
REMARK    2  A    between atoms: C7_7  and  O1_8 
REMARK    3  A    between atoms: C11_14  and  C12_15 
REMARK    4  A    between atoms: C12_15  and  O3_16 
ROOT
HETATM    1  C4  UNL     1      37.651  27.314  18.074  1.00  0.00    -0.002 C 
HETATM    2  C5  UNL     1      36.125  27.290  18.013  1.00  0.00     0.008 C 
HETATM    3  C6  UNL     1      35.497  28.563  17.584  1.00  0.00     0.033 C 
HETATM    4  C7  UNL     1      36.493  29.390  16.844  1.00  0.00     0.130 C 
HETATM    5  C8  UNL     1      37.288  28.459  15.970  1.00  0.00     0.093 C 
HETATM    6  C9  UNL     1      37.906  29.275  14.924  1.00  0.00     0.135 C 
HETATM    7  O2  UNL     1      37.227  29.640  13.976  1.00  0.00    -0.297 OA
HETATM    8  C10 UNL     1      39.318  29.699  14.927  1.00  0.00     0.090 C 
HETATM    9  C11 UNL     1      40.167  28.995  15.900  1.00  0.00    -0.008 A 
HETATM   10  C13 UNL     1      40.084  29.248  17.365  1.00  0.00     0.018 A 
HETATM   11  C14 UNL     1      39.633  27.941  16.739  1.00  0.00     0.007 A 
HETATM   12  C15 UNL     1      38.232  27.556  16.705  1.00  0.00    -0.023 C 
HETATM   13  C16 UNL     1      38.151  26.201  15.966  1.00  0.00     0.017 C 
ENDROOT
BRANCH   1  14
HETATM   14  C2  UNL     1      38.016  25.975  18.685  1.00  0.00    -0.018 C 
HETATM   15  C1  UNL     1      36.747  25.340  19.298  1.00  0.00     0.010 C 
HETATM   16  C3  UNL     1      38.973  26.067  19.851  1.00  0.00     0.010 C 
ENDBRANCH   1  14
BRANCH   4  17
HETATM   17  O1  UNL     1      35.768  30.239  15.982  1.00  0.00    -0.395 OA
ATOM     18  H1  UNL     1      36.037  30.033  15.096  1.00  0.00     0.210 HD
ENDBRANCH   4  17
BRANCH   9  19
HETATM   19  C12 UNL     1      41.627  28.877  15.419  1.00  0.00     0.174 C 
BRANCH  19  20
HETATM   20  O3  UNL     1      41.659  28.545  14.084  1.00  0.00    -0.400 OA
ATOM     21  H3  UNL     1      42.157  29.192  13.598  1.00  0.00     0.209 HD
ENDBRANCH  19  20
ENDBRANCH   9  19
TORSDOF 4
ENDMDL
MODEL 2
REMARK VINA RESULT: -7.545030966      2.057      4.131
REMARK  4 active torsions:
REMARK  status: ('A' for Active; 'I' for Inactive)
REMARK    1  A    between atoms: C2_2  and  C4_4 
REMARK    2  A    between atoms: C7_7  and  O1_8 
REMARK    3  A    between atoms: C11_14  and  C12_15 
REMARK    4  A    between atoms: C12_15  and  O3_16 
ROOT
HETATM    1  C4  UNL     1      39.560  27.860  17.291  1.00  0.00    -0.002 C 
HETATM    2  C5  UNL     1      40.189  29.246  17.157  1.00  0.00     0.008 C 
HETATM    3  C6  UNL     1      41.277  29.344  16.153  1.00  0.00     0.033 C 
HETATM    4  C7  UNL     1      41.160  28.225  15.176  1.00  0.00     0.130 C 
HETATM    5  C8  UNL     1      39.697  28.040  14.878  1.00  0.00     0.093 C 
HETATM    6  C9  UNL     1      39.605  27.311  13.613  1.00  0.00     0.135 C 
HETATM    7  O2  UNL     1      39.777  27.915  12.565  1.00  0.00    -0.297 OA
HETATM    8  C10 UNL     1      39.314  25.870  13.503  1.00  0.00     0.090 C 
HETATM    9  C11 UNL     1      38.813  25.250  14.740  1.00  0.00    -0.008 A 
HETATM   10  C13 UNL     1      39.688  24.988  15.915  1.00  0.00     0.018 A 
HETATM   11  C14 UNL     1      38.591  26.036  15.937  1.00  0.00     0.007 A 
HETATM   12  C15 UNL     1      38.894  27.455  16.001  1.00  0.00    -0.023 C 
HETATM   13  C16 UNL     1      37.546  28.210  15.967  1.00  0.00     0.017 C 
ENDROOT
BRANCH   1  14
HETATM   14  C2  UNL     1      38.617  27.997  18.471  1.00  0.00    -0.018 C 
HETATM   15  C1  UNL     1      39.101  29.157  19.370  1.00  0.00     0.010 C 
HETATM   16  C3  UNL     1      38.609  26.803  19.397  1.00  0.00     0.010 C 
ENDBRANCH   1  14
BRANCH   4  17
HETATM   17  O1  UNL     1      41.769  28.655  13.979  1.00  0.00    -0.395 OA
ATOM     18  H1  UNL     1      41.685  27.946  13.353  1.00  0.00     0.210 HD
ENDBRANCH   4  17
BRANCH   9  19
HETATM   19  C12 UNL     1      37.865  24.069  14.454  1.00  0.00     0.174 C 
BRANCH  19  20
HETATM   20  O3  UNL     1      37.525  24.047  13.121  1.00  0.00    -0.400 OA
ATOM     21  H3  UNL     1      37.662  24.904  12.734  1.00  0.00     0.209 HD
ENDBRANCH  19  20
ENDBRANCH   9  19
TORSDOF 4
ENDMDL
MODEL 3
REMARK VINA RESULT: -7.368538892      2.163      4.622
REMARK  4 active torsions:
REMARK  status: ('A' for Active; 'I' for Inactive)
REMARK    1  A    between atoms: C2_2  and  C4_4 
REMARK    2  A    between atoms: C7_7  and  O1_8 
REMARK    3  A    between atoms: C11_14  and  C12_15 
REMARK    4  A    between atoms: C12_15  and  O3_16 
ROOT
HETATM    1  C4  UNL     1      38.567  24.430  18.832  1.00  0.00    -0.002 C 
HETATM    2  C5  UNL     1      39.941  23.762  18.789  1.00  0.00     0.008 C 
HETATM    3  C6  UNL     1      40.688  23.950  17.522  1.00  0.00     0.033 C 
HETATM    4  C7  UNL     1      40.156  25.139  16.797  1.00  0.00     0.130 C 
HETATM    5  C8  UNL     1      39.877  26.203  17.824  1.00  0.00     0.093 C 
HETATM    6  C9  UNL     1      39.822  27.482  17.114  1.00  0.00     0.135 C 
HETATM    7  O2  UNL     1      40.867  28.024  16.785  1.00  0.00    -0.297 OA
HETATM    8  C10 UNL     1      38.575  28.181  16.757  1.00  0.00     0.090 C 
HETATM    9  C11 UNL     1      37.371  27.668  17.428  1.00  0.00    -0.008 A 
HETATM   10  C13 UNL     1      36.748  26.365  17.068  1.00  0.00     0.018 A 
HETATM   11  C14 UNL     1      37.451  26.590  18.395  1.00  0.00     0.007 A 
HETATM   12  C15 UNL     1      38.703  25.927  18.715  1.00  0.00    -0.023 C 
HETATM   13  C16 UNL     1      39.135  26.423  20.114  1.00  0.00     0.017 C 
ENDROOT
BRANCH   1  14
HETATM   14  C2  UNL     1      37.967  23.953  20.140  1.00  0.00    -0.018 C 
HETATM   15  C1  UNL     1      38.738  22.704  20.621  1.00  0.00     0.010 C 
HETATM   16  C3  UNL     1      36.538  23.474  20.026  1.00  0.00     0.010 C 
ENDBRANCH   1  14
BRANCH   4  17
HETATM   17  O1  UNL     1      41.196  25.625  15.978  1.00  0.00    -0.395 OA
ATOM     18  H1  UNL     1      41.136  26.572  15.984  1.00  0.00     0.210 HD
ENDBRANCH   4  17
BRANCH   9  19
HETATM   19  C12 UNL     1      36.315  28.769  17.648  1.00  0.00     0.174 C 
BRANCH  19  20
HETATM   20  O3  UNL     1      36.482  29.345  18.886  1.00  0.00    -0.400 OA
ATOM     21  H3  UNL     1      35.806  29.995  19.039  1.00  0.00     0.209 HD
ENDBRANCH  19  20
ENDBRANCH   9  19
TORSDOF 4
ENDMDL
MODEL 4
REMARK VINA RESULT: -7.297161258      1.552      1.867
REMARK  4 active torsions:
REMARK  status: ('A' for Active; 'I' for Inactive)
REMARK    1  A    between atoms: C2_2  and  C4_4 
REMARK    2  A    between atoms: C7_7  and  O1_8 
REMARK    3  A    between atoms: C11_14  and  C12_15 
REMARK    4  A    between atoms: C12_15  and  O3_16 
ROOT
HETATM    1  C4  UNL     1      37.287  25.877  18.787  1.00  0.00    -0.002 C 
HETATM    2  C5  UNL     1      35.945  26.383  19.314  1.00  0.00     0.008 C 
HETATM    3  C6  UNL     1      35.757  27.852  19.235  1.00  0.00     0.033 C 
HETATM    4  C7  UNL     1      36.688  28.424  18.221  1.00  0.00     0.130 C 
HETATM    5  C8  UNL     1      36.720  27.474  17.055  1.00  0.00     0.093 C 
HETATM    6  C9  UNL     1      37.221  28.225  15.903  1.00  0.00     0.135 C 
HETATM    7  O2  UNL     1      36.464  28.980  15.311  1.00  0.00    -0.297 OA
HETATM    8  C10 UNL     1      38.600  28.138  15.391  1.00  0.00     0.090 C 
HETATM    9  C11 UNL     1      39.380  27.009  15.920  1.00  0.00    -0.008 A 
HETATM   10  C13 UNL     1      39.894  26.976  17.317  1.00  0.00     0.018 A 
HETATM   11  C14 UNL     1      38.790  26.051  16.835  1.00  0.00     0.007 A 
HETATM   12  C15 UNL     1      37.426  26.178  17.317  1.00  0.00    -0.023 C 
HETATM   13  C16 UNL     1      36.585  25.107  16.585  1.00  0.00     0.017 C 
ENDROOT
BRANCH   1  14
HETATM   14  C2  UNL     1      37.283  24.399  19.130  1.00  0.00    -0.018 C 
HETATM   15  C1  UNL     1      36.008  24.075  19.940  1.00  0.00     0.010 C 
HETATM   16  C3  UNL     1      38.409  23.975  20.044  1.00  0.00     0.010 C 
ENDBRANCH   1  14
BRANCH   4  17
HETATM   17  O1  UNL     1      36.108  29.622  17.756  1.00  0.00    -0.395 OA
ATOM     18  H1  UNL     1      35.167  29.532  17.850  1.00  0.00     0.210 HD
ENDBRANCH   4  17
BRANCH   9  19
HETATM   19  C12 UNL     1      40.430  26.503  14.910  1.00  0.00     0.174 C 
BRANCH  19  20
HETATM   20  O3  UNL     1      41.072  27.569  14.323  1.00  0.00    -0.400 OA
ATOM     21  H3  UNL     1      41.859  27.272  13.881  1.00  0.00     0.209 HD
ENDBRANCH  19  20
ENDBRANCH   9  19
TORSDOF 4
ENDMDL
MODEL 5
REMARK VINA RESULT: -7.240430104      1.863      2.887
REMARK  4 active torsions:
REMARK  status: ('A' for Active; 'I' for Inactive)
REMARK    1  A    between atoms: C2_2  and  C4_4 
REMARK    2  A    between atoms: C7_7  and  O1_8 
REMARK    3  A    between atoms: C11_14  and  C12_15 
REMARK    4  A    between atoms: C12_15  and  O3_16 
ROOT
HETATM    1  C4  UNL     1      37.707  27.198  17.941  1.00  0.00    -0.002 C 
HETATM    2  C5  UNL     1      37.736  28.280  19.019  1.00  0.00     0.008 C 
HETATM    3  C6  UNL     1      39.039  28.973  19.174  1.00  0.00     0.033 C 
HETATM    4  C7  UNL     1      39.846  28.809  17.931  1.00  0.00     0.130 C 
HETATM    5  C8  UNL     1      38.905  28.946  16.765  1.00  0.00     0.093 C 
HETATM    6  C9  UNL     1      39.720  29.263  15.591  1.00  0.00     0.135 C 
HETATM    7  O2  UNL     1      40.128  30.405  15.441  1.00  0.00    -0.297 OA
HETATM    8  C10 UNL     1      40.096  28.287  14.553  1.00  0.00     0.090 C 
HETATM    9  C11 UNL     1      39.344  27.023  14.599  1.00  0.00    -0.008 A 
HETATM   10  C13 UNL     1      39.571  25.995  15.651  1.00  0.00     0.018 A 
HETATM   11  C14 UNL     1      38.292  26.810  15.573  1.00  0.00     0.007 A 
HETATM   12  C15 UNL     1      37.957  27.800  16.581  1.00  0.00    -0.023 C 
HETATM   13  C16 UNL     1      36.620  28.449  16.154  1.00  0.00     0.017 C 
ENDROOT
BRANCH   1  14
HETATM   14  C2  UNL     1      36.344  26.554  18.104  1.00  0.00    -0.018 C 
HETATM   15  C1  UNL     1      35.787  26.903  19.502  1.00  0.00     0.010 C 
HETATM   16  C3  UNL     1      36.370  25.043  18.092  1.00  0.00     0.010 C 
ENDBRANCH   1  14
BRANCH   4  17
HETATM   17  O1  UNL     1      40.736  29.901  17.869  1.00  0.00    -0.395 OA
ATOM     18  H1  UNL     1      41.054  29.950  16.975  1.00  0.00     0.210 HD
ENDBRANCH   4  17
BRANCH   9  19
HETATM   19  C12 UNL     1      39.186  26.390  13.202  1.00  0.00     0.174 C 
BRANCH  19  20
HETATM   20  O3  UNL     1      39.573  27.285  12.231  1.00  0.00    -0.400 OA
ATOM     21  H3  UNL     1      40.081  27.988  12.618  1.00  0.00     0.209 HD
ENDBRANCH  19  20
ENDBRANCH   9  19
TORSDOF 4
ENDMDL
