MODEL 1
REMARK VINA RESULT: -8.116351484      0.000      0.000
REMARK  3 active torsions:
REMARK  status: ('A' for Active; 'I' for Inactive)
REMARK       I    between atoms: C1_2  and  N1_3 
REMARK       I    between atoms: C1_2  and  N2_11 
REMARK    1  A    between atoms: N1_3  and  C2_5 
REMARK    2  A    between atoms: C2_5  and  C3_6 
REMARK    3  A    between atoms: N2_11  and  C6_13 
ROOT
HETATM    1  O1  UNL     1      40.142  25.326  18.449  1.00  0.00    -0.247 OA
HETATM    2  C1  UNL     1      41.182  24.787  18.021  1.00  0.00     0.316 C 
HETATM    3  N1  UNL     1      41.518  24.899  16.642  1.00  0.00    -0.341 N 
ATOM      4  H1  UNL     1      42.376  24.448  16.326  1.00  0.00     0.164 HD
HETATM    5  N2  UNL     1      42.006  24.076  18.899  1.00  0.00    -0.339 N 
ATOM      6  H2  UNL     1      42.849  23.645  18.519  1.00  0.00     0.164 HD
ENDROOT
BRANCH   5   7
HETATM    7  C6  UNL     1      41.738  23.914  20.317  1.00  0.00     0.086 C 
HETATM    8  C7  UNL     1      42.970  23.332  20.934  1.00  0.00     0.025 C 
HETATM    9  C8  UNL     1      43.111  23.627  22.401  1.00  0.00     0.002 C 
HETATM   10  C9  UNL     1      42.730  22.397  23.218  1.00  0.00     0.000 C 
HETATM   11  C10 UNL     1      41.539  22.675  24.096  1.00  0.00     0.000 C 
HETATM   12  C11 UNL     1      40.408  21.746  23.824  1.00  0.00     0.000 C 
HETATM   13  C12 UNL     1      39.973  21.675  22.404  1.00  0.00     0.000 C 
HETATM   14  C13 UNL     1      39.856  23.009  21.721  1.00  0.00     0.002 C 
HETATM   15  C14 UNL     1      40.534  23.005  20.403  1.00  0.00     0.025 C 
ENDBRANCH   5   7
BRANCH   3  16
HETATM   16  C2  UNL     1      40.737  25.599  15.667  1.00  0.00     0.158 C 
BRANCH  16  17
HETATM   17  C3  UNL     1      40.626  24.902  14.334  1.00  0.00     0.165 C 
HETATM   18  C4  UNL     1      39.868  23.621  14.400  1.00  0.00     0.204 C 
HETATM   19  O2  UNL     1      40.727  22.594  14.015  1.00  0.00    -0.364 OA
HETATM   20  C5  UNL     1      41.700  23.264  13.253  1.00  0.00     0.338 C 
HETATM   21  O3  UNL     1      41.909  24.459  13.937  1.00  0.00    -0.358 OA
ENDBRANCH  16  17
ENDBRANCH   3  16
TORSDOF 3
ENDMDL
MODEL 2
REMARK VINA RESULT: -8.068199163      1.770      2.331
REMARK  3 active torsions:
REMARK  status: ('A' for Active; 'I' for Inactive)
REMARK       I    between atoms: C1_2  and  N1_3 
REMARK       I    between atoms: C1_2  and  N2_11 
REMARK    1  A    between atoms: N1_3  and  C2_5 
REMARK    2  A    between atoms: C2_5  and  C3_6 
REMARK    3  A    between atoms: N2_11  and  C6_13 
ROOT
HETATM    1  O1  UNL     1      40.032  25.010  18.464  1.00  0.00    -0.247 OA
HETATM    2  C1  UNL     1      41.173  24.668  18.096  1.00  0.00     0.316 C 
HETATM    3  N1  UNL     1      41.553  24.831  16.734  1.00  0.00    -0.341 N 
ATOM      4  H1  UNL     1      42.494  24.544  16.467  1.00  0.00     0.164 HD
HETATM    5  N2  UNL     1      42.067  24.127  19.024  1.00  0.00    -0.339 N 
ATOM      6  H2  UNL     1      42.993  23.856  18.694  1.00  0.00     0.164 HD
ENDROOT
BRANCH   5   7
HETATM    7  C6  UNL     1      41.761  23.928  20.430  1.00  0.00     0.086 C 
HETATM    8  C7  UNL     1      42.979  23.336  21.066  1.00  0.00     0.025 C 
HETATM    9  C8  UNL     1      43.078  23.594  22.543  1.00  0.00     0.002 C 
HETATM   10  C9  UNL     1      42.681  22.342  23.318  1.00  0.00     0.000 C 
HETATM   11  C10 UNL     1      41.465  22.593  24.170  1.00  0.00     0.000 C 
HETATM   12  C11 UNL     1      40.347  21.667  23.844  1.00  0.00     0.000 C 
HETATM   13  C12 UNL     1      39.951  21.630  22.411  1.00  0.00     0.000 C 
HETATM   14  C13 UNL     1      39.847  22.980  21.759  1.00  0.00     0.002 C 
HETATM   15  C14 UNL     1      40.561  23.012  20.460  1.00  0.00     0.025 C 
ENDBRANCH   5   7
BRANCH   3  16
HETATM   16  C2  UNL     1      40.707  25.369  15.711  1.00  0.00     0.158 C 
BRANCH  16  17
HETATM   17  C3  UNL     1      40.566  26.871  15.740  1.00  0.00     0.165 C 
HETATM   18  C4  UNL     1      40.443  27.478  14.385  1.00  0.00     0.204 C 
HETATM   19  O2  UNL     1      41.522  28.339  14.200  1.00  0.00    -0.364 OA
HETATM   20  C5  UNL     1      41.912  28.644  15.516  1.00  0.00     0.338 C 
HETATM   21  O3  UNL     1      41.775  27.440  16.202  1.00  0.00    -0.358 OA
ENDBRANCH  16  17
ENDBRANCH   3  16
TORSDOF 3
ENDMDL
MODEL 3
REMARK VINA RESULT: -7.691294386      4.449      5.347
REMARK  3 active torsions:
REMARK  status: ('A' for Active; 'I' for Inactive)
REMARK       I    between atoms: C1_2  and  N1_3 
REMARK       I    between atoms: C1_2  and  N2_11 
REMARK    1  A    between atoms: N1_3  and  C2_5 
REMARK    2  A    between atoms: C2_5  and  C3_6 
REMARK    3  A    between atoms: N2_11  and  C6_13 
ROOT
HETATM    1  O1  UNL     1      38.553  27.461  20.364  1.00  0.00    -0.247 OA
HETATM    2  C1  UNL     1      38.697  27.094  19.180  1.00  0.00     0.316 C 
HETATM    3  N1  UNL     1      39.288  27.979  18.235  1.00  0.00    -0.341 N 
ATOM      4  H1  UNL     1      39.393  27.646  17.277  1.00  0.00     0.164 HD
HETATM    5  N2  UNL     1      38.274  25.819  18.795  1.00  0.00    -0.339 N 
ATOM      6  H2  UNL     1      38.404  25.547  17.820  1.00  0.00     0.164 HD
ENDROOT
BRANCH   5   7
HETATM    7  C6  UNL     1      37.663  24.855  19.694  1.00  0.00     0.086 C 
HETATM    8  C7  UNL     1      38.461  23.594  19.597  1.00  0.00     0.025 C 
HETATM    9  C8  UNL     1      38.367  22.722  20.817  1.00  0.00     0.002 C 
HETATM   10  C9  UNL     1      37.426  21.552  20.549  1.00  0.00     0.000 C 
HETATM   11  C10 UNL     1      36.235  21.590  21.471  1.00  0.00     0.000 C 
HETATM   12  C11 UNL     1      34.947  21.643  20.727  1.00  0.00     0.000 C 
HETATM   13  C12 UNL     1      34.836  22.737  19.727  1.00  0.00     0.000 C 
HETATM   14  C13 UNL     1      35.328  24.073  20.208  1.00  0.00     0.002 C 
HETATM   15  C14 UNL     1      36.236  24.705  19.221  1.00  0.00     0.025 C 
ENDBRANCH   5   7
BRANCH   3  16
HETATM   16  C2  UNL     1      39.746  29.303  18.533  1.00  0.00     0.158 C 
BRANCH  16  17
HETATM   17  C3  UNL     1      40.364  30.029  17.364  1.00  0.00     0.165 C 
HETATM   18  C4  UNL     1      39.499  30.039  16.152  1.00  0.00     0.204 C 
HETATM   19  O2  UNL     1      40.181  29.380  15.132  1.00  0.00    -0.364 OA
HETATM   20  C5  UNL     1      41.526  29.487  15.531  1.00  0.00     0.338 C 
HETATM   21  O3  UNL     1      41.489  29.303  16.911  1.00  0.00    -0.358 OA
ENDBRANCH  16  17
ENDBRANCH   3  16
TORSDOF 3
ENDMDL
MODEL 4
REMARK VINA RESULT: -7.664322044      1.883      3.033
REMARK  3 active torsions:
REMARK  status: ('A' for Active; 'I' for Inactive)
REMARK       I    between atoms: C1_2  and  N1_3 
REMARK       I    between atoms: C1_2  and  N2_11 
REMARK    1  A    between atoms: N1_3  and  C2_5 
REMARK    2  A    between atoms: C2_5  and  C3_6 
REMARK    3  A    between atoms: N2_11  and  C6_13 
ROOT
HETATM    1  O1  UNL     1      40.298  23.545  17.973  1.00  0.00    -0.247 OA
HETATM    2  C1  UNL     1      41.170  24.403  18.218  1.00  0.00     0.316 C 
HETATM    3  N1  UNL     1      41.407  25.451  17.286  1.00  0.00    -0.341 N 
ATOM      4  H1  UNL     1      42.126  26.137  17.519  1.00  0.00     0.164 HD
HETATM    5  N2  UNL     1      41.905  24.323  19.404  1.00  0.00    -0.339 N 
ATOM      6  H2  UNL     1      42.612  25.038  19.576  1.00  0.00     0.164 HD
ENDROOT
BRANCH   5   7
HETATM    7  C6  UNL     1      41.725  23.288  20.407  1.00  0.00     0.086 C 
HETATM    8  C7  UNL     1      40.339  23.435  20.949  1.00  0.00     0.025 C 
HETATM    9  C8  UNL     1      39.777  22.168  21.529  1.00  0.00     0.002 C 
HETATM   10  C9  UNL     1      39.836  22.222  23.052  1.00  0.00     0.000 C 
HETATM   11  C10 UNL     1      40.719  21.132  23.600  1.00  0.00     0.000 C 
HETATM   12  C11 UNL     1      41.836  21.671  24.424  1.00  0.00     0.000 C 
HETATM   13  C12 UNL     1      42.674  22.702  23.759  1.00  0.00     0.000 C 
HETATM   14  C13 UNL     1      43.052  22.379  22.341  1.00  0.00     0.002 C 
HETATM   15  C14 UNL     1      42.804  23.527  21.437  1.00  0.00     0.025 C 
ENDBRANCH   5   7
BRANCH   3  16
HETATM   16  C2  UNL     1      40.711  25.613  16.045  1.00  0.00     0.158 C 
BRANCH  16  17
HETATM   17  C3  UNL     1      40.396  27.044  15.685  1.00  0.00     0.165 C 
HETATM   18  C4  UNL     1      40.492  27.319  14.225  1.00  0.00     0.204 C 
HETATM   19  O2  UNL     1      41.480  28.283  14.033  1.00  0.00    -0.364 OA
HETATM   20  C5  UNL     1      41.546  28.920  15.285  1.00  0.00     0.338 C 
HETATM   21  O3  UNL     1      41.406  27.885  16.205  1.00  0.00    -0.358 OA
ENDBRANCH  16  17
ENDBRANCH   3  16
TORSDOF 3
ENDMDL
MODEL 5
REMARK VINA RESULT: -7.648540556      1.754      2.739
REMARK  3 active torsions:
REMARK  status: ('A' for Active; 'I' for Inactive)
REMARK       I    between atoms: C1_2  and  N1_3 
REMARK       I    between atoms: C1_2  and  N2_11 
REMARK    1  A    between atoms: N1_3  and  C2_5 
REMARK    2  A    between atoms: C2_5  and  C3_6 
REMARK    3  A    between atoms: N2_11  and  C6_13 
ROOT
HETATM    1  O1  UNL     1      40.817  23.217  17.188  1.00  0.00    -0.247 OA
HETATM    2  C1  UNL     1      41.203  24.358  17.513  1.00  0.00     0.316 C 
HETATM    3  N1  UNL     1      41.225  25.398  16.542  1.00  0.00    -0.341 N 
ATOM      4  H1  UNL     1      41.545  26.319  16.843  1.00  0.00     0.164 HD
HETATM    5  N2  UNL     1      41.611  24.601  18.828  1.00  0.00    -0.339 N 
ATOM      6  H2  UNL     1      41.923  25.543  19.064  1.00  0.00     0.164 HD
ENDROOT
BRANCH   5   7
HETATM    7  C6  UNL     1      41.619  23.598  19.879  1.00  0.00     0.086 C 
HETATM    8  C7  UNL     1      40.295  23.677  20.571  1.00  0.00     0.025 C 
HETATM    9  C8  UNL     1      39.892  22.400  21.254  1.00  0.00     0.002 C 
HETATM   10  C9  UNL     1      40.119  22.520  22.757  1.00  0.00     0.000 C 
HETATM   11  C10 UNL     1      41.132  21.514  23.236  1.00  0.00     0.000 C 
HETATM   12  C11 UNL     1      42.293  22.159  23.908  1.00  0.00     0.000 C 
HETATM   13  C12 UNL     1      42.977  23.215  23.117  1.00  0.00     0.000 C 
HETATM   14  C13 UNL     1      43.215  22.859  21.676  1.00  0.00     0.002 C 
HETATM   15  C14 UNL     1      42.787  23.950  20.769  1.00  0.00     0.025 C 
ENDBRANCH   5   7
BRANCH   3  16
HETATM   16  C2  UNL     1      40.833  25.244  15.173  1.00  0.00     0.158 C 
BRANCH  16  17
HETATM   17  C3  UNL     1      39.689  26.130  14.747  1.00  0.00     0.165 C 
HETATM   18  C4  UNL     1      39.160  25.800  13.394  1.00  0.00     0.204 C 
HETATM   19  O2  UNL     1      39.337  26.916  12.579  1.00  0.00    -0.364 OA
HETATM   20  C5  UNL     1      39.423  27.972  13.504  1.00  0.00     0.338 C 
HETATM   21  O3  UNL     1      40.170  27.446  14.556  1.00  0.00    -0.358 OA
ENDBRANCH  16  17
ENDBRANCH   3  16
TORSDOF 3
ENDMDL
