MODEL 1
REMARK VINA RESULT: -4.957095940      0.000      0.000
REMARK  5 active torsions:
REMARK  status: ('A' for Active; 'I' for Inactive)
REMARK    1  A    between atoms: N1_1  and  C1_4 
REMARK    2  A    between atoms: C2_9  and  S1_10 
REMARK    3  A    between atoms: S1_10  and  C3_11 
REMARK    4  A    between atoms: C3_11  and  C4_12 
REMARK    5  A    between atoms: C4_12  and  N4_13 
ROOT
HETATM    1  C1  UNL     1      84.452 -12.636  66.351  1.00  0.00     0.692 A 
HETATM    2  N2  UNL     1      84.741 -13.782  66.993  1.00  0.00    -0.130 N 
ATOM      3  H2  UNL     1      85.189 -13.853  67.906  1.00  0.00     0.205 HD
HETATM    4  N3  UNL     1      84.349 -14.810  66.241  1.00  0.00    -0.265 N 
ATOM      5  H3  UNL     1      84.448 -15.795  66.491  1.00  0.00     0.189 HD
HETATM    6  C2  UNL     1      83.801 -14.349  65.105  1.00  0.00     0.174 A 
HETATM    7  N5  UNL     1      83.876 -13.004  65.195  1.00  0.00    -0.168 N 
ATOM      8  H5  UNL     1      83.541 -12.356  64.482  1.00  0.00     0.186 HD
ENDROOT
BRANCH   6   9
HETATM    9  S1  UNL     1      83.127 -15.338  63.780  1.00  0.00    -0.090 SA
BRANCH   9  10
HETATM   10  C3  UNL     1      82.406 -16.870  64.396  1.00  0.00     0.109 C 
BRANCH  10  11
HETATM   11  C4  UNL     1      81.589 -17.589  63.352  1.00  0.00     0.240 C 
BRANCH  11  12
HETATM   12  N4  UNL     1      80.779 -16.672  62.585  1.00  0.00    -0.079 N 
ATOM     13  H43 UNL     1      80.957 -16.766  61.585  1.00  0.00     0.274 HD
ATOM     14  H42 UNL     1      79.796 -16.943  62.598  1.00  0.00     0.274 HD
ATOM     15  H41 UNL     1      80.904 -15.709  62.897  1.00  0.00     0.274 HD
ENDBRANCH  11  12
ENDBRANCH  10  11
ENDBRANCH   9  10
ENDBRANCH   6   9
BRANCH   1  16
HETATM   16  N1  UNL     1      84.701 -11.461  66.802  1.00  0.00    -0.233 N 
ATOM     17  H12 UNL     1      85.559 -11.090  67.209  1.00  0.00     0.174 HD
ATOM     18  H11 UNL     1      84.034 -10.689  66.817  1.00  0.00     0.174 HD
ENDBRANCH   1  16
TORSDOF 5
ENDMDL
MODEL 2
REMARK VINA RESULT: -4.872674413      1.017      1.017
REMARK  5 active torsions:
REMARK  status: ('A' for Active; 'I' for Inactive)
REMARK    1  A    between atoms: N1_1  and  C1_4 
REMARK    2  A    between atoms: C2_9  and  S1_10 
REMARK    3  A    between atoms: S1_10  and  C3_11 
REMARK    4  A    between atoms: C3_11  and  C4_12 
REMARK    5  A    between atoms: C4_12  and  N4_13 
ROOT
HETATM    1  C1  UNL     1      84.468 -12.668  66.220  1.00  0.00     0.692 A 
HETATM    2  N2  UNL     1      84.846 -13.682  67.019  1.00  0.00    -0.130 N 
ATOM      3  H2  UNL     1      85.324 -13.584  67.915  1.00  0.00     0.205 HD
HETATM    4  N3  UNL     1      84.496 -14.835  66.451  1.00  0.00    -0.265 N 
ATOM      5  H3  UNL     1      84.663 -15.761  66.845  1.00  0.00     0.189 HD
HETATM    6  C2  UNL     1      83.888 -14.588  65.280  1.00  0.00     0.174 A 
HETATM    7  N5  UNL     1      83.883 -13.244  65.159  1.00  0.00    -0.168 N 
ATOM      8  H5  UNL     1      83.487 -12.734  64.368  1.00  0.00     0.186 HD
ENDROOT
BRANCH   6   9
HETATM    9  S1  UNL     1      83.238 -15.808  64.149  1.00  0.00    -0.090 SA
BRANCH   9  10
HETATM   10  C3  UNL     1      81.967 -15.108  63.079  1.00  0.00     0.109 C 
BRANCH  10  11
HETATM   11  C4  UNL     1      81.561 -16.046  61.969  1.00  0.00     0.240 C 
BRANCH  11  12
HETATM   12  N4  UNL     1      80.359 -16.774  62.301  1.00  0.00    -0.079 N 
ATOM     13  H43 UNL     1      80.565 -17.746  62.528  1.00  0.00     0.274 HD
ATOM     14  H42 UNL     1      79.979 -16.477  63.200  1.00  0.00     0.274 HD
ATOM     15  H41 UNL     1      79.661 -16.704  61.560  1.00  0.00     0.274 HD
ENDBRANCH  11  12
ENDBRANCH  10  11
ENDBRANCH   9  10
ENDBRANCH   6   9
BRANCH   1  16
HETATM   16  N1  UNL     1      84.658 -11.425  66.476  1.00  0.00    -0.233 N 
ATOM     17  H12 UNL     1      84.487 -10.905  67.337  1.00  0.00     0.174 HD
ATOM     18  H11 UNL     1      85.027 -10.744  65.812  1.00  0.00     0.174 HD
ENDBRANCH   1  16
TORSDOF 5
ENDMDL
MODEL 3
REMARK VINA RESULT: -4.775239423      0.845      1.407
REMARK  5 active torsions:
REMARK  status: ('A' for Active; 'I' for Inactive)
REMARK    1  A    between atoms: N1_1  and  C1_4 
REMARK    2  A    between atoms: C2_9  and  S1_10 
REMARK    3  A    between atoms: S1_10  and  C3_11 
REMARK    4  A    between atoms: C3_11  and  C4_12 
REMARK    5  A    between atoms: C4_12  and  N4_13 
ROOT
HETATM    1  C1  UNL     1      84.261 -12.636  66.740  1.00  0.00     0.692 A 
HETATM    2  N2  UNL     1      83.894 -12.092  65.566  1.00  0.00    -0.130 N 
ATOM      3  H2  UNL     1      83.786 -11.094  65.384  1.00  0.00     0.205 HD
HETATM    4  N3  UNL     1      83.696 -13.067  64.680  1.00  0.00    -0.265 N 
ATOM      5  H3  UNL     1      83.412 -12.933  63.709  1.00  0.00     0.189 HD
HETATM    6  C2  UNL     1      83.930 -14.254  65.263  1.00  0.00     0.174 A 
HETATM    7  N5  UNL     1      84.277 -13.962  66.535  1.00  0.00    -0.168 N 
ATOM      8  H5  UNL     1      84.519 -14.656  67.243  1.00  0.00     0.186 HD
ENDROOT
BRANCH   6   9
HETATM    9  S1  UNL     1      83.799 -15.857  64.487  1.00  0.00    -0.090 SA
BRANCH   9  10
HETATM   10  C3  UNL     1      82.176 -16.103  63.744  1.00  0.00     0.109 C 
BRANCH  10  11
HETATM   11  C4  UNL     1      81.743 -17.548  63.758  1.00  0.00     0.240 C 
BRANCH  11  12
HETATM   12  N4  UNL     1      80.521 -17.746  63.016  1.00  0.00    -0.079 N 
ATOM     13  H43 UNL     1      79.707 -17.449  63.554  1.00  0.00     0.274 HD
ATOM     14  H42 UNL     1      80.446 -17.089  62.239  1.00  0.00     0.274 HD
ATOM     15  H41 UNL     1      80.426 -18.710  62.698  1.00  0.00     0.274 HD
ENDBRANCH  11  12
ENDBRANCH  10  11
ENDBRANCH   9  10
ENDBRANCH   6   9
BRANCH   1  16
HETATM   16  N1  UNL     1      84.527 -11.970  67.805  1.00  0.00    -0.233 N 
ATOM     17  H12 UNL     1      84.500 -10.964  67.965  1.00  0.00     0.174 HD
ATOM     18  H11 UNL     1      84.821 -12.382  68.691  1.00  0.00     0.174 HD
ENDBRANCH   1  16
TORSDOF 5
ENDMDL
MODEL 4
REMARK VINA RESULT: -4.750567051      0.878      1.508
REMARK  5 active torsions:
REMARK  status: ('A' for Active; 'I' for Inactive)
REMARK    1  A    between atoms: N1_1  and  C1_4 
REMARK    2  A    between atoms: C2_9  and  S1_10 
REMARK    3  A    between atoms: S1_10  and  C3_11 
REMARK    4  A    between atoms: C3_11  and  C4_12 
REMARK    5  A    between atoms: C4_12  and  N4_13 
ROOT
HETATM    1  C1  UNL     1      84.604 -14.024  66.621  1.00  0.00     0.692 A 
HETATM    2  N2  UNL     1      84.452 -12.930  65.854  1.00  0.00    -0.130 N 
ATOM      3  H2  UNL     1      84.789 -11.994  66.083  1.00  0.00     0.205 HD
HETATM    4  N3  UNL     1      83.792 -13.265  64.747  1.00  0.00    -0.265 N 
ATOM      5  H3  UNL     1      83.543 -12.625  63.992  1.00  0.00     0.189 HD
HETATM    6  C2  UNL     1      83.506 -14.576  64.778  1.00  0.00     0.174 A 
HETATM    7  N5  UNL     1      84.017 -15.024  65.945  1.00  0.00    -0.168 N 
ATOM      8  H5  UNL     1      83.965 -15.990  66.268  1.00  0.00     0.186 HD
ENDROOT
BRANCH   6   9
HETATM    9  S1  UNL     1      82.633 -15.498  63.522  1.00  0.00    -0.090 SA
BRANCH   9  10
HETATM   10  C3  UNL     1      82.331 -17.199  64.037  1.00  0.00     0.109 C 
BRANCH  10  11
HETATM   11  C4  UNL     1      81.193 -17.841  63.283  1.00  0.00     0.240 C 
BRANCH  11  12
HETATM   12  N4  UNL     1      80.498 -16.885  62.453  1.00  0.00    -0.079 N 
ATOM     13  H43 UNL     1      80.423 -15.978  62.913  1.00  0.00     0.274 HD
ATOM     14  H42 UNL     1      81.063 -16.610  61.649  1.00  0.00     0.274 HD
ATOM     15  H41 UNL     1      79.584 -17.233  62.164  1.00  0.00     0.274 HD
ENDBRANCH  11  12
ENDBRANCH  10  11
ENDBRANCH   9  10
ENDBRANCH   6   9
BRANCH   1  16
HETATM   16  N1  UNL     1      85.198 -14.045  67.758  1.00  0.00    -0.233 N 
ATOM     17  H12 UNL     1      86.189 -13.944  67.976  1.00  0.00     0.174 HD
ATOM     18  H11 UNL     1      84.731 -14.173  68.657  1.00  0.00     0.174 HD
ENDBRANCH   1  16
TORSDOF 5
ENDMDL
MODEL 5
REMARK VINA RESULT: -4.657807602      1.625      5.364
REMARK  5 active torsions:
REMARK  status: ('A' for Active; 'I' for Inactive)
REMARK    1  A    between atoms: N1_1  and  C1_4 
REMARK    2  A    between atoms: C2_9  and  S1_10 
REMARK    3  A    between atoms: S1_10  and  C3_11 
REMARK    4  A    between atoms: C3_11  and  C4_12 
REMARK    5  A    between atoms: C4_12  and  N4_13 
ROOT
HETATM    1  C1  UNL     1      81.656 -17.111  63.594  1.00  0.00     0.692 A 
HETATM    2  N2  UNL     1      81.416 -15.948  62.962  1.00  0.00    -0.130 N 
ATOM      3  H2  UNL     1      80.684 -15.790  62.270  1.00  0.00     0.205 HD
HETATM    4  N3  UNL     1      82.288 -15.036  63.387  1.00  0.00    -0.265 N 
ATOM      5  H3  UNL     1      82.329 -14.066  63.071  1.00  0.00     0.189 HD
HETATM    6  C2  UNL     1      83.105 -15.590  64.297  1.00  0.00     0.174 A 
HETATM    7  N5  UNL     1      82.695 -16.872  64.409  1.00  0.00    -0.168 N 
ATOM      8  H5  UNL     1      83.118 -17.564  65.028  1.00  0.00     0.186 HD
ENDROOT
BRANCH   6   9
HETATM    9  S1  UNL     1      84.439 -14.772  65.158  1.00  0.00    -0.090 SA
BRANCH   9  10
HETATM   10  C3  UNL     1      84.064 -13.036  65.467  1.00  0.00     0.109 C 
BRANCH  10  11
HETATM   11  C4  UNL     1      84.135 -12.678  66.930  1.00  0.00     0.240 C 
BRANCH  11  12
HETATM   12  N4  UNL     1      84.857 -13.673  67.687  1.00  0.00    -0.079 N 
ATOM     13  H43 UNL     1      85.791 -13.346  67.933  1.00  0.00     0.274 HD
ATOM     14  H42 UNL     1      84.473 -13.778  68.627  1.00  0.00     0.274 HD
ATOM     15  H41 UNL     1      84.892 -14.566  67.197  1.00  0.00     0.274 HD
ENDBRANCH  11  12
ENDBRANCH  10  11
ENDBRANCH   9  10
ENDBRANCH   6   9
BRANCH   1  16
HETATM   16  N1  UNL     1      80.992 -18.194  63.412  1.00  0.00    -0.233 N 
ATOM     17  H12 UNL     1      81.326 -19.152  63.315  1.00  0.00     0.174 HD
ATOM     18  H11 UNL     1      79.976 -18.248  63.335  1.00  0.00     0.174 HD
ENDBRANCH   1  16
TORSDOF 5
ENDMDL
