MODEL 1
REMARK VINA RESULT: -7.213936440      0.000      0.000
REMARK  3 active torsions:
REMARK  status: ('A' for Active; 'I' for Inactive)
REMARK    1  A    between atoms: N1_1  and  C1_5 
REMARK    2  A    between atoms: C1_5  and  C2_6 
REMARK    3  A    between atoms: C1_5  and  C5_13 
ROOT
HETATM    1  C1  UNL     1      84.546 -15.032  65.798  1.00  0.00     0.303 C 
ENDROOT
BRANCH   1   2
HETATM    2  N1  UNL     1      85.770 -15.208  65.037  1.00  0.00    -0.063 N 
ATOM      3  H13 UNL     1      85.851 -14.571  64.245  1.00  0.00     0.275 HD
ATOM      4  H12 UNL     1      86.605 -14.897  65.532  1.00  0.00     0.275 HD
ATOM      5  H11 UNL     1      85.796 -16.193  64.773  1.00  0.00     0.275 HD
ENDBRANCH   1   2
BRANCH   1   6
HETATM    6  C2  UNL     1      83.422 -15.296  64.841  1.00  0.00     0.064 A 
HETATM    7  C3  UNL     1      82.592 -16.396  64.805  1.00  0.00     0.116 A 
HETATM    8  N2  UNL     1      81.718 -16.254  63.803  1.00  0.00    -0.360 N 
HETATM    9  C4  UNL     1      81.988 -15.081  63.212  1.00  0.00     0.180 A 
ATOM     10  H2  UNL     1      80.985 -16.913  63.538  1.00  0.00     0.166 HD
HETATM   11  N3  UNL     1      83.021 -14.496  63.838  1.00  0.00    -0.353 N 
ATOM     12  H3  UNL     1      83.432 -13.595  63.593  1.00  0.00     0.166 HD
ENDBRANCH   1   6
BRANCH   1  13
HETATM   13  C5  UNL     1      84.500 -13.610  66.266  1.00  0.00     0.144 A 
HETATM   14  N4  UNL     1      84.470 -13.236  67.560  1.00  0.00    -0.272 N 
HETATM   15  N5  UNL     1      84.433 -11.911  67.588  1.00  0.00    -0.007 NA
ATOM     16  H4  UNL     1      84.475 -13.857  68.369  1.00  0.00     0.185 HD
HETATM   17  N6  UNL     1      84.437 -11.424  66.356  1.00  0.00    -0.007 NA
HETATM   18  N7  UNL     1      84.479 -12.484  65.560  1.00  0.00    -0.272 N 
ATOM     19  H7  UNL     1      84.493 -12.441  64.541  1.00  0.00     0.185 HD
ENDBRANCH   1  13
TORSDOF 3
ENDMDL
MODEL 2
REMARK VINA RESULT: -6.582962573      1.697      3.319
REMARK  3 active torsions:
REMARK  status: ('A' for Active; 'I' for Inactive)
REMARK    1  A    between atoms: N1_1  and  C1_5 
REMARK    2  A    between atoms: C1_5  and  C2_6 
REMARK    3  A    between atoms: C1_5  and  C5_13 
ROOT
HETATM    1  C1  UNL     1      84.192 -14.540  65.371  1.00  0.00     0.303 C 
ENDROOT
BRANCH   1   2
HETATM    2  N1  UNL     1      83.084 -15.307  65.912  1.00  0.00    -0.063 N 
ATOM      3  H13 UNL     1      82.767 -16.055  65.295  1.00  0.00     0.275 HD
ATOM      4  H12 UNL     1      83.346 -15.900  66.699  1.00  0.00     0.275 HD
ATOM      5  H11 UNL     1      82.357 -14.629  66.138  1.00  0.00     0.275 HD
ENDBRANCH   1   2
BRANCH   1   6
HETATM    6  C2  UNL     1      85.422 -15.363  65.611  1.00  0.00     0.064 A 
HETATM    7  C3  UNL     1      86.465 -15.588  64.739  1.00  0.00     0.116 A 
HETATM    8  N2  UNL     1      87.370 -16.376  65.329  1.00  0.00    -0.360 N 
HETATM    9  C4  UNL     1      86.909 -16.647  66.559  1.00  0.00     0.180 A 
ATOM     10  H2  UNL     1      88.245 -16.707  64.922  1.00  0.00     0.166 HD
HETATM   11  N3  UNL     1      85.727 -16.036  66.735  1.00  0.00    -0.353 N 
ATOM     12  H3  UNL     1      85.157 -16.075  67.580  1.00  0.00     0.166 HD
ENDBRANCH   1   6
BRANCH   1  13
HETATM   13  C5  UNL     1      84.275 -13.256  66.136  1.00  0.00     0.144 A 
HETATM   14  N4  UNL     1      84.250 -12.032  65.572  1.00  0.00    -0.272 N 
HETATM   15  N5  UNL     1      84.344 -11.143  66.551  1.00  0.00    -0.007 NA
ATOM     16  H4  UNL     1      84.175 -11.827  64.576  1.00  0.00     0.185 HD
HETATM   17  N6  UNL     1      84.428 -11.756  67.723  1.00  0.00    -0.007 NA
HETATM   18  N7  UNL     1      84.383 -13.053  67.445  1.00  0.00    -0.272 N 
ATOM     19  H7  UNL     1      84.426 -13.795  68.143  1.00  0.00     0.185 HD
ENDBRANCH   1  13
TORSDOF 3
ENDMDL
MODEL 3
REMARK VINA RESULT: -5.543491675      1.061      4.256
REMARK  3 active torsions:
REMARK  status: ('A' for Active; 'I' for Inactive)
REMARK    1  A    between atoms: N1_1  and  C1_5 
REMARK    2  A    between atoms: C1_5  and  C2_6 
REMARK    3  A    between atoms: C1_5  and  C5_13 
ROOT
HETATM    1  C1  UNL     1      84.850 -14.772  64.554  1.00  0.00     0.303 C 
ENDROOT
BRANCH   1   2
HETATM    2  N1  UNL     1      85.841 -15.751  64.965  1.00  0.00    -0.063 N 
ATOM      3  H13 UNL     1      85.753 -16.646  64.482  1.00  0.00     0.275 HD
ATOM      4  H12 UNL     1      86.785 -15.532  64.648  1.00  0.00     0.275 HD
ATOM      5  H11 UNL     1      85.758 -15.825  65.979  1.00  0.00     0.275 HD
ENDBRANCH   1   2
BRANCH   1   6
HETATM    6  C2  UNL     1      84.634 -13.880  65.740  1.00  0.00     0.064 A 
HETATM    7  C3  UNL     1      84.950 -14.142  67.055  1.00  0.00     0.116 A 
HETATM    8  N2  UNL     1      84.598 -13.095  67.809  1.00  0.00    -0.360 N 
HETATM    9  C4  UNL     1      84.068 -12.181  66.984  1.00  0.00     0.180 A 
ATOM     10  H2  UNL     1      84.713 -13.008  68.819  1.00  0.00     0.166 HD
HETATM   11  N3  UNL     1      84.086 -12.652  65.728  1.00  0.00    -0.353 N 
ATOM     12  H3  UNL     1      83.743 -12.160  64.902  1.00  0.00     0.166 HD
ENDBRANCH   1   6
BRANCH   1  13
HETATM   13  C5  UNL     1      83.588 -15.508  64.227  1.00  0.00     0.144 A 
HETATM   14  N4  UNL     1      83.117 -16.558  64.928  1.00  0.00    -0.272 N 
HETATM   15  N5  UNL     1      81.989 -16.947  64.349  1.00  0.00    -0.007 NA
ATOM     16  H4  UNL     1      83.548 -16.977  65.752  1.00  0.00     0.185 HD
HETATM   17  N6  UNL     1      81.723 -16.182  63.300  1.00  0.00    -0.007 NA
HETATM   18  N7  UNL     1      82.717 -15.305  63.243  1.00  0.00    -0.272 N 
ATOM     19  H7  UNL     1      82.802 -14.572  62.539  1.00  0.00     0.185 HD
ENDBRANCH   1  13
TORSDOF 3
ENDMDL
MODEL 4
REMARK VINA RESULT: -5.427271629      1.161      2.006
REMARK  3 active torsions:
REMARK  status: ('A' for Active; 'I' for Inactive)
REMARK    1  A    between atoms: N1_1  and  C1_5 
REMARK    2  A    between atoms: C1_5  and  C2_6 
REMARK    3  A    between atoms: C1_5  and  C5_13 
ROOT
HETATM    1  C1  UNL     1      83.927 -13.817  64.351  1.00  0.00     0.303 C 
ENDROOT
BRANCH   1   2
HETATM    2  N1  UNL     1      83.137 -12.722  63.816  1.00  0.00    -0.063 N 
ATOM      3  H13 UNL     1      82.131 -12.868  63.898  1.00  0.00     0.275 HD
ATOM      4  H12 UNL     1      83.185 -11.873  64.379  1.00  0.00     0.275 HD
ATOM      5  H11 UNL     1      83.453 -12.592  62.855  1.00  0.00     0.275 HD
ENDBRANCH   1   2
BRANCH   1   6
HETATM    6  C2  UNL     1      83.097 -15.053  64.169  1.00  0.00     0.064 A 
HETATM    7  C3  UNL     1      81.990 -15.209  63.364  1.00  0.00     0.116 A 
HETATM    8  N2  UNL     1      81.534 -16.461  63.481  1.00  0.00    -0.360 N 
HETATM    9  C4  UNL     1      82.341 -17.091  64.347  1.00  0.00     0.180 A 
ATOM     10  H2  UNL     1      80.727 -16.861  63.001  1.00  0.00     0.166 HD
HETATM   11  N3  UNL     1      83.290 -16.242  64.768  1.00  0.00    -0.353 N 
ATOM     12  H3  UNL     1      84.034 -16.461  65.431  1.00  0.00     0.166 HD
ENDBRANCH   1   6
BRANCH   1  13
HETATM   13  C5  UNL     1      84.145 -13.554  65.808  1.00  0.00     0.144 A 
HETATM   14  N4  UNL     1      83.689 -12.466  66.461  1.00  0.00    -0.272 N 
HETATM   15  N5  UNL     1      84.071 -12.574  67.726  1.00  0.00    -0.007 NA
ATOM     16  H4  UNL     1      83.150 -11.700  66.056  1.00  0.00     0.185 HD
HETATM   17  N6  UNL     1      84.757 -13.694  67.905  1.00  0.00    -0.007 NA
HETATM   18  N7  UNL     1      84.790 -14.280  66.716  1.00  0.00    -0.272 N 
ATOM     19  H7  UNL     1      85.249 -15.170  66.523  1.00  0.00     0.185 HD
ENDBRANCH   1  13
TORSDOF 3
ENDMDL
MODEL 5
REMARK VINA RESULT: -5.213956435      1.172      2.055
REMARK  3 active torsions:
REMARK  status: ('A' for Active; 'I' for Inactive)
REMARK    1  A    between atoms: N1_1  and  C1_5 
REMARK    2  A    between atoms: C1_5  and  C2_6 
REMARK    3  A    between atoms: C1_5  and  C5_13 
ROOT
HETATM    1  C1  UNL     1      84.273 -13.604  64.879  1.00  0.00     0.303 C 
ENDROOT
BRANCH   1   2
HETATM    2  N1  UNL     1      83.467 -12.425  65.138  1.00  0.00    -0.063 N 
ATOM      3  H13 UNL     1      83.885 -11.787  65.816  1.00  0.00     0.275 HD
ATOM      4  H12 UNL     1      83.438 -11.771  64.356  1.00  0.00     0.275 HD
ATOM      5  H11 UNL     1      82.547 -12.769  65.415  1.00  0.00     0.275 HD
ENDBRANCH   1   2
BRANCH   1   6
HETATM    6  C2  UNL     1      83.313 -14.678  64.461  1.00  0.00     0.064 A 
HETATM    7  C3  UNL     1      82.993 -15.830  65.144  1.00  0.00     0.116 A 
HETATM    8  N2  UNL     1      82.097 -16.527  64.438  1.00  0.00    -0.360 N 
HETATM    9  C4  UNL     1      81.851 -15.826  63.322  1.00  0.00     0.180 A 
ATOM     10  H2  UNL     1      81.680 -17.421  64.699  1.00  0.00     0.166 HD
HETATM   11  N3  UNL     1      82.586 -14.704  63.330  1.00  0.00    -0.353 N 
ATOM     12  H3  UNL     1      82.591 -13.990  62.601  1.00  0.00     0.166 HD
ENDBRANCH   1   6
BRANCH   1  13
HETATM   13  C5  UNL     1      84.947 -13.987  66.159  1.00  0.00     0.144 A 
HETATM   14  N4  UNL     1      84.579 -13.540  67.376  1.00  0.00    -0.272 N 
HETATM   15  N5  UNL     1      85.397 -14.087  68.264  1.00  0.00    -0.007 NA
ATOM     16  H4  UNL     1      83.811 -12.899  67.577  1.00  0.00     0.185 HD
HETATM   17  N6  UNL     1      86.279 -14.868  67.657  1.00  0.00    -0.007 NA
HETATM   18  N7  UNL     1      85.984 -14.793  66.365  1.00  0.00    -0.272 N 
ATOM     19  H7  UNL     1      86.487 -15.287  65.628  1.00  0.00     0.185 HD
ENDBRANCH   1  13
TORSDOF 3
ENDMDL
