MODEL 1
REMARK VINA RESULT: -4.673500349      0.000      0.000
REMARK  6 active torsions:
REMARK  status: ('A' for Active; 'I' for Inactive)
REMARK    1  A    between atoms: C2_2  and  C4_4 
REMARK    2  A    between atoms: C2_2  and  C5_8 
REMARK    3  A    between atoms: C5_8  and  O2_9 
REMARK    4  A    between atoms: C5_8  and  C6_11 
REMARK    5  A    between atoms: C6_11  and  N2_12 
REMARK    6  A    between atoms: C6_11  and  N3_16 
ROOT
HETATM    1  C5  UNL     1      83.515 -15.776  65.405  1.00  0.00     0.188 C 
ENDROOT
BRANCH   1   2
HETATM    2  C2  UNL     1      84.583 -14.746  65.543  1.00  0.00     0.030 C 
HETATM    3  C1  UNL     1      85.664 -15.033  64.510  1.00  0.00     0.022 C 
HETATM    4  C3  UNL     1      85.254 -14.721  66.882  1.00  0.00     0.022 C 
BRANCH   2   5
HETATM    5  C4  UNL     1      84.014 -13.389  65.231  1.00  0.00     0.281 A 
HETATM    6  N1  UNL     1      84.411 -12.218  65.789  1.00  0.00    -0.268 N 
HETATM    7  O1  UNL     1      83.139 -12.813  66.208  1.00  0.00    -0.254 OA
ATOM      8  H1  UNL     1      85.097 -11.466  65.862  1.00  0.00     0.190 HD
ENDBRANCH   2   5
ENDBRANCH   1   2
BRANCH   1   9
HETATM    9  O2  UNL     1      82.384 -15.410  66.135  1.00  0.00    -0.391 OA
ATOM     10  H2  UNL     1      81.924 -16.180  66.448  1.00  0.00     0.210 HD
ENDBRANCH   1   9
BRANCH   1  11
HETATM   11  C6  UNL     1      83.083 -16.072  64.011  1.00  0.00     0.407 C 
BRANCH  11  12
HETATM   12  N2  UNL     1      81.794 -15.389  63.823  1.00  0.00    -0.048 N 
ATOM     13  H23 UNL     1      81.005 -15.898  64.220  1.00  0.00     0.276 HD
ATOM     14  H22 UNL     1      81.697 -14.546  64.389  1.00  0.00     0.276 HD
ATOM     15  H21 UNL     1      81.704 -15.218  62.822  1.00  0.00     0.276 HD
ENDBRANCH  11  12
BRANCH  11  16
HETATM   16  N3  UNL     1      82.813 -17.472  63.768  1.00  0.00    -0.048 N 
ATOM     17  H33 UNL     1      83.567 -17.893  63.224  1.00  0.00     0.276 HD
ATOM     18  H32 UNL     1      82.902 -18.010  64.630  1.00  0.00     0.276 HD
ATOM     19  H31 UNL     1      81.911 -17.647  63.327  1.00  0.00     0.276 HD
ENDBRANCH  11  16
ENDBRANCH   1  11
TORSDOF 6
ENDMDL
MODEL 2
REMARK VINA RESULT: -4.476114901      1.333      1.839
REMARK  6 active torsions:
REMARK  status: ('A' for Active; 'I' for Inactive)
REMARK    1  A    between atoms: C2_2  and  C4_4 
REMARK    2  A    between atoms: C2_2  and  C5_8 
REMARK    3  A    between atoms: C5_8  and  O2_9 
REMARK    4  A    between atoms: C5_8  and  C6_11 
REMARK    5  A    between atoms: C6_11  and  N2_12 
REMARK    6  A    between atoms: C6_11  and  N3_16 
ROOT
HETATM    1  C5  UNL     1      83.405 -15.902  65.256  1.00  0.00     0.188 C 
ENDROOT
BRANCH   1   2
HETATM    2  C2  UNL     1      84.579 -14.986  65.285  1.00  0.00     0.030 C 
HETATM    3  C1  UNL     1      84.095 -13.574  64.987  1.00  0.00     0.022 C 
HETATM    4  C3  UNL     1      85.642 -15.305  64.279  1.00  0.00     0.022 C 
BRANCH   2   5
HETATM    5  C4  UNL     1      85.172 -14.974  66.668  1.00  0.00     0.281 A 
HETATM    6  N1  UNL     1      85.000 -13.997  67.593  1.00  0.00    -0.268 N 
HETATM    7  O1  UNL     1      86.282 -14.097  66.890  1.00  0.00    -0.254 OA
ATOM      8  H1  UNL     1      84.408 -13.531  68.281  1.00  0.00     0.190 HD
ENDBRANCH   2   5
ENDBRANCH   1   2
BRANCH   1   9
HETATM    9  O2  UNL     1      82.340 -15.358  65.975  1.00  0.00    -0.391 OA
ATOM     10  H2  UNL     1      82.509 -15.404  66.909  1.00  0.00     0.210 HD
ENDBRANCH   1   9
BRANCH   1  11
HETATM   11  C6  UNL     1      82.904 -16.265  63.902  1.00  0.00     0.407 C 
BRANCH  11  12
HETATM   12  N2  UNL     1      81.652 -15.518  63.710  1.00  0.00    -0.048 N 
ATOM     13  H23 UNL     1      81.597 -15.043  62.809  1.00  0.00     0.276 HD
ATOM     14  H22 UNL     1      80.837 -16.119  63.585  1.00  0.00     0.276 HD
ATOM     15  H21 UNL     1      81.570 -14.886  64.506  1.00  0.00     0.276 HD
ENDBRANCH  11  12
BRANCH  11  16
HETATM   16  N3  UNL     1      82.543 -17.658  63.765  1.00  0.00    -0.048 N 
ATOM     17  H33 UNL     1      82.745 -17.990  62.821  1.00  0.00     0.276 HD
ATOM     18  H32 UNL     1      83.184 -18.249  64.295  1.00  0.00     0.276 HD
ATOM     19  H31 UNL     1      81.577 -17.860  64.018  1.00  0.00     0.276 HD
ENDBRANCH  11  16
ENDBRANCH   1  11
TORSDOF 6
ENDMDL
MODEL 3
REMARK VINA RESULT: -4.287944535      1.485      3.614
REMARK  6 active torsions:
REMARK  status: ('A' for Active; 'I' for Inactive)
REMARK    1  A    between atoms: C2_2  and  C4_4 
REMARK    2  A    between atoms: C2_2  and  C5_8 
REMARK    3  A    between atoms: C5_8  and  O2_9 
REMARK    4  A    between atoms: C5_8  and  C6_11 
REMARK    5  A    between atoms: C6_11  and  N2_12 
REMARK    6  A    between atoms: C6_11  and  N3_16 
ROOT
HETATM    1  C5  UNL     1      84.683 -14.150  66.833  1.00  0.00     0.188 C 
ENDROOT
BRANCH   1   2
HETATM    2  C2  UNL     1      85.206 -15.199  65.914  1.00  0.00     0.030 C 
HETATM    3  C1  UNL     1      86.016 -16.195  66.732  1.00  0.00     0.022 C 
HETATM    4  C3  UNL     1      86.105 -14.687  64.833  1.00  0.00     0.022 C 
BRANCH   2   5
HETATM    5  C4  UNL     1      84.054 -15.952  65.307  1.00  0.00     0.281 A 
HETATM    6  N1  UNL     1      83.365 -15.583  64.198  1.00  0.00    -0.268 N 
HETATM    7  O1  UNL     1      82.744 -15.411  65.515  1.00  0.00    -0.254 OA
ATOM      8  H1  UNL     1      83.315 -15.492  63.183  1.00  0.00     0.190 HD
ENDBRANCH   2   5
ENDBRANCH   1   2
BRANCH   1   9
HETATM    9  O2  UNL     1      85.330 -14.212  68.068  1.00  0.00    -0.391 OA
ATOM     10  H2  UNL     1      84.995 -14.934  68.586  1.00  0.00     0.210 HD
ENDBRANCH   1   9
BRANCH   1  11
HETATM   11  C6  UNL     1      84.782 -12.750  66.335  1.00  0.00     0.407 C 
BRANCH  11  12
HETATM   12  N2  UNL     1      84.624 -11.881  67.511  1.00  0.00    -0.048 N 
ATOM     13  H23 UNL     1      84.130 -12.328  68.282  1.00  0.00     0.276 HD
ATOM     14  H22 UNL     1      85.499 -11.707  68.006  1.00  0.00     0.276 HD
ATOM     15  H21 UNL     1      84.171 -11.029  67.180  1.00  0.00     0.276 HD
ENDBRANCH  11  12
BRANCH  11  16
HETATM   16  N3  UNL     1      83.715 -12.373  65.435  1.00  0.00    -0.048 N 
ATOM     17  H33 UNL     1      82.958 -13.056  65.470  1.00  0.00     0.276 HD
ATOM     18  H32 UNL     1      83.222 -11.552  65.786  1.00  0.00     0.276 HD
ATOM     19  H31 UNL     1      84.020 -12.224  64.473  1.00  0.00     0.276 HD
ENDBRANCH  11  16
ENDBRANCH   1  11
TORSDOF 6
ENDMDL
MODEL 4
REMARK VINA RESULT: -4.282778305      2.630      3.895
REMARK  6 active torsions:
REMARK  status: ('A' for Active; 'I' for Inactive)
REMARK    1  A    between atoms: C2_2  and  C4_4 
REMARK    2  A    between atoms: C2_2  and  C5_8 
REMARK    3  A    between atoms: C5_8  and  O2_9 
REMARK    4  A    between atoms: C5_8  and  C6_11 
REMARK    5  A    between atoms: C6_11  and  N2_12 
REMARK    6  A    between atoms: C6_11  and  N3_16 
ROOT
HETATM    1  C5  UNL     1      84.406 -13.951  66.771  1.00  0.00     0.188 C 
ENDROOT
BRANCH   1   2
HETATM    2  C2  UNL     1      84.595 -14.967  65.698  1.00  0.00     0.030 C 
HETATM    3  C1  UNL     1      84.701 -14.243  64.363  1.00  0.00     0.022 C 
HETATM    4  C3  UNL     1      83.476 -15.954  65.572  1.00  0.00     0.022 C 
BRANCH   2   5
HETATM    5  C4  UNL     1      85.894 -15.692  65.919  1.00  0.00     0.281 A 
HETATM    6  N1  UNL     1      87.132 -15.148  65.811  1.00  0.00    -0.268 N 
HETATM    7  O1  UNL     1      86.650 -16.039  64.752  1.00  0.00    -0.254 OA
ATOM      8  H1  UNL     1      87.867 -14.551  66.192  1.00  0.00     0.190 HD
ENDBRANCH   2   5
ENDBRANCH   1   2
BRANCH   1   9
HETATM    9  O2  UNL     1      85.231 -14.229  67.861  1.00  0.00    -0.391 OA
ATOM     10  H2  UNL     1      84.878 -13.844  68.654  1.00  0.00     0.210 HD
ENDBRANCH   1   9
BRANCH   1  11
HETATM   11  C6  UNL     1      84.643 -12.537  66.368  1.00  0.00     0.407 C 
BRANCH  11  12
HETATM   12  N2  UNL     1      84.643 -11.747  67.609  1.00  0.00    -0.048 N 
ATOM     13  H23 UNL     1      83.722 -11.388  67.860  1.00  0.00     0.276 HD
ATOM     14  H22 UNL     1      84.792 -12.310  68.446  1.00  0.00     0.276 HD
ATOM     15  H21 UNL     1      85.342 -11.016  67.483  1.00  0.00     0.276 HD
ENDBRANCH  11  12
BRANCH  11  16
HETATM   16  N3  UNL     1      83.586 -11.975  65.557  1.00  0.00    -0.048 N 
ATOM     17  H33 UNL     1      83.957 -11.263  64.927  1.00  0.00     0.276 HD
ATOM     18  H32 UNL     1      83.258 -12.655  64.871  1.00  0.00     0.276 HD
ATOM     19  H31 UNL     1      82.804 -11.605  66.096  1.00  0.00     0.276 HD
ENDBRANCH  11  16
ENDBRANCH   1  11
TORSDOF 6
ENDMDL
MODEL 5
REMARK VINA RESULT: -4.254763186      2.725      3.192
REMARK  6 active torsions:
REMARK  status: ('A' for Active; 'I' for Inactive)
REMARK    1  A    between atoms: C2_2  and  C4_4 
REMARK    2  A    between atoms: C2_2  and  C5_8 
REMARK    3  A    between atoms: C5_8  and  O2_9 
REMARK    4  A    between atoms: C5_8  and  C6_11 
REMARK    5  A    between atoms: C6_11  and  N2_12 
REMARK    6  A    between atoms: C6_11  and  N3_16 
ROOT
HETATM    1  C5  UNL     1      85.525 -14.373  66.258  1.00  0.00     0.188 C 
ENDROOT
BRANCH   1   2
HETATM    2  C2  UNL     1      84.220 -13.915  65.706  1.00  0.00     0.030 C 
HETATM    3  C1  UNL     1      83.136 -14.874  66.175  1.00  0.00     0.022 C 
HETATM    4  C3  UNL     1      84.156 -13.880  64.210  1.00  0.00     0.022 C 
BRANCH   2   5
HETATM    5  C4  UNL     1      83.890 -12.557  66.263  1.00  0.00     0.281 A 
HETATM    6  N1  UNL     1      84.736 -11.764  66.967  1.00  0.00    -0.268 N 
HETATM    7  O1  UNL     1      83.667 -12.474  67.676  1.00  0.00    -0.254 OA
ATOM      8  H1  UNL     1      85.536 -11.131  66.987  1.00  0.00     0.190 HD
ENDBRANCH   2   5
ENDBRANCH   1   2
BRANCH   1   9
HETATM    9  O2  UNL     1      85.490 -14.388  67.653  1.00  0.00    -0.391 OA
ATOM     10  H2  UNL     1      85.472 -13.502  67.996  1.00  0.00     0.210 HD
ENDBRANCH   1   9
BRANCH   1  11
HETATM   11  C6  UNL     1      85.984 -15.714  65.799  1.00  0.00     0.407 C 
BRANCH  11  12
HETATM   12  N2  UNL     1      86.156 -16.530  67.011  1.00  0.00    -0.048 N 
ATOM     13  H23 UNL     1      86.985 -17.123  66.984  1.00  0.00     0.276 HD
ATOM     14  H22 UNL     1      86.418 -15.984  67.832  1.00  0.00     0.276 HD
ATOM     15  H21 UNL     1      85.289 -17.051  67.131  1.00  0.00     0.276 HD
ENDBRANCH  11  12
BRANCH  11  16
HETATM   16  N3  UNL     1      87.280 -15.701  65.159  1.00  0.00    -0.048 N 
ATOM     17  H33 UNL     1      87.910 -16.365  65.611  1.00  0.00     0.276 HD
ATOM     18  H32 UNL     1      87.227 -16.121  64.231  1.00  0.00     0.276 HD
ATOM     19  H31 UNL     1      87.707 -14.777  65.111  1.00  0.00     0.276 HD
ENDBRANCH  11  16
ENDBRANCH   1  11
TORSDOF 6
ENDMDL
