MODEL 1
REMARK VINA RESULT: 0.710043474      0.000      0.000
REMARK  6 active torsions:
REMARK  status: ('A' for Active; 'I' for Inactive)
REMARK    1  A    between atoms: C2_2  and  C3_3 
REMARK    2  A    between atoms: C3_3  and  C4_4 
REMARK    3  A    between atoms: C4_4  and  C5_5 
REMARK    4  A    between atoms: N4_19  and  N5_20 
REMARK    5  A    between atoms: C13_24  and  N6_25 
REMARK    6  A    between atoms: N7_28  and  N8_29 
ROOT
HETATM    1  C5  UNL     1      18.490  25.946 109.201  1.00  0.00    -0.014 C 
HETATM    2  C6  UNL     1      18.709  25.053 110.183  1.00  0.00    -0.022 A 
HETATM    3  C7  UNL     1      19.068  25.553 111.393  1.00  0.00     0.029 A 
HETATM    4  C8  UNL     1      19.620  24.706 112.367  1.00  0.00     0.090 A 
HETATM    5  N1  UNL     1      19.763  23.446 112.052  1.00  0.00    -0.352 N 
ATOM      6  H1  UNL     1      20.168  22.818 112.746  1.00  0.00     0.166 HD
HETATM    7  C9  UNL     1      19.400  22.927 110.849  1.00  0.00     0.112 A 
HETATM    8  N2  UNL     1      19.537  21.689 110.666  1.00  0.00    -0.385 N 
ATOM      9  H21 UNL     1      19.266  21.300 109.763  1.00  0.00     0.157 HD
ATOM     10  H22 UNL     1      19.946  21.116 111.405  1.00  0.00     0.157 HD
HETATM   11  C10 UNL     1      18.825  23.734 109.811  1.00  0.00     0.051 A 
HETATM   12  C11 UNL     1      18.116  23.096 108.896  1.00  0.00     0.134 A 
HETATM   13  N3  UNL     1      18.413  21.745 108.574  1.00  0.00    -0.272 N 
ATOM     14  H3  UNL     1      19.325  21.400 108.872  1.00  0.00     0.189 HD
HETATM   15  N4  UNL     1      17.609  20.846 107.904  1.00  0.00    -0.182 N 
HETATM   16  C12 UNL     1      16.306  21.274 107.451  1.00  0.00     0.184 A 
HETATM   17  C13 UNL     1      15.556  20.398 106.812  1.00  0.00     0.139 C 
HETATM   18  N7  UNL     1      15.918  22.597 107.721  1.00  0.00    -0.204 N 
HETATM   19  C16 UNL     1      16.789  23.528 108.437  1.00  0.00     0.297 A 
HETATM   20  O1  UNL     1      16.249  24.643 108.588  1.00  0.00    -0.264 OA
ENDROOT
BRANCH  15  21
HETATM   21  N5  UNL     1      17.999  19.530 107.637  1.00  0.00    -0.322 N 
ATOM     22  H52 UNL     1      17.270  18.822 107.549  1.00  0.00     0.179 HD
ATOM     23  H51 UNL     1      18.974  19.253 107.525  1.00  0.00     0.179 HD
ENDBRANCH  15  21
BRANCH  18  24
HETATM   24  N8  UNL     1      14.648  23.074 107.296  1.00  0.00    -0.334 N 
ATOM     25  H82 UNL     1      14.164  22.551 106.566  1.00  0.00     0.177 HD
ATOM     26  H81 UNL     1      14.245  23.912 107.716  1.00  0.00     0.177 HD
ENDBRANCH  18  24
BRANCH   1  27
HETATM   27  C4  UNL     1      18.614  27.388 109.403  1.00  0.00     0.028 C 
BRANCH  27  28
HETATM   28  C3  UNL     1      19.952  27.980 109.118  1.00  0.00     0.003 C 
BRANCH  28  29
HETATM   29  C2  UNL     1      20.664  28.560 110.289  1.00  0.00    -0.004 C 
HETATM   30  C1  UNL     1      21.631  27.560 110.882  1.00  0.00     0.005 C 
ENDBRANCH  28  29
ENDBRANCH  27  28
ENDBRANCH   1  27
BRANCH  17  31
HETATM   31  N6  UNL     1      14.261  20.626 106.294  1.00  0.00    -0.395 N 
HETATM   32  C14 UNL     1      14.028  20.653 104.839  1.00  0.00     0.148 C 
HETATM   33  C15 UNL     1      13.090  20.875 107.143  1.00  0.00     0.148 C 
ENDBRANCH  17  31
TORSDOF 6
ENDMDL
MODEL 2
REMARK VINA RESULT: 1.429123882      2.400      7.435
REMARK  6 active torsions:
REMARK  status: ('A' for Active; 'I' for Inactive)
REMARK    1  A    between atoms: C2_2  and  C3_3 
REMARK    2  A    between atoms: C3_3  and  C4_4 
REMARK    3  A    between atoms: C4_4  and  C5_5 
REMARK    4  A    between atoms: N4_19  and  N5_20 
REMARK    5  A    between atoms: C13_24  and  N6_25 
REMARK    6  A    between atoms: N7_28  and  N8_29 
ROOT
HETATM    1  C5  UNL     1      17.524  20.481 107.842  1.00  0.00    -0.014 C 
HETATM    2  C6  UNL     1      16.415  21.242 107.820  1.00  0.00    -0.022 A 
HETATM    3  C7  UNL     1      15.258  20.625 107.468  1.00  0.00     0.029 A 
HETATM    4  C8  UNL     1      14.135  21.389 107.109  1.00  0.00     0.090 A 
HETATM    5  N1  UNL     1      14.264  22.689 107.135  1.00  0.00    -0.352 N 
ATOM      6  H1  UNL     1      13.460  23.257 106.871  1.00  0.00     0.166 HD
HETATM    7  C9  UNL     1      15.411  23.323 107.493  1.00  0.00     0.112 A 
HETATM    8  N2  UNL     1      15.413  24.581 107.529  1.00  0.00    -0.385 N 
ATOM      9  H21 UNL     1      16.274  25.057 107.797  1.00  0.00     0.157 HD
ATOM     10  H22 UNL     1      14.572  25.091 107.256  1.00  0.00     0.157 HD
HETATM   11  C10 UNL     1      16.594  22.605 107.876  1.00  0.00     0.051 A 
HETATM   12  C11 UNL     1      17.470  23.267 108.613  1.00  0.00     0.134 A 
HETATM   13  N3  UNL     1      17.580  24.677 108.499  1.00  0.00    -0.272 N 
ATOM     14  H3  UNL     1      17.163  25.097 107.668  1.00  0.00     0.189 HD
HETATM   15  N4  UNL     1      18.186  25.546 109.382  1.00  0.00    -0.182 N 
HETATM   16  C12 UNL     1      18.800  25.014 110.576  1.00  0.00     0.184 A 
HETATM   17  C13 UNL     1      19.375  25.864 111.405  1.00  0.00     0.139 C 
HETATM   18  N7  UNL     1      18.745  23.625 110.781  1.00  0.00    -0.204 N 
HETATM   19  C16 UNL     1      18.092  22.729 109.830  1.00  0.00     0.297 A 
HETATM   20  O1  UNL     1      18.139  21.540 110.208  1.00  0.00    -0.264 OA
ENDROOT
BRANCH  15  21
HETATM   21  N5  UNL     1      18.239  26.928 109.174  1.00  0.00    -0.322 N 
ATOM     22  H52 UNL     1      17.967  27.539 109.944  1.00  0.00     0.179 HD
ATOM     23  H51 UNL     1      18.539  27.344 108.293  1.00  0.00     0.179 HD
ENDBRANCH  15  21
BRANCH  18  24
HETATM   24  N8  UNL     1      19.335  23.046 111.938  1.00  0.00    -0.334 N 
ATOM     25  H82 UNL     1      20.268  23.363 112.205  1.00  0.00     0.177 HD
ATOM     26  H81 UNL     1      18.832  22.340 112.474  1.00  0.00     0.177 HD
ENDBRANCH  18  24
BRANCH   1  27
HETATM   27  C4  UNL     1      17.509  19.056 107.520  1.00  0.00     0.028 C 
BRANCH  27  28
HETATM   28  C3  UNL     1      17.484  18.709 106.071  1.00  0.00     0.003 C 
BRANCH  28  29
HETATM   29  C2  UNL     1      18.316  17.541 105.672  1.00  0.00    -0.004 C 
HETATM   30  C1  UNL     1      19.573  17.991 104.961  1.00  0.00     0.005 C 
ENDBRANCH  28  29
ENDBRANCH  27  28
ENDBRANCH   1  27
BRANCH  17  31
HETATM   31  N6  UNL     1      20.025  25.538 112.618  1.00  0.00    -0.395 N 
HETATM   32  C14 UNL     1      19.247  25.111 113.795  1.00  0.00     0.148 C 
HETATM   33  C15 UNL     1      21.479  25.625 112.798  1.00  0.00     0.148 C 
ENDBRANCH  17  31
TORSDOF 6
ENDMDL
MODEL 3
REMARK VINA RESULT: 1.454780920      1.914      3.613
REMARK  6 active torsions:
REMARK  status: ('A' for Active; 'I' for Inactive)
REMARK    1  A    between atoms: C2_2  and  C3_3 
REMARK    2  A    between atoms: C3_3  and  C4_4 
REMARK    3  A    between atoms: C4_4  and  C5_5 
REMARK    4  A    between atoms: N4_19  and  N5_20 
REMARK    5  A    between atoms: C13_24  and  N6_25 
REMARK    6  A    between atoms: N7_28  and  N8_29 
ROOT
HETATM    1  C5  UNL     1      19.054  23.634 111.528  1.00  0.00    -0.014 C 
HETATM    2  C6  UNL     1      19.125  24.631 110.628  1.00  0.00    -0.022 A 
HETATM    3  C7  UNL     1      20.160  25.500 110.761  1.00  0.00     0.029 A 
HETATM    4  C8  UNL     1      20.135  26.730 110.084  1.00  0.00     0.090 A 
HETATM    5  N1  UNL     1      19.090  26.983 109.342  1.00  0.00    -0.352 N 
ATOM      6  H1  UNL     1      19.053  27.875 108.849  1.00  0.00     0.166 HD
HETATM    7  C9  UNL     1      18.049  26.122 109.192  1.00  0.00     0.112 A 
HETATM    8  N2  UNL     1      17.113  26.444 108.414  1.00  0.00    -0.385 N 
ATOM      9  H21 UNL     1      16.332  25.798 108.302  1.00  0.00     0.157 HD
ATOM     10  H22 UNL     1      17.140  27.351 107.948  1.00  0.00     0.157 HD
HETATM   11  C10 UNL     1      18.012  24.846 109.848  1.00  0.00     0.051 A 
HETATM   12  C11 UNL     1      17.225  23.931 109.309  1.00  0.00     0.134 A 
HETATM   13  N3  UNL     1      16.066  24.319 108.589  1.00  0.00    -0.272 N 
ATOM     14  H3  UNL     1      15.743  25.276 108.735  1.00  0.00     0.189 HD
HETATM   15  N4  UNL     1      15.325  23.552 107.714  1.00  0.00    -0.182 N 
HETATM   16  C12 UNL     1      15.726  22.186 107.468  1.00  0.00     0.184 A 
HETATM   17  C13 UNL     1      15.002  21.472 106.629  1.00  0.00     0.139 C 
HETATM   18  N7  UNL     1      16.865  21.706 108.136  1.00  0.00    -0.204 N 
HETATM   19  C16 UNL     1      17.634  22.542 109.055  1.00  0.00     0.297 A 
HETATM   20  O1  UNL     1      18.615  21.932 109.527  1.00  0.00    -0.264 OA
ENDROOT
BRANCH  15  21
HETATM   21  N5  UNL     1      14.192  24.034 107.051  1.00  0.00    -0.322 N 
ATOM     22  H52 UNL     1      13.359  24.231 107.606  1.00  0.00     0.179 HD
ATOM     23  H51 UNL     1      14.167  24.198 106.045  1.00  0.00     0.179 HD
ENDBRANCH  15  21
BRANCH  18  24
HETATM   24  N8  UNL     1      17.305  20.368 107.934  1.00  0.00    -0.334 N 
ATOM     25  H82 UNL     1      16.766  19.782 107.296  1.00  0.00     0.177 HD
ATOM     26  H81 UNL     1      18.134  20.021 108.416  1.00  0.00     0.177 HD
ENDBRANCH  18  24
BRANCH   1  27
HETATM   27  C4  UNL     1      20.037  23.463 112.596  1.00  0.00     0.028 C 
BRANCH  27  28
HETATM   28  C3  UNL     1      19.621  23.921 113.952  1.00  0.00     0.003 C 
BRANCH  28  29
HETATM   29  C2  UNL     1      18.700  25.090 113.984  1.00  0.00    -0.004 C 
HETATM   30  C1  UNL     1      19.146  26.100 115.017  1.00  0.00     0.005 C 
ENDBRANCH  28  29
ENDBRANCH  27  28
ENDBRANCH   1  27
BRANCH  17  31
HETATM   31  N6  UNL     1      15.234  20.127 106.262  1.00  0.00    -0.395 N 
HETATM   32  C14 UNL     1      14.743  19.605 104.974  1.00  0.00     0.148 C 
HETATM   33  C15 UNL     1      15.935  19.168 107.124  1.00  0.00     0.148 C 
ENDBRANCH  17  31
TORSDOF 6
ENDMDL
MODEL 4
REMARK VINA RESULT: 1.529761292      2.406      7.552
REMARK  6 active torsions:
REMARK  status: ('A' for Active; 'I' for Inactive)
REMARK    1  A    between atoms: C2_2  and  C3_3 
REMARK    2  A    between atoms: C3_3  and  C4_4 
REMARK    3  A    between atoms: C4_4  and  C5_5 
REMARK    4  A    between atoms: N4_19  and  N5_20 
REMARK    5  A    between atoms: C13_24  and  N6_25 
REMARK    6  A    between atoms: N7_28  and  N8_29 
ROOT
HETATM    1  C5  UNL     1      16.805  20.655 108.132  1.00  0.00    -0.014 C 
HETATM    2  C6  UNL     1      15.786  21.533 108.133  1.00  0.00    -0.022 A 
HETATM    3  C7  UNL     1      14.554  21.038 107.850  1.00  0.00     0.029 A 
HETATM    4  C8  UNL     1      13.506  21.911 107.516  1.00  0.00     0.090 A 
HETATM    5  N1  UNL     1      13.777  23.190 107.495  1.00  0.00    -0.352 N 
ATOM      6  H1  UNL     1      13.029  23.837 107.248  1.00  0.00     0.166 HD
HETATM    7  C9  UNL     1      15.002  23.702 107.783  1.00  0.00     0.112 A 
HETATM    8  N2  UNL     1      15.143  24.953 107.779  1.00  0.00    -0.385 N 
ATOM      9  H21 UNL     1      16.063  25.338 107.995  1.00  0.00     0.157 HD
ATOM     10  H22 UNL     1      14.351  25.546 107.526  1.00  0.00     0.157 HD
HETATM   11  C10 UNL     1      16.116  22.869 108.138  1.00  0.00     0.051 A 
HETATM   12  C11 UNL     1      17.091  23.449 108.815  1.00  0.00     0.134 A 
HETATM   13  N3  UNL     1      17.350  24.836 108.652  1.00  0.00    -0.272 N 
ATOM     14  H3  UNL     1      16.943  25.276 107.826  1.00  0.00     0.189 HD
HETATM   15  N4  UNL     1      18.087  25.655 109.480  1.00  0.00    -0.182 N 
HETATM   16  C12 UNL     1      18.694  25.092 110.664  1.00  0.00     0.184 A 
HETATM   17  C13 UNL     1      19.396  25.894 111.440  1.00  0.00     0.139 C 
HETATM   18  N7  UNL     1      18.497  23.723 110.915  1.00  0.00    -0.204 N 
HETATM   19  C16 UNL     1      17.707  22.879 110.021  1.00  0.00     0.297 A 
HETATM   20  O1  UNL     1      17.640  21.702 110.435  1.00  0.00    -0.264 OA
ENDROOT
BRANCH  15  21
HETATM   21  N5  UNL     1      18.281  27.017 109.227  1.00  0.00    -0.322 N 
ATOM     22  H52 UNL     1      18.091  27.361 108.285  1.00  0.00     0.179 HD
ATOM     23  H51 UNL     1      18.599  27.673 109.940  1.00  0.00     0.179 HD
ENDBRANCH  15  21
BRANCH  18  24
HETATM   24  N8  UNL     1      19.073  23.113 112.063  1.00  0.00    -0.334 N 
ATOM     25  H82 UNL     1      18.838  23.504 112.976  1.00  0.00     0.177 HD
ATOM     26  H81 UNL     1      19.697  22.313 111.964  1.00  0.00     0.177 HD
ENDBRANCH  18  24
BRANCH   1  27
HETATM   27  C4  UNL     1      16.620  19.232 107.856  1.00  0.00     0.028 C 
BRANCH  27  28
HETATM   28  C3  UNL     1      16.627  18.834 106.420  1.00  0.00     0.003 C 
BRANCH  28  29
HETATM   29  C2  UNL     1      15.318  18.933 105.717  1.00  0.00    -0.004 C 
HETATM   30  C1  UNL     1      15.291  18.039 104.498  1.00  0.00     0.005 C 
ENDBRANCH  28  29
ENDBRANCH  27  28
ENDBRANCH   1  27
BRANCH  17  31
HETATM   31  N6  UNL     1      20.061  25.531 112.633  1.00  0.00    -0.395 N 
HETATM   32  C14 UNL     1      19.295  25.164 113.838  1.00  0.00     0.148 C 
HETATM   33  C15 UNL     1      21.522  25.520 112.766  1.00  0.00     0.148 C 
ENDBRANCH  17  31
TORSDOF 6
ENDMDL
MODEL 5
REMARK VINA RESULT: 1.780410220      2.942      4.938
REMARK  6 active torsions:
REMARK  status: ('A' for Active; 'I' for Inactive)
REMARK    1  A    between atoms: C2_2  and  C3_3 
REMARK    2  A    between atoms: C3_3  and  C4_4 
REMARK    3  A    between atoms: C4_4  and  C5_5 
REMARK    4  A    between atoms: N4_19  and  N5_20 
REMARK    5  A    between atoms: C13_24  and  N6_25 
REMARK    6  A    between atoms: N7_28  and  N8_29 
ROOT
HETATM    1  C5  UNL     1      17.941  23.421 109.976  1.00  0.00    -0.014 C 
HETATM    2  C6  UNL     1      16.819  23.251 109.252  1.00  0.00    -0.022 A 
HETATM    3  C7  UNL     1      15.818  24.145 109.460  1.00  0.00     0.029 A 
HETATM    4  C8  UNL     1      14.521  23.864 109.001  1.00  0.00     0.090 A 
HETATM    5  N1  UNL     1      14.338  22.729 108.381  1.00  0.00    -0.352 N 
ATOM      6  H1  UNL     1      13.401  22.508 108.046  1.00  0.00     0.166 HD
HETATM    7  C9  UNL     1      15.331  21.827 108.157  1.00  0.00     0.112 A 
HETATM    8  N2  UNL     1      15.056  20.785 107.507  1.00  0.00    -0.385 N 
ATOM      9  H21 UNL     1      15.801  20.108 107.340  1.00  0.00     0.157 HD
ATOM     10  H22 UNL     1      14.097  20.625 107.198  1.00  0.00     0.157 HD
HETATM   11  C10 UNL     1      16.680  22.052 108.594  1.00  0.00     0.051 A 
HETATM   12  C11 UNL     1      17.622  21.372 107.962  1.00  0.00     0.134 A 
HETATM   13  N3  UNL     1      17.330  20.104 107.394  1.00  0.00    -0.272 N 
ATOM     14  H3  UNL     1      16.476  19.650 107.718  1.00  0.00     0.189 HD
HETATM   15  N4  UNL     1      18.069  19.416 106.454  1.00  0.00    -0.182 N 
HETATM   16  C12 UNL     1      19.291  20.003 105.958  1.00  0.00     0.184 A 
HETATM   17  C13 UNL     1      19.982  19.326 105.061  1.00  0.00     0.139 C 
HETATM   18  N7  UNL     1      19.669  21.259 106.461  1.00  0.00    -0.204 N 
HETATM   19  C16 UNL     1      18.865  21.968 107.454  1.00  0.00     0.297 A 
HETATM   20  O1  UNL     1      19.365  23.072 107.752  1.00  0.00    -0.264 OA
ENDROOT
BRANCH  15  21
HETATM   21  N5  UNL     1      17.690  18.166 105.956  1.00  0.00    -0.322 N 
ATOM     22  H52 UNL     1      18.424  17.485 105.760  1.00  0.00     0.179 HD
ATOM     23  H51 UNL     1      16.717  17.909 105.785  1.00  0.00     0.179 HD
ENDBRANCH  15  21
BRANCH  18  24
HETATM   24  N8  UNL     1      20.865  21.884 106.011  1.00  0.00    -0.334 N 
ATOM     25  H82 UNL     1      21.748  21.412 106.204  1.00  0.00     0.177 HD
ATOM     26  H81 UNL     1      20.825  22.772 105.512  1.00  0.00     0.177 HD
ENDBRANCH  18  24
BRANCH   1  27
HETATM   27  C4  UNL     1      18.103  24.512 110.935  1.00  0.00     0.028 C 
BRANCH  27  28
HETATM   28  C3  UNL     1      19.128  24.307 111.997  1.00  0.00     0.003 C 
BRANCH  28  29
HETATM   29  C2  UNL     1      18.602  24.164 113.382  1.00  0.00    -0.004 C 
HETATM   30  C1  UNL     1      18.942  25.377 114.217  1.00  0.00     0.005 C 
ENDBRANCH  28  29
ENDBRANCH  27  28
ENDBRANCH   1  27
BRANCH  17  31
HETATM   31  N6  UNL     1      21.195  19.731 104.461  1.00  0.00    -0.395 N 
HETATM   32  C14 UNL     1      22.488  19.427 105.101  1.00  0.00     0.148 C 
HETATM   33  C15 UNL     1      21.257  20.489 103.205  1.00  0.00     0.148 C 
ENDBRANCH  17  31
TORSDOF 6
ENDMDL
