MODEL 1
REMARK VINA RESULT: -5.157474124      0.000      0.000
REMARK  5 active torsions:
REMARK  status: ('A' for Active; 'I' for Inactive)
REMARK    1  A    between atoms: N1_2  and  C2_4 
REMARK    2  A    between atoms: C2_4  and  C3_9 
REMARK    3  A    between atoms: N2_5  and  O1_7 
REMARK    4  A    between atoms: C5_13  and  N4_14 
REMARK       I    between atoms: N4_14  and  C6_16 
REMARK       I    between atoms: C6_16  and  N5_17 
REMARK       I    between atoms: C6_16  and  N6_21 
REMARK    5  A    between atoms: C7_27  and  N8_28 
REMARK       I    between atoms: N9_31  and  C10_32 
ROOT
HETATM    1  C3  UNL     1      16.767  22.557 107.719  1.00  0.00     0.070 A 
HETATM    2  C4  UNL     1      15.617  22.411 106.917  1.00  0.00     0.125 A 
HETATM    3  N3  UNL     1      14.465  23.029 107.177  1.00  0.00    -0.201 N 
ATOM      4  H3  UNL     1      13.653  22.899 106.575  1.00  0.00     0.183 HD
HETATM    5  C5  UNL     1      14.406  23.829 108.258  1.00  0.00     0.682 A 
HETATM    6  N7  UNL     1      15.471  23.985 109.029  1.00  0.00    -0.176 N 
ATOM      7  H7  UNL     1      15.383  24.600 109.838  1.00  0.00     0.186 HD
HETATM    8  C7  UNL     1      16.683  23.378 108.816  1.00  0.00     0.134 A 
ENDROOT
BRANCH   5   9
HETATM    9  N4  UNL     1      13.302  24.440 108.532  1.00  0.00    -0.173 N 
HETATM   10  C6  UNL     1      12.100  23.772 108.925  1.00  0.00     0.494 C 
HETATM   11  N5  UNL     1      10.985  24.706 108.839  1.00  0.00    -0.032 N 
HETATM   12  N6  UNL     1      12.164  23.316 110.302  1.00  0.00    -0.032 N 
ATOM     13  H53 UNL     1      11.150  25.557 109.377  1.00  0.00     0.278 HD
ATOM     14  H52 UNL     1      10.907  25.132 107.916  1.00  0.00     0.278 HD
ATOM     15  H51 UNL     1      10.128  24.230 109.119  1.00  0.00     0.278 HD
ATOM     16  H63 UNL     1      12.983  22.730 110.462  1.00  0.00     0.278 HD
ATOM     17  H62 UNL     1      12.389  24.082 110.937  1.00  0.00     0.278 HD
ATOM     18  H61 UNL     1      11.307  22.840 110.582  1.00  0.00     0.278 HD
ATOM     19  H4  UNL     1      13.287  25.458 108.463  1.00  0.00     0.181 HD
ENDBRANCH   5   9
BRANCH   8  20
HETATM   20  N8  UNL     1      17.740  23.597 109.713  1.00  0.00    -0.363 N 
HETATM   21  C8  UNL     1      17.980  22.720 110.826  1.00  0.00     0.144 C 
HETATM   22  C9  UNL     1      17.755  23.642 112.056  1.00  0.00     0.145 C 
HETATM   23  N9  UNL     1      18.869  24.555 112.042  1.00  0.00    -0.349 N 
HETATM   24  C10 UNL     1      19.376  25.029 113.274  1.00  0.00     0.215 C 
HETATM   25  C12 UNL     1      19.453  24.973 110.805  1.00  0.00     0.145 C 
HETATM   26  C11 UNL     1      20.523  25.967 113.357  1.00  0.00     0.117 C 
HETATM   27  O2  UNL     1      18.871  24.672 114.393  1.00  0.00    -0.274 OA
HETATM   28  C13 UNL     1      18.631  24.723 109.576  1.00  0.00     0.144 C 
ENDBRANCH   8  20
BRANCH   1  29
HETATM   29  C2  UNL     1      17.969  21.856 107.292  1.00  0.00     0.136 C 
HETATM   30  N2  UNL     1      18.990  22.352 106.782  1.00  0.00    -0.252 N 
ATOM     31  H2  UNL     1      19.011  23.361 106.637  1.00  0.00     0.196 HD
BRANCH  29  32
HETATM   32  N1  UNL     1      17.952  20.424 107.492  1.00  0.00    -0.379 N 
HETATM   33  C1  UNL     1      16.645  19.815 107.457  1.00  0.00     0.147 C 
ATOM     34  H1  UNL     1      18.802  19.883 107.647  1.00  0.00     0.160 HD
ENDBRANCH  29  32
BRANCH  30  35
HETATM   35  O1  UNL     1      20.082  21.627 106.405  1.00  0.00    -0.288 OA
ATOM     36  H1  UNL     1      20.179  21.219 105.552  1.00  0.00     0.244 HD
ENDBRANCH  30  35
ENDBRANCH   1  29
TORSDOF 5
ENDMDL
MODEL 2
REMARK VINA RESULT: -4.625379226      3.261      7.842
REMARK  5 active torsions:
REMARK  status: ('A' for Active; 'I' for Inactive)
REMARK    1  A    between atoms: N1_2  and  C2_4 
REMARK    2  A    between atoms: C2_4  and  C3_9 
REMARK    3  A    between atoms: N2_5  and  O1_7 
REMARK    4  A    between atoms: C5_13  and  N4_14 
REMARK       I    between atoms: N4_14  and  C6_16 
REMARK       I    between atoms: C6_16  and  N5_17 
REMARK       I    between atoms: C6_16  and  N6_21 
REMARK    5  A    between atoms: C7_27  and  N8_28 
REMARK       I    between atoms: N9_31  and  C10_32 
ROOT
HETATM    1  C3  UNL     1      16.087  22.247 108.756  1.00  0.00     0.070 A 
HETATM    2  C4  UNL     1      16.956  23.162 109.383  1.00  0.00     0.125 A 
HETATM    3  N3  UNL     1      18.201  23.387 108.965  1.00  0.00    -0.201 N 
ATOM      4  H3  UNL     1      18.802  24.057 109.444  1.00  0.00     0.183 HD
HETATM    5  C5  UNL     1      18.642  22.704 107.892  1.00  0.00     0.682 A 
HETATM    6  N7  UNL     1      17.847  21.837 107.283  1.00  0.00    -0.176 N 
ATOM      7  H7  UNL     1      18.220  21.340 106.474  1.00  0.00     0.186 HD
HETATM    8  C7  UNL     1      16.558  21.561 107.664  1.00  0.00     0.134 A 
ENDROOT
BRANCH   5   9
HETATM    9  N4  UNL     1      19.844  22.904 107.465  1.00  0.00    -0.173 N 
HETATM   10  C6  UNL     1      20.700  21.863 106.984  1.00  0.00     0.494 C 
HETATM   11  N5  UNL     1      22.063  22.369 106.894  1.00  0.00    -0.032 N 
HETATM   12  N6  UNL     1      20.321  21.429 105.650  1.00  0.00    -0.032 N 
ATOM     13  H53 UNL     1      22.125  23.216 106.328  1.00  0.00     0.278 HD
ATOM     14  H52 UNL     1      22.389  22.762 107.776  1.00  0.00     0.278 HD
ATOM     15  H51 UNL     1      22.673  21.628 106.551  1.00  0.00     0.278 HD
ATOM     16  H63 UNL     1      19.341  21.150 105.615  1.00  0.00     0.278 HD
ATOM     17  H62 UNL     1      20.287  22.213 105.000  1.00  0.00     0.278 HD
ATOM     18  H61 UNL     1      20.931  20.687 105.307  1.00  0.00     0.278 HD
ATOM     19  H4  UNL     1      20.203  23.858 107.472  1.00  0.00     0.181 HD
ENDBRANCH   5   9
BRANCH   8  20
HETATM   20  N8  UNL     1      15.812  20.604 106.958  1.00  0.00    -0.363 N 
HETATM   21  C8  UNL     1      15.951  19.197 107.217  1.00  0.00     0.144 C 
HETATM   22  C9  UNL     1      16.500  18.645 105.873  1.00  0.00     0.145 C 
HETATM   23  N9  UNL     1      15.400  18.756 104.950  1.00  0.00    -0.349 N 
HETATM   24  C10 UNL     1      15.268  17.790 103.927  1.00  0.00     0.215 C 
HETATM   25  C12 UNL     1      14.455  19.824 105.069  1.00  0.00     0.145 C 
HETATM   26  C11 UNL     1      14.165  17.821 102.936  1.00  0.00     0.117 C 
HETATM   27  O2  UNL     1      16.100  16.826 103.799  1.00  0.00    -0.274 OA
HETATM   28  C13 UNL     1      14.879  20.980 105.925  1.00  0.00     0.144 C 
ENDBRANCH   8  20
BRANCH   1  29
HETATM   29  C2  UNL     1      14.739  22.133 109.295  1.00  0.00     0.136 C 
HETATM   30  N2  UNL     1      14.113  21.088 109.543  1.00  0.00    -0.252 N 
ATOM     31  H2  UNL     1      14.575  20.197 109.358  1.00  0.00     0.196 HD
BRANCH  29  32
HETATM   32  N1  UNL     1      14.074  23.389 109.561  1.00  0.00    -0.379 N 
HETATM   33  C1  UNL     1      13.556  24.068 108.398  1.00  0.00     0.147 C 
ATOM     34  H1  UNL     1      13.978  23.768 110.503  1.00  0.00     0.160 HD
ENDBRANCH  29  32
BRANCH  30  35
HETATM   35  O1  UNL     1      12.846  21.060 110.048  1.00  0.00    -0.288 OA
ATOM     36  H1  UNL     1      12.624  20.714 110.904  1.00  0.00     0.244 HD
ENDBRANCH  30  35
ENDBRANCH   1  29
TORSDOF 5
ENDMDL
MODEL 3
REMARK VINA RESULT: -4.444060358      2.237      4.963
REMARK  5 active torsions:
REMARK  status: ('A' for Active; 'I' for Inactive)
REMARK    1  A    between atoms: N1_2  and  C2_4 
REMARK    2  A    between atoms: C2_4  and  C3_9 
REMARK    3  A    between atoms: N2_5  and  O1_7 
REMARK    4  A    between atoms: C5_13  and  N4_14 
REMARK       I    between atoms: N4_14  and  C6_16 
REMARK       I    between atoms: C6_16  and  N5_17 
REMARK       I    between atoms: C6_16  and  N6_21 
REMARK    5  A    between atoms: C7_27  and  N8_28 
REMARK       I    between atoms: N9_31  and  C10_32 
ROOT
HETATM    1  C3  UNL     1      16.132  22.526 108.287  1.00  0.00     0.070 A 
HETATM    2  C4  UNL     1      16.094  21.721 107.132  1.00  0.00     0.125 A 
HETATM    3  N3  UNL     1      17.190  21.281 106.515  1.00  0.00    -0.201 N 
ATOM      4  H3  UNL     1      17.124  20.700 105.680  1.00  0.00     0.183 HD
HETATM    5  C5  UNL     1      18.386  21.625 107.028  1.00  0.00     0.682 A 
HETATM    6  N7  UNL     1      18.452  22.380 108.113  1.00  0.00    -0.176 N 
ATOM      7  H7  UNL     1      19.378  22.618 108.469  1.00  0.00     0.186 HD
HETATM    8  C7  UNL     1      17.363  22.865 108.792  1.00  0.00     0.134 A 
ENDROOT
BRANCH   5   9
HETATM    9  N4  UNL     1      19.464  21.210 106.451  1.00  0.00    -0.173 N 
HETATM   10  C6  UNL     1      20.554  22.065 106.095  1.00  0.00     0.494 C 
HETATM   11  N5  UNL     1      21.444  21.352 105.188  1.00  0.00    -0.032 N 
HETATM   12  N6  UNL     1      21.345  22.440 107.255  1.00  0.00    -0.032 N 
ATOM     13  H53 UNL     1      21.759  20.462 105.575  1.00  0.00     0.278 HD
ATOM     14  H52 UNL     1      20.954  20.988 104.372  1.00  0.00     0.278 HD
ATOM     15  H51 UNL     1      22.221  21.961 104.935  1.00  0.00     0.278 HD
ATOM     16  H63 UNL     1      20.764  22.861 107.979  1.00  0.00     0.278 HD
ATOM     17  H62 UNL     1      21.667  21.619 107.766  1.00  0.00     0.278 HD
ATOM     18  H61 UNL     1      22.122  23.049 107.001  1.00  0.00     0.278 HD
ATOM     19  H4  UNL     1      19.542  20.216 106.237  1.00  0.00     0.181 HD
ENDBRANCH   5   9
BRANCH   8  20
HETATM   20  N8  UNL     1      17.549  23.679 109.921  1.00  0.00    -0.363 N 
HETATM   21  C8  UNL     1      18.003  25.037 109.805  1.00  0.00     0.144 C 
HETATM   22  C9  UNL     1      19.371  25.016 110.541  1.00  0.00     0.145 C 
HETATM   23  N9  UNL     1      19.042  24.841 111.931  1.00  0.00    -0.349 N 
HETATM   24  C10 UNL     1      19.869  25.440 112.909  1.00  0.00     0.215 C 
HETATM   25  C12 UNL     1      17.895  24.076 112.317  1.00  0.00     0.145 C 
HETATM   26  C11 UNL     1      19.605  25.317 114.363  1.00  0.00     0.117 C 
HETATM   27  O2  UNL     1      20.900  26.127 112.589  1.00  0.00    -0.274 OA
HETATM   28  C13 UNL     1      17.314  23.190 111.257  1.00  0.00     0.144 C 
ENDBRANCH   8  20
BRANCH   1  29
HETATM   29  C2  UNL     1      14.855  22.900 108.880  1.00  0.00     0.136 C 
HETATM   30  N2  UNL     1      14.480  24.041 109.202  1.00  0.00    -0.252 N 
ATOM     31  H2  UNL     1      15.120  24.819 109.042  1.00  0.00     0.196 HD
BRANCH  29  32
HETATM   32  N1  UNL     1      13.940  21.806 109.113  1.00  0.00    -0.379 N 
HETATM   33  C1  UNL     1      13.256  21.317 107.940  1.00  0.00     0.147 C 
ATOM     34  H1  UNL     1      13.787  21.409 110.039  1.00  0.00     0.160 HD
ENDBRANCH  29  32
BRANCH  30  35
HETATM   35  O1  UNL     1      13.264  24.315 109.757  1.00  0.00    -0.288 OA
ATOM     36  H1  UNL     1      12.642  24.934 109.392  1.00  0.00     0.244 HD
ENDBRANCH  30  35
ENDBRANCH   1  29
TORSDOF 5
ENDMDL
MODEL 4
REMARK VINA RESULT: -4.215309711      2.655      4.836
REMARK  5 active torsions:
REMARK  status: ('A' for Active; 'I' for Inactive)
REMARK    1  A    between atoms: N1_2  and  C2_4 
REMARK    2  A    between atoms: C2_4  and  C3_9 
REMARK    3  A    between atoms: N2_5  and  O1_7 
REMARK    4  A    between atoms: C5_13  and  N4_14 
REMARK       I    between atoms: N4_14  and  C6_16 
REMARK       I    between atoms: C6_16  and  N5_17 
REMARK       I    between atoms: C6_16  and  N6_21 
REMARK    5  A    between atoms: C7_27  and  N8_28 
REMARK       I    between atoms: N9_31  and  C10_32 
ROOT
HETATM    1  C3  UNL     1      14.688  22.027 107.927  1.00  0.00     0.070 A 
HETATM    2  C4  UNL     1      13.675  21.210 107.388  1.00  0.00     0.125 A 
HETATM    3  N3  UNL     1      13.920  20.209 106.543  1.00  0.00    -0.201 N 
ATOM      4  H3  UNL     1      13.161  19.638 106.172  1.00  0.00     0.183 HD
HETATM    5  C5  UNL     1      15.198  19.974 106.194  1.00  0.00     0.682 A 
HETATM    6  N7  UNL     1      16.171  20.726 106.685  1.00  0.00    -0.176 N 
ATOM      7  H7  UNL     1      17.126  20.515 106.395  1.00  0.00     0.186 HD
HETATM    8  C7  UNL     1      15.984  21.769 107.557  1.00  0.00     0.134 A 
ENDROOT
BRANCH   5   9
HETATM    9  N4  UNL     1      15.464  19.010 105.378  1.00  0.00    -0.173 N 
HETATM   10  C6  UNL     1      14.521  18.478 104.442  1.00  0.00     0.494 C 
HETATM   11  N5  UNL     1      15.026  17.215 103.921  1.00  0.00    -0.032 N 
HETATM   12  N6  UNL     1      14.335  19.361 103.304  1.00  0.00    -0.032 N 
ATOM     13  H53 UNL     1      15.960  17.307 103.520  1.00  0.00     0.278 HD
ATOM     14  H52 UNL     1      15.252  16.553 104.662  1.00  0.00     0.278 HD
ATOM     15  H51 UNL     1      14.354  16.836 103.254  1.00  0.00     0.278 HD
ATOM     16  H63 UNL     1      14.073  20.300 103.602  1.00  0.00     0.278 HD
ATOM     17  H62 UNL     1      15.224  19.579 102.854  1.00  0.00     0.278 HD
ATOM     18  H61 UNL     1      13.663  18.982 102.638  1.00  0.00     0.278 HD
ATOM     19  H4  UNL     1      16.399  18.604 105.402  1.00  0.00     0.181 HD
ENDBRANCH   5   9
BRANCH   8  20
HETATM   20  N8  UNL     1      17.088  22.516 107.998  1.00  0.00    -0.363 N 
HETATM   21  C8  UNL     1      18.173  21.907 108.717  1.00  0.00     0.144 C 
HETATM   22  C9  UNL     1      18.114  22.606 110.102  1.00  0.00     0.145 C 
HETATM   23  N9  UNL     1      18.535  23.960 109.852  1.00  0.00    -0.349 N 
HETATM   24  C10 UNL     1      19.246  24.651 110.860  1.00  0.00     0.215 C 
HETATM   25  C12 UNL     1      18.241  24.596 108.604  1.00  0.00     0.145 C 
HETATM   26  C11 UNL     1      19.723  26.045 110.689  1.00  0.00     0.117 C 
HETATM   27  O2  UNL     1      19.521  24.106 111.985  1.00  0.00    -0.274 OA
HETATM   28  C13 UNL     1      17.185  23.937 107.768  1.00  0.00     0.144 C 
ENDBRANCH   8  20
BRANCH   1  29
HETATM   29  C2  UNL     1      14.279  23.057 108.872  1.00  0.00     0.136 C 
HETATM   30  N2  UNL     1      14.662  23.196 110.048  1.00  0.00    -0.252 N 
ATOM     31  H2  UNL     1      15.339  22.526 110.414  1.00  0.00     0.196 HD
BRANCH  29  32
HETATM   32  N1  UNL     1      13.320  24.013 108.366  1.00  0.00    -0.379 N 
HETATM   33  C1  UNL     1      12.033  23.995 109.017  1.00  0.00     0.147 C 
ATOM     34  H1  UNL     1      13.538  24.654 107.603  1.00  0.00     0.160 HD
ENDBRANCH  29  32
BRANCH  30  35
HETATM   35  O1  UNL     1      14.232  24.189 110.877  1.00  0.00    -0.288 OA
ATOM     36  H1  UNL     1      14.691  24.460 111.664  1.00  0.00     0.244 HD
ENDBRANCH  30  35
ENDBRANCH   1  29
TORSDOF 5
ENDMDL
MODEL 5
REMARK VINA RESULT: -4.197765022      2.434      5.024
REMARK  5 active torsions:
REMARK  status: ('A' for Active; 'I' for Inactive)
REMARK    1  A    between atoms: N1_2  and  C2_4 
REMARK    2  A    between atoms: C2_4  and  C3_9 
REMARK    3  A    between atoms: N2_5  and  O1_7 
REMARK    4  A    between atoms: C5_13  and  N4_14 
REMARK       I    between atoms: N4_14  and  C6_16 
REMARK       I    between atoms: C6_16  and  N5_17 
REMARK       I    between atoms: C6_16  and  N6_21 
REMARK    5  A    between atoms: C7_27  and  N8_28 
REMARK       I    between atoms: N9_31  and  C10_32 
ROOT
HETATM    1  C3  UNL     1      14.790  22.106 108.451  1.00  0.00     0.070 A 
HETATM    2  C4  UNL     1      14.399  21.144 107.500  1.00  0.00     0.125 A 
HETATM    3  N3  UNL     1      15.258  20.316 106.907  1.00  0.00    -0.201 N 
ATOM      4  H3  UNL     1      14.939  19.631 106.222  1.00  0.00     0.183 HD
HETATM    5  C5  UNL     1      16.559  20.410 107.238  1.00  0.00     0.682 A 
HETATM    6  N7  UNL     1      16.956  21.305 108.129  1.00  0.00    -0.176 N 
ATOM      7  H7  UNL     1      17.950  21.344 108.352  1.00  0.00     0.186 HD
HETATM    8  C7  UNL     1      16.122  22.185 108.774  1.00  0.00     0.134 A 
ENDROOT
BRANCH   5   9
HETATM    9  N4  UNL     1      17.413  19.619 106.679  1.00  0.00    -0.173 N 
HETATM   10  C6  UNL     1      17.112  18.279 106.280  1.00  0.00     0.494 C 
HETATM   11  N5  UNL     1      18.354  17.575 105.994  1.00  0.00    -0.032 N 
HETATM   12  N6  UNL     1      16.316  18.245 105.065  1.00  0.00    -0.032 N 
ATOM     13  H53 UNL     1      18.927  18.065 105.306  1.00  0.00     0.278 HD
ATOM     14  H52 UNL     1      19.008  17.609 106.776  1.00  0.00     0.278 HD
ATOM     15  H51 UNL     1      18.139  16.619 105.710  1.00  0.00     0.278 HD
ATOM     16  H63 UNL     1      15.469  18.803 105.160  1.00  0.00     0.278 HD
ATOM     17  H62 UNL     1      16.767  18.764 104.312  1.00  0.00     0.278 HD
ATOM     18  H61 UNL     1      16.102  17.289 104.781  1.00  0.00     0.278 HD
ATOM     19  H4  UNL     1      18.356  19.970 106.513  1.00  0.00     0.181 HD
ENDBRANCH   5   9
BRANCH   8  20
HETATM   20  N8  UNL     1      16.655  23.110 109.686  1.00  0.00    -0.363 N 
HETATM   21  C8  UNL     1      16.794  24.501 109.354  1.00  0.00     0.144 C 
HETATM   22  C9  UNL     1      18.330  24.723 109.403  1.00  0.00     0.145 C 
HETATM   23  N9  UNL     1      18.674  24.627 110.798  1.00  0.00    -0.349 N 
HETATM   24  C10 UNL     1      19.741  25.412 111.293  1.00  0.00     0.215 C 
HETATM   25  C12 UNL     1      17.947  23.754 111.669  1.00  0.00     0.145 C 
HETATM   26  C11 UNL     1      20.162  25.381 112.715  1.00  0.00     0.117 C 
HETATM   27  O2  UNL     1      20.407  26.198 110.535  1.00  0.00    -0.274 OA
HETATM   28  C13 UNL     1      17.106  22.711 110.996  1.00  0.00     0.144 C 
ENDBRANCH   8  20
BRANCH   1  29
HETATM   29  C2  UNL     1      13.738  22.916 109.050  1.00  0.00     0.136 C 
HETATM   30  N2  UNL     1      13.019  22.618 110.021  1.00  0.00    -0.252 N 
ATOM     31  H2  UNL     1      13.164  21.711 110.464  1.00  0.00     0.196 HD
BRANCH  29  32
HETATM   32  N1  UNL     1      13.522  24.204 108.430  1.00  0.00    -0.379 N 
HETATM   33  C1  UNL     1      14.359  24.484 107.289  1.00  0.00     0.147 C 
ATOM     34  H1  UNL     1      12.829  24.867 108.775  1.00  0.00     0.160 HD
ENDBRANCH  29  32
BRANCH  30  35
HETATM   35  O1  UNL     1      12.048  23.432 110.527  1.00  0.00    -0.288 OA
ATOM     36  H1  UNL     1      11.385  23.145 111.145  1.00  0.00     0.244 HD
ENDBRANCH  30  35
ENDBRANCH   1  29
TORSDOF 5
ENDMDL
