MODEL 1
REMARK VINA RESULT: -4.949734226      0.000      0.000
REMARK  7 active torsions:
REMARK  status: ('A' for Active; 'I' for Inactive)
REMARK    1  A    between atoms: C4_7  and  C5_8 
REMARK       I    between atoms: C5_8  and  N3_10 
REMARK    2  A    between atoms: N3_10  and  C6_12 
REMARK    3  A    between atoms: C6_12  and  C7_13 
REMARK    4  A    between atoms: C6_12  and  C8_23 
REMARK       I    between atoms: C7_13  and  N4_15 
REMARK    5  A    between atoms: N4_15  and  S1_17 
REMARK    6  A    between atoms: S1_17  and  N5_18 
REMARK    7  A    between atoms: C8_23  and  N6_26 
ROOT
HETATM    1  C6  UNL     1      16.848  22.449 108.586  1.00  0.00     0.212 C 
ENDROOT
BRANCH   1   2
HETATM    2  N3  UNL     1      17.106  23.570 109.553  1.00  0.00    -0.340 N 
HETATM    3  C5  UNL     1      18.216  23.471 110.402  1.00  0.00     0.272 C 
HETATM    4  O1  UNL     1      18.835  22.342 110.350  1.00  0.00    -0.266 OA
ATOM      5  H3  UNL     1      16.489  24.382 109.591  1.00  0.00     0.163 HD
BRANCH   3   6
HETATM    6  C4  UNL     1      18.743  24.454 111.296  1.00  0.00     0.144 A 
HETATM    7  N2  UNL     1      19.482  25.575 111.049  1.00  0.00    -0.290 N 
HETATM    8  N1  UNL     1      19.917  26.099 112.185  1.00  0.00    -0.301 N 
HETATM    9  C3  UNL     1      19.816  26.046 109.727  1.00  0.00     0.178 C 
HETATM   10  C2  UNL     1      19.517  25.397 113.227  1.00  0.00     0.049 A 
ATOM     11  H1  UNL     1      20.490  26.940 112.246  1.00  0.00     0.187 HD
HETATM   12  C1  UNL     1      19.747  25.623 114.693  1.00  0.00     0.072 C 
HETATM   13  C11 UNL     1      18.768  24.342 112.697  1.00  0.00     0.103 A 
HETATM   14  N7  UNL     1      18.081  23.355 113.478  1.00  0.00    -0.098 NA
ENDBRANCH   3   6
ENDBRANCH   1   2
BRANCH   1  15
HETATM   15  C7  UNL     1      17.867  22.711 107.497  1.00  0.00     0.257 C 
HETATM   16  O2  UNL     1      17.794  23.640 106.742  1.00  0.00    -0.270 OA
HETATM   17  N4  UNL     1      18.989  21.803 107.395  1.00  0.00    -0.236 N 
ATOM     18  H4  UNL     1      19.010  21.004 108.030  1.00  0.00     0.183 HD
BRANCH  17  19
HETATM   19  S1  UNL     1      20.268  21.968 106.300  1.00  0.00     0.319 S 
HETATM   20  O3  UNL     1      19.918  23.032 105.285  1.00  0.00    -0.183 OA
HETATM   21  O4  UNL     1      20.522  20.624 105.615  1.00  0.00    -0.183 OA
BRANCH  19  22
HETATM   22  N5  UNL     1      21.713  22.382 107.117  1.00  0.00    -0.311 N 
ATOM     23  H52 UNL     1      21.784  23.137 107.799  1.00  0.00     0.170 HD
ATOM     24  H51 UNL     1      22.478  21.774 106.826  1.00  0.00     0.170 HD
ENDBRANCH  19  22
ENDBRANCH  17  19
ENDBRANCH   1  15
BRANCH   1  25
HETATM   25  C8  UNL     1      15.517  22.332 108.019  1.00  0.00     0.145 C 
HETATM   26  C9  UNL     1      14.683  23.568 107.875  1.00  0.00     0.048 C 
HETATM   27  C10 UNL     1      14.621  21.348 108.766  1.00  0.00     0.048 C 
BRANCH  25  28
HETATM   28  N6  UNL     1      15.679  21.722 106.697  1.00  0.00    -0.069 N 
ATOM     29  H63 UNL     1      16.200  22.307 106.045  1.00  0.00     0.275 HD
ATOM     30  H62 UNL     1      16.318  20.928 106.696  1.00  0.00     0.275 HD
ATOM     31  H61 UNL     1      14.742  21.487 106.369  1.00  0.00     0.275 HD
ENDBRANCH  25  28
ENDBRANCH   1  25
TORSDOF 7
ENDMDL
MODEL 2
REMARK VINA RESULT: -4.862050283      2.870      4.119
REMARK  7 active torsions:
REMARK  status: ('A' for Active; 'I' for Inactive)
REMARK    1  A    between atoms: C4_7  and  C5_8 
REMARK       I    between atoms: C5_8  and  N3_10 
REMARK    2  A    between atoms: N3_10  and  C6_12 
REMARK    3  A    between atoms: C6_12  and  C7_13 
REMARK    4  A    between atoms: C6_12  and  C8_23 
REMARK       I    between atoms: C7_13  and  N4_15 
REMARK    5  A    between atoms: N4_15  and  S1_17 
REMARK    6  A    between atoms: S1_17  and  N5_18 
REMARK    7  A    between atoms: C8_23  and  N6_26 
ROOT
HETATM    1  C6  UNL     1      17.528  23.389 108.646  1.00  0.00     0.212 C 
ENDROOT
BRANCH   1   2
HETATM    2  N3  UNL     1      18.299  23.686 109.902  1.00  0.00    -0.340 N 
HETATM    3  C5  UNL     1      18.667  25.013 110.156  1.00  0.00     0.272 C 
HETATM    4  O1  UNL     1      18.413  25.836 109.198  1.00  0.00    -0.266 OA
ATOM      5  H3  UNL     1      18.548  22.940 110.552  1.00  0.00     0.163 HD
BRANCH   3   6
HETATM    6  C4  UNL     1      19.273  25.560 111.330  1.00  0.00     0.144 A 
HETATM    7  N2  UNL     1      20.263  26.489 111.468  1.00  0.00    -0.290 N 
HETATM    8  N1  UNL     1      20.648  26.566 112.732  1.00  0.00    -0.301 N 
HETATM    9  C3  UNL     1      20.863  27.198 110.363  1.00  0.00     0.178 C 
HETATM   10  C2  UNL     1      19.971  25.734 113.497  1.00  0.00     0.049 A 
ATOM     11  H1  UNL     1      21.378  27.193 113.072  1.00  0.00     0.187 HD
HETATM   12  C1  UNL     1      20.050  25.496 114.978  1.00  0.00     0.072 C 
HETATM   13  C11 UNL     1      19.088  25.076 112.636  1.00  0.00     0.103 A 
HETATM   14  N7  UNL     1      18.105  24.117 113.051  1.00  0.00    -0.098 NA
ENDBRANCH   3   6
ENDBRANCH   1   2
BRANCH   1  15
HETATM   15  C7  UNL     1      16.182  22.948 109.181  1.00  0.00     0.257 C 
HETATM   16  O2  UNL     1      15.981  22.721 110.342  1.00  0.00    -0.270 OA
HETATM   17  N4  UNL     1      15.091  22.827 108.238  1.00  0.00    -0.236 N 
ATOM     18  H4  UNL     1      15.297  22.997 107.253  1.00  0.00     0.183 HD
BRANCH  17  19
HETATM   19  S1  UNL     1      13.500  22.425 108.649  1.00  0.00     0.319 S 
HETATM   20  O3  UNL     1      13.514  21.230 109.574  1.00  0.00    -0.183 OA
HETATM   21  O4  UNL     1      12.713  22.117 107.373  1.00  0.00    -0.183 OA
BRANCH  19  22
HETATM   22  N5  UNL     1      12.717  23.747 109.401  1.00  0.00    -0.311 N 
ATOM     23  H52 UNL     1      13.171  24.639 109.598  1.00  0.00     0.170 HD
ATOM     24  H51 UNL     1      11.748  23.515 109.619  1.00  0.00     0.170 HD
ENDBRANCH  19  22
ENDBRANCH  17  19
ENDBRANCH   1  15
BRANCH   1  25
HETATM   25  C8  UNL     1      18.064  22.393 107.736  1.00  0.00     0.145 C 
HETATM   26  C9  UNL     1      17.508  21.003 107.780  1.00  0.00     0.048 C 
HETATM   27  C10 UNL     1      19.574  22.207 107.858  1.00  0.00     0.048 C 
BRANCH  25  28
HETATM   28  N6  UNL     1      17.886  22.924 106.384  1.00  0.00    -0.069 N 
ATOM     29  H63 UNL     1      16.910  22.960 106.090  1.00  0.00     0.275 HD
ATOM     30  H62 UNL     1      18.076  23.924 106.315  1.00  0.00     0.275 HD
ATOM     31  H61 UNL     1      18.472  22.359 105.770  1.00  0.00     0.275 HD
ENDBRANCH  25  28
ENDBRANCH   1  25
TORSDOF 7
ENDMDL
MODEL 3
REMARK VINA RESULT: -4.589707499      2.698      3.966
REMARK  7 active torsions:
REMARK  status: ('A' for Active; 'I' for Inactive)
REMARK    1  A    between atoms: C4_7  and  C5_8 
REMARK       I    between atoms: C5_8  and  N3_10 
REMARK    2  A    between atoms: N3_10  and  C6_12 
REMARK    3  A    between atoms: C6_12  and  C7_13 
REMARK    4  A    between atoms: C6_12  and  C8_23 
REMARK       I    between atoms: C7_13  and  N4_15 
REMARK    5  A    between atoms: N4_15  and  S1_17 
REMARK    6  A    between atoms: S1_17  and  N5_18 
REMARK    7  A    between atoms: C8_23  and  N6_26 
ROOT
HETATM    1  C6  UNL     1      17.413  23.520 108.113  1.00  0.00     0.212 C 
ENDROOT
BRANCH   1   2
HETATM    2  N3  UNL     1      17.587  24.067 109.502  1.00  0.00    -0.340 N 
HETATM    3  C5  UNL     1      18.844  24.562 109.867  1.00  0.00     0.272 C 
HETATM    4  O1  UNL     1      19.773  24.370 108.995  1.00  0.00    -0.266 OA
ATOM      5  H3  UNL     1      16.808  24.076 110.162  1.00  0.00     0.163 HD
BRANCH   3   6
HETATM    6  C4  UNL     1      19.218  25.249 111.064  1.00  0.00     0.144 A 
HETATM    7  N2  UNL     1      20.024  26.335 111.250  1.00  0.00    -0.290 N 
HETATM    8  N1  UNL     1      20.247  26.526 112.541  1.00  0.00    -0.301 N 
HETATM    9  C3  UNL     1      20.623  27.088 110.175  1.00  0.00     0.178 C 
HETATM   10  C2  UNL     1      19.631  25.624 113.279  1.00  0.00     0.049 A 
ATOM     11  H1  UNL     1      20.823  27.279 112.918  1.00  0.00     0.187 HD
HETATM   12  C1  UNL     1      19.579  25.464 114.770  1.00  0.00     0.072 C 
HETATM   13  C11 UNL     1      18.967  24.794 112.370  1.00  0.00     0.103 A 
HETATM   14  N7  UNL     1      18.111  23.703 112.735  1.00  0.00    -0.098 NA
ENDBRANCH   3   6
ENDBRANCH   1   2
BRANCH   1  15
HETATM   15  C7  UNL     1      15.907  23.462 107.967  1.00  0.00     0.257 C 
HETATM   16  O2  UNL     1      15.300  24.127 107.173  1.00  0.00    -0.270 OA
HETATM   17  N4  UNL     1      15.184  22.536 108.812  1.00  0.00    -0.236 N 
ATOM     18  H4  UNL     1      15.721  22.006 109.499  1.00  0.00     0.183 HD
BRANCH  17  19
HETATM   19  S1  UNL     1      13.515  22.270 108.746  1.00  0.00     0.319 S 
HETATM   20  O3  UNL     1      13.139  21.224 109.770  1.00  0.00    -0.183 OA
HETATM   21  O4  UNL     1      13.133  21.814 107.336  1.00  0.00    -0.183 OA
BRANCH  19  22
HETATM   22  N5  UNL     1      12.659  23.722 109.041  1.00  0.00    -0.311 N 
ATOM     23  H52 UNL     1      13.089  24.646 109.035  1.00  0.00     0.170 HD
ATOM     24  H51 UNL     1      11.674  23.528 109.221  1.00  0.00     0.170 HD
ENDBRANCH  19  22
ENDBRANCH  17  19
ENDBRANCH   1  15
BRANCH   1  25
HETATM   25  C8  UNL     1      18.002  22.228 107.810  1.00  0.00     0.145 C 
HETATM   26  C9  UNL     1      19.031  22.141 106.726  1.00  0.00     0.048 C 
HETATM   27  C10 UNL     1      16.974  21.159 107.452  1.00  0.00     0.048 C 
BRANCH  25  28
HETATM   28  N6  UNL     1      18.595  21.738 109.056  1.00  0.00    -0.069 N 
ATOM     29  H63 UNL     1      18.609  22.437 109.798  1.00  0.00     0.275 HD
ATOM     30  H62 UNL     1      18.013  21.053 109.538  1.00  0.00     0.275 HD
ATOM     31  H61 UNL     1      19.521  21.384 108.817  1.00  0.00     0.275 HD
ENDBRANCH  25  28
ENDBRANCH   1  25
TORSDOF 7
ENDMDL
MODEL 4
REMARK VINA RESULT: -4.412688692      2.988      6.412
REMARK  7 active torsions:
REMARK  status: ('A' for Active; 'I' for Inactive)
REMARK    1  A    between atoms: C4_7  and  C5_8 
REMARK       I    between atoms: C5_8  and  N3_10 
REMARK    2  A    between atoms: N3_10  and  C6_12 
REMARK    3  A    between atoms: C6_12  and  C7_13 
REMARK    4  A    between atoms: C6_12  and  C8_23 
REMARK       I    between atoms: C7_13  and  N4_15 
REMARK    5  A    between atoms: N4_15  and  S1_17 
REMARK    6  A    between atoms: S1_17  and  N5_18 
REMARK    7  A    between atoms: C8_23  and  N6_26 
ROOT
HETATM    1  C6  UNL     1      17.968  24.372 110.998  1.00  0.00     0.212 C 
ENDROOT
BRANCH   1   2
HETATM    2  N3  UNL     1      17.518  23.471 109.882  1.00  0.00    -0.340 N 
HETATM    3  C5  UNL     1      16.145  23.246 109.724  1.00  0.00     0.272 C 
HETATM    4  O1  UNL     1      15.407  23.742 110.656  1.00  0.00    -0.266 OA
ATOM      5  H3  UNL     1      18.196  23.035 109.256  1.00  0.00     0.163 HD
BRANCH   3   6
HETATM    6  C4  UNL     1      15.472  22.552 108.671  1.00  0.00     0.144 A 
HETATM    7  N2  UNL     1      14.175  22.616 108.251  1.00  0.00    -0.290 N 
HETATM    8  N1  UNL     1      13.931  21.665 107.363  1.00  0.00    -0.301 N 
HETATM    9  C3  UNL     1      13.198  23.532 108.790  1.00  0.00     0.178 C 
HETATM   10  C2  UNL     1      15.001  20.930 107.133  1.00  0.00     0.049 A 
ATOM     11  H1  UNL     1      13.027  21.519 106.913  1.00  0.00     0.187 HD
HETATM   12  C1  UNL     1      15.197  19.771 106.200  1.00  0.00     0.072 C 
HETATM   13  C11 UNL     1      16.000  21.467 107.951  1.00  0.00     0.103 A 
HETATM   14  N7  UNL     1      17.361  21.015 107.979  1.00  0.00    -0.098 NA
ENDBRANCH   3   6
ENDBRANCH   1   2
BRANCH   1  15
HETATM   15  C7  UNL     1      19.080  25.170 110.351  1.00  0.00     0.257 C 
HETATM   16  O2  UNL     1      19.782  24.731 109.483  1.00  0.00    -0.270 OA
HETATM   17  N4  UNL     1      19.271  26.535 110.792  1.00  0.00    -0.236 N 
ATOM     18  H4  UNL     1      18.680  26.874 111.552  1.00  0.00     0.183 HD
BRANCH  17  19
HETATM   19  S1  UNL     1      20.404  27.611 110.141  1.00  0.00     0.319 S 
HETATM   20  O3  UNL     1      21.703  27.483 110.902  1.00  0.00    -0.183 OA
HETATM   21  O4  UNL     1      19.856  29.036 110.233  1.00  0.00    -0.183 OA
BRANCH  19  22
HETATM   22  N5  UNL     1      20.657  27.289 108.480  1.00  0.00    -0.311 N 
ATOM     23  H52 UNL     1      20.380  26.421 108.021  1.00  0.00     0.170 HD
ATOM     24  H51 UNL     1      21.117  28.078 108.026  1.00  0.00     0.170 HD
ENDBRANCH  19  22
ENDBRANCH  17  19
ENDBRANCH   1  15
BRANCH   1  25
HETATM   25  C8  UNL     1      18.435  23.755 112.227  1.00  0.00     0.145 C 
HETATM   26  C9  UNL     1      17.627  22.646 112.828  1.00  0.00     0.048 C 
HETATM   27  C10 UNL     1      18.637  24.747 113.368  1.00  0.00     0.048 C 
BRANCH  25  28
HETATM   28  N6  UNL     1      19.784  23.255 111.955  1.00  0.00    -0.069 N 
ATOM     29  H63 UNL     1      19.864  22.778 111.058  1.00  0.00     0.275 HD
ATOM     30  H62 UNL     1      20.458  23.997 111.767  1.00  0.00     0.275 HD
ATOM     31  H61 UNL     1      20.041  22.669 112.749  1.00  0.00     0.275 HD
ENDBRANCH  25  28
ENDBRANCH   1  25
TORSDOF 7
ENDMDL
MODEL 5
REMARK VINA RESULT: -4.408618242      2.695      4.200
REMARK  7 active torsions:
REMARK  status: ('A' for Active; 'I' for Inactive)
REMARK    1  A    between atoms: C4_7  and  C5_8 
REMARK       I    between atoms: C5_8  and  N3_10 
REMARK    2  A    between atoms: N3_10  and  C6_12 
REMARK    3  A    between atoms: C6_12  and  C7_13 
REMARK    4  A    between atoms: C6_12  and  C8_23 
REMARK       I    between atoms: C7_13  and  N4_15 
REMARK    5  A    between atoms: N4_15  and  S1_17 
REMARK    6  A    between atoms: S1_17  and  N5_18 
REMARK    7  A    between atoms: C8_23  and  N6_26 
ROOT
HETATM    1  C6  UNL     1      17.925  23.504 108.451  1.00  0.00     0.212 C 
ENDROOT
BRANCH   1   2
HETATM    2  N3  UNL     1      17.981  23.395 109.949  1.00  0.00    -0.340 N 
HETATM    3  C5  UNL     1      18.787  24.299 110.651  1.00  0.00     0.272 C 
HETATM    4  O1  UNL     1      19.515  25.061 109.908  1.00  0.00    -0.266 OA
ATOM      5  H3  UNL     1      17.444  22.680 110.442  1.00  0.00     0.163 HD
BRANCH   3   6
HETATM    6  C4  UNL     1      18.897  24.483 112.064  1.00  0.00     0.144 A 
HETATM    7  N2  UNL     1      18.155  23.968 113.087  1.00  0.00    -0.290 N 
HETATM    8  N1  UNL     1      18.484  24.548 114.231  1.00  0.00    -0.301 N 
HETATM    9  C3  UNL     1      17.095  23.005 112.909  1.00  0.00     0.178 C 
HETATM   10  C2  UNL     1      19.429  25.451 114.063  1.00  0.00     0.049 A 
ATOM     11  H1  UNL     1      18.058  24.324 115.131  1.00  0.00     0.187 HD
HETATM   12  C1  UNL     1      20.120  26.328 115.066  1.00  0.00     0.072 C 
HETATM   13  C11 UNL     1      19.715  25.436 112.694  1.00  0.00     0.103 A 
HETATM   14  N7  UNL     1      20.736  26.222 112.065  1.00  0.00    -0.098 NA
ENDBRANCH   3   6
ENDBRANCH   1   2
BRANCH   1  15
HETATM   15  C7  UNL     1      16.436  23.537 108.177  1.00  0.00     0.257 C 
HETATM   16  O2  UNL     1      15.925  24.326 107.431  1.00  0.00    -0.270 OA
HETATM   17  N4  UNL     1      15.611  22.544 108.831  1.00  0.00    -0.236 N 
ATOM     18  H4  UNL     1      16.068  21.905 109.483  1.00  0.00     0.183 HD
BRANCH  17  19
HETATM   19  S1  UNL     1      13.945  22.367 108.596  1.00  0.00     0.319 S 
HETATM   20  O3  UNL     1      13.419  21.314 109.544  1.00  0.00    -0.183 OA
HETATM   21  O4  UNL     1      13.682  21.971 107.141  1.00  0.00    -0.183 OA
BRANCH  19  22
HETATM   22  N5  UNL     1      13.137  23.852 108.853  1.00  0.00    -0.311 N 
ATOM     23  H52 UNL     1      13.435  24.551 109.534  1.00  0.00     0.170 HD
ATOM     24  H51 UNL     1      12.328  23.933 108.237  1.00  0.00     0.170 HD
ENDBRANCH  19  22
ENDBRANCH  17  19
ENDBRANCH   1  15
BRANCH   1  25
HETATM   25  C8  UNL     1      18.563  22.462 107.667  1.00  0.00     0.145 C 
HETATM   26  C9  UNL     1      18.101  21.047 107.836  1.00  0.00     0.048 C 
HETATM   27  C10 UNL     1      20.076  22.398 107.856  1.00  0.00     0.048 C 
BRANCH  25  28
HETATM   28  N6  UNL     1      18.403  22.840 106.262  1.00  0.00    -0.069 N 
ATOM     29  H63 UNL     1      19.269  23.157 105.828  1.00  0.00     0.275 HD
ATOM     30  H62 UNL     1      18.236  22.044 105.647  1.00  0.00     0.275 HD
ATOM     31  H61 UNL     1      17.658  23.536 106.232  1.00  0.00     0.275 HD
ENDBRANCH  25  28
ENDBRANCH   1  25
TORSDOF 7
ENDMDL
