MODEL 1
REMARK VINA RESULT: -7.719324739      0.000      0.000
REMARK  8 active torsions:
REMARK  status: ('A' for Active; 'I' for Inactive)
REMARK       I    between atoms: C2_2  and  N1_4 
REMARK    1  A    between atoms: N1_4  and  N2_6 
REMARK       I    between atoms: N2_6  and  C3_8 
REMARK    2  A    between atoms: C3_8  and  C4_10 
REMARK    3  A    between atoms: C4_10  and  N3_12 
REMARK    4  A    between atoms: N3_12  and  S1_14 
REMARK    5  A    between atoms: S1_14  and  N4_17 
REMARK    6  A    between atoms: N4_17  and  S2_19 
REMARK    7  A    between atoms: C7_22  and  O6_23 
REMARK    8  A    between atoms: O6_23  and  N5_24 
ROOT
HETATM    1  S1  UNL     1      14.297  21.926 107.918  1.00  0.00     0.327 S 
HETATM    2  O3  UNL     1      13.377  20.891 108.555  1.00  0.00    -0.182 OA
HETATM    3  O4  UNL     1      13.489  23.140 107.707  1.00  0.00    -0.182 OA
ENDROOT
BRANCH   1   4
HETATM    4  N3  UNL     1      14.931  21.205 106.505  1.00  0.00    -0.289 N 
ATOM      5  H3  UNL     1      15.272  21.766 105.723  1.00  0.00     0.174 HD
BRANCH   4   6
HETATM    6  C4  UNL     1      14.960  19.792 106.475  1.00  0.00     0.184 C 
HETATM    7  C5  UNL     1      16.276  19.199 106.947  1.00  0.00     0.043 C 
BRANCH   6   8
HETATM    8  C3  UNL     1      14.779  19.321 105.086  1.00  0.00     0.259 C 
HETATM    9  N2  UNL     1      15.176  18.010 104.676  1.00  0.00    -0.266 N 
ATOM     10  H2  UNL     1      15.593  17.380 105.361  1.00  0.00     0.190 HD
HETATM   11  O2  UNL     1      14.260  20.079 104.208  1.00  0.00    -0.269 OA
BRANCH   9  12
HETATM   12  N1  UNL     1      15.008  17.576 103.378  1.00  0.00    -0.268 N 
HETATM   13  C2  UNL     1      14.733  16.211 103.099  1.00  0.00     0.232 C 
HETATM   14  C1  UNL     1      14.539  15.650 101.740  1.00  0.00     0.119 C 
HETATM   15  O1  UNL     1      14.650  15.424 104.086  1.00  0.00    -0.272 OA
ATOM     16  H1  UNL     1      15.082  18.242 102.609  1.00  0.00     0.190 HD
ENDBRANCH   9  12
ENDBRANCH   6   8
ENDBRANCH   4   6
ENDBRANCH   1   4
BRANCH   1  17
HETATM   17  N4  UNL     1      15.521  22.242 109.102  1.00  0.00    -0.206 N 
ATOM     18  H4  UNL     1      15.354  22.064 110.092  1.00  0.00     0.192 HD
BRANCH  17  19
HETATM   19  S2  UNL     1      16.863  22.797 108.614  1.00  0.00     0.162 S 
HETATM   20  O5  UNL     1      16.792  23.688 107.415  1.00  0.00    -0.221 OA
HETATM   21  C6  UNL     1      17.961  23.426 109.869  1.00  0.00     0.211 C 
HETATM   22  C7  UNL     1      18.961  22.508 109.181  1.00  0.00     0.320 C 
HETATM   23  O7  UNL     1      18.063  21.622 108.529  1.00  0.00    -0.254 OA
BRANCH  22  24
HETATM   24  O6  UNL     1      19.698  23.148 108.187  1.00  0.00    -0.253 OA
BRANCH  24  25
HETATM   25  N5  UNL     1      20.763  22.403 107.879  1.00  0.00    -0.308 N 
ATOM     26  H52 UNL     1      20.909  21.949 106.976  1.00  0.00     0.184 HD
ATOM     27  H51 UNL     1      21.392  22.365 108.681  1.00  0.00     0.184 HD
ENDBRANCH  24  25
ENDBRANCH  22  24
ENDBRANCH  17  19
ENDBRANCH   1  17
TORSDOF 8
ENDMDL
MODEL 2
REMARK VINA RESULT: -7.289997797      2.814      7.552
REMARK  8 active torsions:
REMARK  status: ('A' for Active; 'I' for Inactive)
REMARK       I    between atoms: C2_2  and  N1_4 
REMARK    1  A    between atoms: N1_4  and  N2_6 
REMARK       I    between atoms: N2_6  and  C3_8 
REMARK    2  A    between atoms: C3_8  and  C4_10 
REMARK    3  A    between atoms: C4_10  and  N3_12 
REMARK    4  A    between atoms: N3_12  and  S1_14 
REMARK    5  A    between atoms: S1_14  and  N4_17 
REMARK    6  A    between atoms: N4_17  and  S2_19 
REMARK    7  A    between atoms: C7_22  and  O6_23 
REMARK    8  A    between atoms: O6_23  and  N5_24 
ROOT
HETATM    1  S1  UNL     1      15.160  23.241 109.168  1.00  0.00     0.327 S 
HETATM    2  O3  UNL     1      15.063  24.357 108.134  1.00  0.00    -0.182 OA
HETATM    3  O4  UNL     1      15.079  23.880 110.493  1.00  0.00    -0.182 OA
ENDROOT
BRANCH   1   4
HETATM    4  N3  UNL     1      16.613  22.402 108.840  1.00  0.00    -0.289 N 
ATOM      5  H3  UNL     1      16.695  21.395 108.985  1.00  0.00     0.174 HD
BRANCH   4   6
HETATM    6  C4  UNL     1      17.693  23.175 108.358  1.00  0.00     0.184 C 
HETATM    7  C5  UNL     1      18.812  22.348 107.751  1.00  0.00     0.043 C 
BRANCH   6   8
HETATM    8  C3  UNL     1      18.304  23.925 109.475  1.00  0.00     0.259 C 
HETATM    9  N2  UNL     1      18.864  23.261 110.611  1.00  0.00    -0.266 N 
ATOM     10  H2  UNL     1      18.845  22.242 110.652  1.00  0.00     0.190 HD
HETATM   11  O2  UNL     1      18.348  25.194 109.456  1.00  0.00    -0.269 OA
BRANCH   9  12
HETATM   12  N1  UNL     1      19.431  23.964 111.654  1.00  0.00    -0.268 N 
HETATM   13  C2  UNL     1      18.685  24.248 112.827  1.00  0.00     0.232 C 
HETATM   14  C1  UNL     1      19.205  24.997 113.997  1.00  0.00     0.119 C 
HETATM   15  O1  UNL     1      17.492  23.830 112.871  1.00  0.00    -0.272 OA
ATOM     16  H1  UNL     1      20.397  24.284 111.581  1.00  0.00     0.190 HD
ENDBRANCH   9  12
ENDBRANCH   6   8
ENDBRANCH   4   6
ENDBRANCH   1   4
BRANCH   1  17
HETATM   17  N4  UNL     1      13.759  22.255 108.911  1.00  0.00    -0.206 N 
ATOM     18  H4  UNL     1      12.948  22.323 109.526  1.00  0.00     0.192 HD
BRANCH  17  19
HETATM   19  S2  UNL     1      13.777  21.278 107.732  1.00  0.00     0.162 S 
HETATM   20  O5  UNL     1      12.446  20.718 107.341  1.00  0.00    -0.221 OA
HETATM   21  C6  UNL     1      14.757  21.759 106.323  1.00  0.00     0.211 C 
HETATM   22  C7  UNL     1      15.341  20.364 106.496  1.00  0.00     0.320 C 
HETATM   23  O7  UNL     1      14.999  20.129 107.854  1.00  0.00    -0.254 OA
BRANCH  22  24
HETATM   24  O6  UNL     1      14.687  19.397 105.736  1.00  0.00    -0.253 OA
BRANCH  24  25
HETATM   25  N5  UNL     1      15.577  18.506 105.294  1.00  0.00    -0.308 N 
ATOM     26  H52 UNL     1      16.174  17.938 105.896  1.00  0.00     0.184 HD
ATOM     27  H51 UNL     1      15.560  18.490 104.275  1.00  0.00     0.184 HD
ENDBRANCH  24  25
ENDBRANCH  22  24
ENDBRANCH  17  19
ENDBRANCH   1  17
TORSDOF 8
ENDMDL
MODEL 3
REMARK VINA RESULT: -7.083419169      2.547      6.314
REMARK  8 active torsions:
REMARK  status: ('A' for Active; 'I' for Inactive)
REMARK       I    between atoms: C2_2  and  N1_4 
REMARK    1  A    between atoms: N1_4  and  N2_6 
REMARK       I    between atoms: N2_6  and  C3_8 
REMARK    2  A    between atoms: C3_8  and  C4_10 
REMARK    3  A    between atoms: C4_10  and  N3_12 
REMARK    4  A    between atoms: N3_12  and  S1_14 
REMARK    5  A    between atoms: S1_14  and  N4_17 
REMARK    6  A    between atoms: N4_17  and  S2_19 
REMARK    7  A    between atoms: C7_22  and  O6_23 
REMARK    8  A    between atoms: O6_23  and  N5_24 
ROOT
HETATM    1  S1  UNL     1      14.628  23.530 108.975  1.00  0.00     0.327 S 
HETATM    2  O3  UNL     1      14.134  23.939 107.592  1.00  0.00    -0.182 OA
HETATM    3  O4  UNL     1      13.789  24.242 109.954  1.00  0.00    -0.182 OA
ENDROOT
BRANCH   1   4
HETATM    4  N3  UNL     1      16.296  23.901 109.023  1.00  0.00    -0.289 N 
ATOM      5  H3  UNL     1      16.671  24.744 108.586  1.00  0.00     0.174 HD
BRANCH   4   6
HETATM    6  C4  UNL     1      17.128  22.979 109.698  1.00  0.00     0.184 C 
HETATM    7  C5  UNL     1      17.090  23.117 111.210  1.00  0.00     0.043 C 
BRANCH   6   8
HETATM    8  C3  UNL     1      18.536  23.203 109.307  1.00  0.00     0.259 C 
HETATM    9  N2  UNL     1      19.272  22.237 108.552  1.00  0.00    -0.266 N 
ATOM     10  H2  UNL     1      18.813  21.370 108.272  1.00  0.00     0.190 HD
HETATM   11  O2  UNL     1      19.137  24.273 109.636  1.00  0.00    -0.269 OA
BRANCH   9  12
HETATM   12  N1  UNL     1      20.587  22.449 108.192  1.00  0.00    -0.268 N 
HETATM   13  C2  UNL     1      21.036  22.150 106.880  1.00  0.00     0.232 C 
HETATM   14  C1  UNL     1      22.427  22.341 106.401  1.00  0.00     0.119 C 
HETATM   15  O1  UNL     1      20.185  21.687 106.066  1.00  0.00    -0.272 OA
ATOM     16  H1  UNL     1      21.243  22.824 108.877  1.00  0.00     0.190 HD
ENDBRANCH   9  12
ENDBRANCH   6   8
ENDBRANCH   4   6
ENDBRANCH   1   4
BRANCH   1  17
HETATM   17  N4  UNL     1      14.330  21.827 109.084  1.00  0.00    -0.206 N 
ATOM     18  H4  UNL     1      14.296  21.355 109.988  1.00  0.00     0.192 HD
BRANCH  17  19
HETATM   19  S2  UNL     1      14.118  21.052 107.780  1.00  0.00     0.162 S 
HETATM   20  O5  UNL     1      12.696  20.721 107.453  1.00  0.00    -0.221 OA
HETATM   21  C6  UNL     1      15.029  21.629 106.361  1.00  0.00     0.211 C 
HETATM   22  C7  UNL     1      15.436  20.166 106.268  1.00  0.00     0.320 C 
HETATM   23  O7  UNL     1      15.183  19.762 107.607  1.00  0.00    -0.254 OA
BRANCH  22  24
HETATM   24  O6  UNL     1      14.597  19.414 105.449  1.00  0.00    -0.253 OA
BRANCH  24  25
HETATM   25  N5  UNL     1      15.277  18.375 104.956  1.00  0.00    -0.308 N 
ATOM     26  H52 UNL     1      16.142  18.009 105.353  1.00  0.00     0.184 HD
ATOM     27  H51 UNL     1      14.793  18.017 104.132  1.00  0.00     0.184 HD
ENDBRANCH  24  25
ENDBRANCH  22  24
ENDBRANCH  17  19
ENDBRANCH   1  17
TORSDOF 8
ENDMDL
MODEL 4
REMARK VINA RESULT: -7.008656212      2.559      5.879
REMARK  8 active torsions:
REMARK  status: ('A' for Active; 'I' for Inactive)
REMARK       I    between atoms: C2_2  and  N1_4 
REMARK    1  A    between atoms: N1_4  and  N2_6 
REMARK       I    between atoms: N2_6  and  C3_8 
REMARK    2  A    between atoms: C3_8  and  C4_10 
REMARK    3  A    between atoms: C4_10  and  N3_12 
REMARK    4  A    between atoms: N3_12  and  S1_14 
REMARK    5  A    between atoms: S1_14  and  N4_17 
REMARK    6  A    between atoms: N4_17  and  S2_19 
REMARK    7  A    between atoms: C7_22  and  O6_23 
REMARK    8  A    between atoms: O6_23  and  N5_24 
ROOT
HETATM    1  S1  UNL     1      14.184  23.521 109.091  1.00  0.00     0.327 S 
HETATM    2  O3  UNL     1      13.775  23.939 107.684  1.00  0.00    -0.182 OA
HETATM    3  O4  UNL     1      13.136  24.014 110.003  1.00  0.00    -0.182 OA
ENDROOT
BRANCH   1   4
HETATM    4  N3  UNL     1      15.748  24.158 109.350  1.00  0.00    -0.289 N 
ATOM      5  H3  UNL     1      15.919  25.163 109.386  1.00  0.00     0.174 HD
BRANCH   4   6
HETATM    6  C4  UNL     1      16.793  23.219 109.512  1.00  0.00     0.184 C 
HETATM    7  C5  UNL     1      17.837  23.638 110.533  1.00  0.00     0.043 C 
BRANCH   6   8
HETATM    8  C3  UNL     1      17.518  23.059 108.235  1.00  0.00     0.259 C 
HETATM    9  N2  UNL     1      18.248  21.868 107.926  1.00  0.00    -0.266 N 
ATOM     10  H2  UNL     1      18.268  21.107 108.605  1.00  0.00     0.190 HD
HETATM   11  O2  UNL     1      17.513  23.986 107.366  1.00  0.00    -0.269 OA
BRANCH   9  12
HETATM   12  N1  UNL     1      18.927  21.724 106.734  1.00  0.00    -0.268 N 
HETATM   13  C2  UNL     1      20.315  22.005 106.651  1.00  0.00     0.232 C 
HETATM   14  C1  UNL     1      21.128  21.882 105.416  1.00  0.00     0.119 C 
HETATM   15  O1  UNL     1      20.893  22.390 107.708  1.00  0.00    -0.272 OA
ATOM     16  H1  UNL     1      18.425  21.411 105.902  1.00  0.00     0.190 HD
ENDBRANCH   9  12
ENDBRANCH   6   8
ENDBRANCH   4   6
ENDBRANCH   1   4
BRANCH   1  17
HETATM   17  N4  UNL     1      14.173  21.788 109.077  1.00  0.00    -0.206 N 
ATOM     18  H4  UNL     1      14.288  21.254 109.938  1.00  0.00     0.192 HD
BRANCH  17  19
HETATM   19  S2  UNL     1      13.986  21.084 107.729  1.00  0.00     0.162 S 
HETATM   20  O5  UNL     1      12.570  20.791 107.349  1.00  0.00    -0.221 OA
HETATM   21  C6  UNL     1      14.943  21.720 106.367  1.00  0.00     0.211 C 
HETATM   22  C7  UNL     1      15.333  20.257 106.210  1.00  0.00     0.320 C 
HETATM   23  O7  UNL     1      15.039  19.790 107.518  1.00  0.00    -0.254 OA
BRANCH  22  24
HETATM   24  O6  UNL     1      14.507  19.561 105.331  1.00  0.00    -0.253 OA
BRANCH  24  25
HETATM   25  N5  UNL     1      15.138  18.463 104.908  1.00  0.00    -0.308 N 
ATOM     26  H52 UNL     1      15.975  18.465 104.324  1.00  0.00     0.184 HD
ATOM     27  H51 UNL     1      14.652  17.638 105.261  1.00  0.00     0.184 HD
ENDBRANCH  24  25
ENDBRANCH  22  24
ENDBRANCH  17  19
ENDBRANCH   1  17
TORSDOF 8
ENDMDL
MODEL 5
REMARK VINA RESULT: -6.977797544      1.764      2.304
REMARK  8 active torsions:
REMARK  status: ('A' for Active; 'I' for Inactive)
REMARK       I    between atoms: C2_2  and  N1_4 
REMARK    1  A    between atoms: N1_4  and  N2_6 
REMARK       I    between atoms: N2_6  and  C3_8 
REMARK    2  A    between atoms: C3_8  and  C4_10 
REMARK    3  A    between atoms: C4_10  and  N3_12 
REMARK    4  A    between atoms: N3_12  and  S1_14 
REMARK    5  A    between atoms: S1_14  and  N4_17 
REMARK    6  A    between atoms: N4_17  and  S2_19 
REMARK    7  A    between atoms: C7_22  and  O6_23 
REMARK    8  A    between atoms: O6_23  and  N5_24 
ROOT
HETATM    1  S1  UNL     1      15.068  23.555 108.768  1.00  0.00     0.327 S 
HETATM    2  O3  UNL     1      14.092  23.550 109.938  1.00  0.00    -0.182 OA
HETATM    3  O4  UNL     1      14.485  24.427 107.732  1.00  0.00    -0.182 OA
ENDROOT
BRANCH   1   4
HETATM    4  N3  UNL     1      15.292  21.922 108.318  1.00  0.00    -0.289 N 
ATOM      5  H3  UNL     1      15.943  21.313 108.815  1.00  0.00     0.174 HD
BRANCH   4   6
HETATM    6  C4  UNL     1      14.531  21.459 107.220  1.00  0.00     0.184 C 
HETATM    7  C5  UNL     1      13.076  21.188 107.559  1.00  0.00     0.043 C 
BRANCH   6   8
HETATM    8  C3  UNL     1      15.081  20.174 106.742  1.00  0.00     0.259 C 
HETATM    9  N2  UNL     1      14.777  19.660 105.442  1.00  0.00    -0.266 N 
ATOM     10  H2  UNL     1      14.166  20.197 104.826  1.00  0.00     0.190 HD
HETATM   11  O2  UNL     1      15.847  19.482 107.482  1.00  0.00    -0.269 OA
BRANCH   9  12
HETATM   12  N1  UNL     1      15.290  18.458 105.000  1.00  0.00    -0.268 N 
HETATM   13  C2  UNL     1      14.873  17.904 103.762  1.00  0.00     0.232 C 
HETATM   14  C1  UNL     1      15.365  16.619 103.205  1.00  0.00     0.119 C 
HETATM   15  O1  UNL     1      14.021  18.555 103.092  1.00  0.00    -0.272 OA
ATOM     16  H1  UNL     1      15.977  17.963 105.570  1.00  0.00     0.190 HD
ENDBRANCH   9  12
ENDBRANCH   6   8
ENDBRANCH   4   6
ENDBRANCH   1   4
BRANCH   1  17
HETATM   17  N4  UNL     1      16.519  24.273 109.383  1.00  0.00    -0.206 N 
ATOM     18  H4  UNL     1      16.489  24.952 110.144  1.00  0.00     0.192 HD
BRANCH  17  19
HETATM   19  S2  UNL     1      17.849  23.857 108.748  1.00  0.00     0.162 S 
HETATM   20  O5  UNL     1      18.960  24.851 108.872  1.00  0.00    -0.221 OA
HETATM   21  C6  UNL     1      18.387  22.188 109.064  1.00  0.00     0.211 C 
HETATM   22  C7  UNL     1      18.531  22.152 107.550  1.00  0.00     0.320 C 
HETATM   23  O7  UNL     1      17.664  23.221 107.202  1.00  0.00    -0.254 OA
BRANCH  22  24
HETATM   24  O6  UNL     1      19.807  22.501 107.112  1.00  0.00    -0.253 OA
BRANCH  24  25
HETATM   25  N5  UNL     1      20.160  21.705 106.101  1.00  0.00    -0.308 N 
ATOM     26  H52 UNL     1      19.929  20.713 106.038  1.00  0.00     0.184 HD
ATOM     27  H51 UNL     1      20.688  22.245 105.415  1.00  0.00     0.184 HD
ENDBRANCH  24  25
ENDBRANCH  22  24
ENDBRANCH  17  19
ENDBRANCH   1  17
TORSDOF 8
ENDMDL
