MODEL 1
REMARK VINA RESULT: -7.447802775      0.000      0.000
REMARK  5 active torsions:
REMARK  status: ('A' for Active; 'I' for Inactive)
REMARK    1  A    between atoms: C2_2  and  C3_3 
REMARK    2  A    between atoms: C5_5  and  C6_6 
REMARK    3  A    between atoms: C6_6  and  C7_7 
REMARK    4  A    between atoms: C8_10  and  N2_11 
REMARK    5  A    between atoms: C10_17  and  C11_18 
ROOT
HETATM    1  C7  UNL     1      26.588   8.694  29.083  1.00  0.00     0.103 A 
HETATM    2  N1  UNL     1      27.410   9.370  29.901  1.00  0.00    -0.188 N 
ATOM      3  H1  UNL     1      27.101  10.238  30.339  1.00  0.00     0.184 HD
HETATM    4  C8  UNL     1      28.641   8.894  30.137  1.00  0.00     0.677 A 
HETATM    5  N3  UNL     1      29.091   7.752  29.583  1.00  0.00    -0.188 N 
ATOM      6  H3  UNL     1      30.036   7.431  29.793  1.00  0.00     0.184 HD
HETATM    7  C9  UNL     1      28.315   7.031  28.755  1.00  0.00     0.103 A 
HETATM    8  C10 UNL     1      28.740   5.895  28.194  1.00  0.00     0.063 C 
HETATM    9  C16 UNL     1      27.052   7.528  28.518  1.00  0.00     0.226 A 
HETATM   10  O1  UNL     1      26.307   6.848  27.733  1.00  0.00    -0.283 OA
ENDROOT
BRANCH   1  11
HETATM   11  C6  UNL     1      25.372   9.162  28.848  1.00  0.00     0.064 C 
BRANCH  11  12
HETATM   12  C5  UNL     1      25.053  10.580  28.863  1.00  0.00     0.036 A 
HETATM   13  C4  UNL     1      25.812  11.451  28.094  1.00  0.00     0.041 A 
HETATM   14  C3  UNL     1      25.599  12.793  28.036  1.00  0.00    -0.028 A 
HETATM   15  C19 UNL     1      24.566  13.334  28.787  1.00  0.00    -0.036 A 
HETATM   16  C18 UNL     1      23.820  12.469  29.545  1.00  0.00     0.098 A 
HETATM   17  C20 UNL     1      24.283  14.805  28.763  1.00  0.00     0.050 C 
HETATM   18  N5  UNL     1      24.059  11.125  29.582  1.00  0.00    -0.361 N 
HETATM   19  C17 UNL     1      23.240  10.284  30.397  1.00  0.00     0.155 C 
BRANCH  14  20
HETATM   20  C2  UNL     1      26.394  13.711  27.226  1.00  0.00     0.002 C 
HETATM   21  C1  UNL     1      27.704  13.698  27.147  1.00  0.00     0.012 C 
ENDBRANCH  14  20
ENDBRANCH  11  12
ENDBRANCH   1  11
BRANCH   4  22
HETATM   22  N2  UNL     1      29.425   9.574  30.940  1.00  0.00    -0.234 N 
ATOM     23  H22 UNL     1      30.160  10.160  30.545  1.00  0.00     0.174 HD
ATOM     24  H21 UNL     1      29.274   9.493  31.945  1.00  0.00     0.174 HD
ENDBRANCH   4  22
BRANCH   8  25
HETATM   25  C11 UNL     1      30.060   5.356  28.429  1.00  0.00     0.034 A 
HETATM   26  C12 UNL     1      30.438   4.532  29.477  1.00  0.00     0.031 A 
HETATM   27  C13 UNL     1      31.778   4.239  29.342  1.00  0.00     0.027 A 
HETATM   28  C14 UNL     1      32.226   4.881  28.212  1.00  0.00     0.005 A 
HETATM   29  C15 UNL     1      33.626   4.860  27.652  1.00  0.00     0.068 C 
HETATM   30  N4  UNL     1      31.173   5.534  27.698  1.00  0.00    -0.360 N 
ATOM     31  H4  UNL     1      31.214   6.101  26.851  1.00  0.00     0.166 HD
ENDBRANCH   8  25
TORSDOF 5
ENDMDL
MODEL 2
REMARK VINA RESULT: -7.433204718      4.077      6.477
REMARK  5 active torsions:
REMARK  status: ('A' for Active; 'I' for Inactive)
REMARK    1  A    between atoms: C2_2  and  C3_3 
REMARK    2  A    between atoms: C5_5  and  C6_6 
REMARK    3  A    between atoms: C6_6  and  C7_7 
REMARK    4  A    between atoms: C8_10  and  N2_11 
REMARK    5  A    between atoms: C10_17  and  C11_18 
ROOT
HETATM    1  C7  UNL     1      21.830  10.779  27.699  1.00  0.00     0.103 A 
HETATM    2  N1  UNL     1      21.702  10.913  29.028  1.00  0.00    -0.188 N 
ATOM      3  H1  UNL     1      20.813  11.213  29.431  1.00  0.00     0.184 HD
HETATM    4  C8  UNL     1      22.749  10.651  29.821  1.00  0.00     0.677 A 
HETATM    5  N3  UNL     1      23.940  10.252  29.334  1.00  0.00    -0.188 N 
ATOM      6  H3  UNL     1      24.708  10.063  29.978  1.00  0.00     0.184 HD
HETATM    7  C9  UNL     1      24.132  10.099  28.012  1.00  0.00     0.103 A 
HETATM    8  C10 UNL     1      25.303   9.703  27.506  1.00  0.00     0.063 C 
HETATM    9  C16 UNL     1      23.049  10.372  27.205  1.00  0.00     0.226 A 
HETATM   10  O1  UNL     1      23.221  10.228  25.947  1.00  0.00    -0.283 OA
ENDROOT
BRANCH   1  11
HETATM   11  C6  UNL     1      20.797  11.038  26.913  1.00  0.00     0.064 C 
BRANCH  11  12
HETATM   12  C5  UNL     1      19.991  12.242  27.037  1.00  0.00     0.036 A 
HETATM   13  C4  UNL     1      18.809  12.190  27.762  1.00  0.00     0.041 A 
HETATM   14  C3  UNL     1      17.982  13.254  27.941  1.00  0.00    -0.028 A 
HETATM   15  C19 UNL     1      18.330  14.469  27.368  1.00  0.00    -0.036 A 
HETATM   16  C18 UNL     1      19.499  14.514  26.652  1.00  0.00     0.098 A 
HETATM   17  C20 UNL     1      17.459  15.677  27.530  1.00  0.00     0.050 C 
HETATM   18  N5  UNL     1      20.308  13.426  26.491  1.00  0.00    -0.361 N 
HETATM   19  C17 UNL     1      21.512  13.548  25.731  1.00  0.00     0.155 C 
BRANCH  14  20
HETATM   20  C2  UNL     1      16.739  13.203  28.704  1.00  0.00     0.002 C 
HETATM   21  C1  UNL     1      16.656  12.929  29.985  1.00  0.00     0.012 C 
ENDBRANCH  14  20
ENDBRANCH  11  12
ENDBRANCH   1  11
BRANCH   4  22
HETATM   22  N2  UNL     1      22.598  10.790  31.117  1.00  0.00    -0.234 N 
ATOM     23  H22 UNL     1      21.820  11.345  31.473  1.00  0.00     0.174 HD
ATOM     24  H21 UNL     1      23.269  10.333  31.733  1.00  0.00     0.174 HD
ENDBRANCH   4  22
BRANCH   8  25
HETATM   25  C11 UNL     1      26.451   9.412  28.333  1.00  0.00     0.034 A 
HETATM   26  C12 UNL     1      26.939   8.154  28.652  1.00  0.00     0.031 A 
HETATM   27  C13 UNL     1      28.044   8.305  29.461  1.00  0.00     0.027 A 
HETATM   28  C14 UNL     1      28.239   9.654  29.641  1.00  0.00     0.005 A 
HETATM   29  C15 UNL     1      29.327  10.313  30.451  1.00  0.00     0.068 C 
HETATM   30  N4  UNL     1      27.271  10.278  28.954  1.00  0.00    -0.360 N 
ATOM     31  H4  UNL     1      27.168  11.292  28.909  1.00  0.00     0.166 HD
ENDBRANCH   8  25
TORSDOF 5
ENDMDL
MODEL 3
REMARK VINA RESULT: -7.412142268      2.823      8.468
REMARK  5 active torsions:
REMARK  status: ('A' for Active; 'I' for Inactive)
REMARK    1  A    between atoms: C2_2  and  C3_3 
REMARK    2  A    between atoms: C5_5  and  C6_6 
REMARK    3  A    between atoms: C6_6  and  C7_7 
REMARK    4  A    between atoms: C8_10  and  N2_11 
REMARK    5  A    between atoms: C10_17  and  C11_18 
ROOT
HETATM    1  C7  UNL     1      24.907   9.597  28.433  1.00  0.00     0.103 A 
HETATM    2  N1  UNL     1      24.737  10.298  27.301  1.00  0.00    -0.188 N 
ATOM      3  H1  UNL     1      25.319  10.106  26.486  1.00  0.00     0.184 HD
HETATM    4  C8  UNL     1      23.797  11.251  27.252  1.00  0.00     0.677 A 
HETATM    5  N3  UNL     1      23.005  11.538  28.303  1.00  0.00    -0.188 N 
ATOM      6  H3  UNL     1      22.302  12.272  28.217  1.00  0.00     0.184 HD
HETATM    7  C9  UNL     1      23.125  10.870  29.464  1.00  0.00     0.103 A 
HETATM    8  C10 UNL     1      22.351  11.136  30.520  1.00  0.00     0.063 C 
HETATM    9  C16 UNL     1      24.095   9.892  29.505  1.00  0.00     0.226 A 
HETATM   10  O1  UNL     1      24.217   9.252  30.604  1.00  0.00    -0.283 OA
ENDROOT
BRANCH   1  11
HETATM   11  C6  UNL     1      25.835   8.654  28.485  1.00  0.00     0.064 C 
BRANCH  11  12
HETATM   12  C5  UNL     1      27.185   8.900  28.963  1.00  0.00     0.036 A 
HETATM   13  C4  UNL     1      27.562  10.196  29.284  1.00  0.00     0.041 A 
HETATM   14  C3  UNL     1      28.798  10.536  29.739  1.00  0.00    -0.028 A 
HETATM   15  C19 UNL     1      29.745   9.535  29.896  1.00  0.00    -0.036 A 
HETATM   16  C18 UNL     1      29.367   8.256  29.578  1.00  0.00     0.098 A 
HETATM   17  C20 UNL     1      31.123   9.848  30.394  1.00  0.00     0.050 C 
HETATM   18  N5  UNL     1      28.118   7.947  29.122  1.00  0.00    -0.361 N 
HETATM   19  C17 UNL     1      27.795   6.591  28.810  1.00  0.00     0.155 C 
BRANCH  14  20
HETATM   20  C2  UNL     1      29.197  11.899  30.078  1.00  0.00     0.002 C 
HETATM   21  C1  UNL     1      28.924  12.960  29.356  1.00  0.00     0.012 C 
ENDBRANCH  14  20
ENDBRANCH  11  12
ENDBRANCH   1  11
BRANCH   4  22
HETATM   22  N2  UNL     1      23.651  11.923  26.134  1.00  0.00    -0.234 N 
ATOM     23  H22 UNL     1      24.143  11.613  25.296  1.00  0.00     0.174 HD
ATOM     24  H21 UNL     1      23.045  12.742  26.139  1.00  0.00     0.174 HD
ENDBRANCH   4  22
BRANCH   8  25
HETATM   25  C11 UNL     1      21.329  12.157  30.499  1.00  0.00     0.034 A 
HETATM   26  C12 UNL     1      21.482  13.483  30.872  1.00  0.00     0.031 A 
HETATM   27  C13 UNL     1      20.275  14.127  30.707  1.00  0.00     0.027 A 
HETATM   28  C14 UNL     1      19.378  13.200  30.231  1.00  0.00     0.005 A 
HETATM   29  C15 UNL     1      17.927  13.432  29.896  1.00  0.00     0.068 C 
HETATM   30  N4  UNL     1      20.044  12.041  30.121  1.00  0.00    -0.360 N 
ATOM     31  H4  UNL     1      19.624  11.172  29.790  1.00  0.00     0.166 HD
ENDBRANCH   8  25
TORSDOF 5
ENDMDL
MODEL 4
REMARK VINA RESULT: -7.247157653      3.607      5.770
REMARK  5 active torsions:
REMARK  status: ('A' for Active; 'I' for Inactive)
REMARK    1  A    between atoms: C2_2  and  C3_3 
REMARK    2  A    between atoms: C5_5  and  C6_6 
REMARK    3  A    between atoms: C6_6  and  C7_7 
REMARK    4  A    between atoms: C8_10  and  N2_11 
REMARK    5  A    between atoms: C10_17  and  C11_18 
ROOT
HETATM    1  C7  UNL     1      22.872  11.485  28.184  1.00  0.00     0.103 A 
HETATM    2  N1  UNL     1      22.518  10.939  29.358  1.00  0.00    -0.188 N 
ATOM      3  H1  UNL     1      21.605  11.142  29.765  1.00  0.00     0.184 HD
HETATM    4  C8  UNL     1      23.375  10.124  29.990  1.00  0.00     0.677 A 
HETATM    5  N3  UNL     1      24.590   9.827  29.489  1.00  0.00    -0.188 N 
ATOM      6  H3  UNL     1      25.206   9.201  30.007  1.00  0.00     0.184 HD
HETATM    7  C9  UNL     1      25.002  10.343  28.318  1.00  0.00     0.103 A 
HETATM    8  C10 UNL     1      26.201  10.062  27.802  1.00  0.00     0.063 C 
HETATM    9  C16 UNL     1      24.115  11.179  27.676  1.00  0.00     0.226 A 
HETATM   10  O1  UNL     1      24.498  11.674  26.562  1.00  0.00    -0.283 OA
ENDROOT
BRANCH   1  11
HETATM   11  C6  UNL     1      22.029  12.290  27.557  1.00  0.00     0.064 C 
BRANCH  11  12
HETATM   12  C5  UNL     1      20.655  12.488  27.991  1.00  0.00     0.036 A 
HETATM   13  C4  UNL     1      20.414  13.150  29.187  1.00  0.00     0.041 A 
HETATM   14  C3  UNL     1      19.171  13.388  29.684  1.00  0.00    -0.028 A 
HETATM   15  C19 UNL     1      18.072  12.948  28.961  1.00  0.00    -0.036 A 
HETATM   16  C18 UNL     1      18.316  12.295  27.781  1.00  0.00     0.098 A 
HETATM   17  C20 UNL     1      16.678  13.182  29.457  1.00  0.00     0.050 C 
HETATM   18  N5  UNL     1      19.577  12.071  27.308  1.00  0.00    -0.361 N 
HETATM   19  C17 UNL     1      19.755  11.383  26.069  1.00  0.00     0.155 C 
BRANCH  14  20
HETATM   20  C2  UNL     1      18.914  14.085  30.941  1.00  0.00     0.002 C 
HETATM   21  C1  UNL     1      19.840  14.467  31.788  1.00  0.00     0.012 C 
ENDBRANCH  14  20
ENDBRANCH  11  12
ENDBRANCH   1  11
BRANCH   4  22
HETATM   22  N2  UNL     1      23.005   9.603  31.135  1.00  0.00    -0.234 N 
ATOM     23  H22 UNL     1      22.542   8.694  31.146  1.00  0.00     0.174 HD
ATOM     24  H21 UNL     1      23.193  10.129  31.988  1.00  0.00     0.174 HD
ENDBRANCH   4  22
BRANCH   8  25
HETATM   25  C11 UNL     1      27.147   9.188  28.458  1.00  0.00     0.034 A 
HETATM   26  C12 UNL     1      28.116   9.564  29.375  1.00  0.00     0.031 A 
HETATM   27  C13 UNL     1      28.811   8.440  29.765  1.00  0.00     0.027 A 
HETATM   28  C14 UNL     1      28.271   7.371  29.089  1.00  0.00     0.005 A 
HETATM   29  C15 UNL     1      28.699   5.928  29.185  1.00  0.00     0.068 C 
HETATM   30  N4  UNL     1      27.284   7.858  28.322  1.00  0.00    -0.360 N 
ATOM     31  H4  UNL     1      26.706   7.286  27.707  1.00  0.00     0.166 HD
ENDBRANCH   8  25
TORSDOF 5
ENDMDL
MODEL 5
REMARK VINA RESULT: -7.150667177      3.233      8.475
REMARK  5 active torsions:
REMARK  status: ('A' for Active; 'I' for Inactive)
REMARK    1  A    between atoms: C2_2  and  C3_3 
REMARK    2  A    between atoms: C5_5  and  C6_6 
REMARK    3  A    between atoms: C6_6  and  C7_7 
REMARK    4  A    between atoms: C8_10  and  N2_11 
REMARK    5  A    between atoms: C10_17  and  C11_18 
ROOT
HETATM    1  C7  UNL     1      24.627   9.694  28.196  1.00  0.00     0.103 A 
HETATM    2  N1  UNL     1      24.290   9.717  29.495  1.00  0.00    -0.188 N 
ATOM      3  H1  UNL     1      24.941   9.374  30.201  1.00  0.00     0.184 HD
HETATM    4  C8  UNL     1      23.091  10.196  29.856  1.00  0.00     0.677 A 
HETATM    5  N3  UNL     1      22.201  10.661  28.958  1.00  0.00    -0.188 N 
ATOM      6  H3  UNL     1      21.301  11.016  29.281  1.00  0.00     0.184 HD
HETATM    7  C9  UNL     1      22.480  10.664  27.643  1.00  0.00     0.103 A 
HETATM    8  C10 UNL     1      21.613  11.121  26.735  1.00  0.00     0.063 C 
HETATM    9  C16 UNL     1      23.714  10.170  27.282  1.00  0.00     0.226 A 
HETATM   10  O1  UNL     1      23.989  10.169  26.034  1.00  0.00    -0.283 OA
ENDROOT
BRANCH   1  11
HETATM   11  C6  UNL     1      25.810   9.222  27.837  1.00  0.00     0.064 C 
BRANCH  11  12
HETATM   12  C5  UNL     1      27.021   9.449  28.610  1.00  0.00     0.036 A 
HETATM   13  C4  UNL     1      27.401  10.752  28.900  1.00  0.00     0.041 A 
HETATM   14  C3  UNL     1      28.512  11.076  29.614  1.00  0.00    -0.028 A 
HETATM   15  C19 UNL     1      29.320  10.052  30.085  1.00  0.00    -0.036 A 
HETATM   16  C18 UNL     1      28.940   8.768  29.795  1.00  0.00     0.098 A 
HETATM   17  C20 UNL     1      30.557  10.347  30.877  1.00  0.00     0.050 C 
HETATM   18  N5  UNL     1      27.818   8.474  29.075  1.00  0.00    -0.361 N 
HETATM   19  C17 UNL     1      27.483   7.110  28.811  1.00  0.00     0.155 C 
BRANCH  14  20
HETATM   20  C2  UNL     1      28.914  12.445  29.922  1.00  0.00     0.002 C 
HETATM   21  C1  UNL     1      29.202  13.361  29.026  1.00  0.00     0.012 C 
ENDBRANCH  14  20
ENDBRANCH  11  12
ENDBRANCH   1  11
BRANCH   4  22
HETATM   22  N2  UNL     1      22.786  10.207  31.131  1.00  0.00    -0.234 N 
ATOM     23  H22 UNL     1      22.091  10.870  31.474  1.00  0.00     0.174 HD
ATOM     24  H21 UNL     1      23.258   9.546  31.747  1.00  0.00     0.174 HD
ENDBRANCH   4  22
BRANCH   8  25
HETATM   25  C11 UNL     1      20.314  11.643  27.091  1.00  0.00     0.034 A 
HETATM   26  C12 UNL     1      19.173  11.617  26.304  1.00  0.00     0.031 A 
HETATM   27  C13 UNL     1      18.145  12.213  27.003  1.00  0.00     0.027 A 
HETATM   28  C14 UNL     1      18.652  12.606  28.220  1.00  0.00     0.005 A 
HETATM   29  C15 UNL     1      17.906  13.303  29.329  1.00  0.00     0.068 C 
HETATM   30  N4  UNL     1      19.945  12.248  28.232  1.00  0.00    -0.360 N 
ATOM     31  H4  UNL     1      20.574  12.418  29.017  1.00  0.00     0.166 HD
ENDBRANCH   8  25
TORSDOF 5
ENDMDL
