MODEL 1
REMARK VINA RESULT: -7.691361749      0.000      0.000
REMARK  9 active torsions:
REMARK  status: ('A' for Active; 'I' for Inactive)
REMARK    1  A    between atoms: C2_2  and  C3_3 
REMARK    2  A    between atoms: C3_3  and  C4_4 
REMARK    3  A    between atoms: C4_4  and  C5_5 
REMARK    4  A    between atoms: C5_5  and  C6_6 
REMARK    5  A    between atoms: C9_11  and  C10_12 
REMARK    6  A    between atoms: C10_12  and  C11_13 
REMARK    7  A    between atoms: C11_13  and  C12_14 
REMARK    8  A    between atoms: C15_19  and  N3_20 
REMARK    9  A    between atoms: N6_29  and  O1_30 
ROOT
HETATM    1  C11 UNL     1      25.783   9.064  28.773  1.00  0.00    -0.057 C 
ENDROOT
BRANCH   1   2
HETATM    2  C10 UNL     1      24.661   9.523  28.706  1.00  0.00    -0.022 C 
BRANCH   2   3
HETATM    3  C9  UNL     1      23.342  10.083  28.611  1.00  0.00     0.189 A 
HETATM    4  N1  UNL     1      22.591  10.301  27.502  1.00  0.00    -0.335 N 
HETATM    5  C7  UNL     1      21.419  10.839  27.833  1.00  0.00     0.032 A 
ATOM      6  H1  UNL     1      22.884  10.084  26.549  1.00  0.00     0.168 HD
HETATM    7  C6  UNL     1      21.403  10.978  29.203  1.00  0.00     0.065 A 
HETATM    8  C8  UNL     1      20.318  11.225  26.915  1.00  0.00     0.070 C 
HETATM    9  N6  UNL     1      22.603  10.500  29.629  1.00  0.00    -0.202 N 
BRANCH   7  10
HETATM   10  C5  UNL     1      20.306  11.531  30.033  1.00  0.00     0.062 C 
BRANCH  10  11
HETATM   11  C4  UNL     1      20.461  13.027  30.224  1.00  0.00     0.006 C 
BRANCH  11  12
HETATM   12  C3  UNL     1      19.109  13.695  30.324  1.00  0.00     0.000 C 
BRANCH  12  13
HETATM   13  C2  UNL     1      18.142  13.032  29.366  1.00  0.00    -0.005 C 
HETATM   14  C1  UNL     1      16.742  13.031  29.942  1.00  0.00     0.005 C 
ENDBRANCH  12  13
ENDBRANCH  11  12
ENDBRANCH  10  11
ENDBRANCH   7  10
BRANCH   9  15
HETATM   15  O1  UNL     1      22.993  10.460  30.946  1.00  0.00    -0.281 OA
ATOM     16  H1  UNL     1      23.781  10.030  31.256  1.00  0.00     0.245 HD
ENDBRANCH   9  15
ENDBRANCH   2   3
ENDBRANCH   1   2
BRANCH   1  17
HETATM   17  C12 UNL     1      27.118   8.536  28.833  1.00  0.00     0.036 A 
HETATM   18  C13 UNL     1      27.393   7.278  28.325  1.00  0.00     0.056 A 
HETATM   19  C14 UNL     1      28.682   6.753  28.377  1.00  0.00     0.095 A 
HETATM   20  N2  UNL     1      29.255   5.601  27.984  1.00  0.00    -0.188 N 
HETATM   21  C16 UNL     1      29.680   7.503  28.940  1.00  0.00     0.150 A 
HETATM   22  C15 UNL     1      30.579   5.626  28.292  1.00  0.00     0.678 A 
ATOM     23  H2  UNL     1      28.772   4.828  27.526  1.00  0.00     0.184 HD
HETATM   24  N4  UNL     1      30.844   6.803  28.884  1.00  0.00    -0.174 N 
ATOM     25  H4  UNL     1      31.753   7.114  29.228  1.00  0.00     0.186 HD
HETATM   26  N5  UNL     1      29.428   8.712  29.431  1.00  0.00    -0.344 N 
HETATM   27  C17 UNL     1      30.512   9.487  30.024  1.00  0.00     0.157 C 
HETATM   28  C18 UNL     1      28.183   9.218  29.381  1.00  0.00     0.112 A 
BRANCH  22  29
HETATM   29  N3  UNL     1      31.446   4.678  28.057  1.00  0.00    -0.234 N 
ATOM     30  H32 UNL     1      31.427   3.740  28.459  1.00  0.00     0.174 HD
ATOM     31  H31 UNL     1      32.260   4.741  27.444  1.00  0.00     0.174 HD
ENDBRANCH  22  29
ENDBRANCH   1  17
TORSDOF 9
ENDMDL
MODEL 2
REMARK VINA RESULT: -7.491739633      0.765      1.033
REMARK  9 active torsions:
REMARK  status: ('A' for Active; 'I' for Inactive)
REMARK    1  A    between atoms: C2_2  and  C3_3 
REMARK    2  A    between atoms: C3_3  and  C4_4 
REMARK    3  A    between atoms: C4_4  and  C5_5 
REMARK    4  A    between atoms: C5_5  and  C6_6 
REMARK    5  A    between atoms: C9_11  and  C10_12 
REMARK    6  A    between atoms: C10_12  and  C11_13 
REMARK    7  A    between atoms: C11_13  and  C12_14 
REMARK    8  A    between atoms: C15_19  and  N3_20 
REMARK    9  A    between atoms: N6_29  and  O1_30 
ROOT
HETATM    1  C11 UNL     1      26.093   8.897  28.690  1.00  0.00    -0.057 C 
ENDROOT
BRANCH   1   2
HETATM    2  C10 UNL     1      24.966   9.345  28.623  1.00  0.00    -0.022 C 
BRANCH   2   3
HETATM    3  C9  UNL     1      23.642   9.889  28.525  1.00  0.00     0.189 A 
HETATM    4  N1  UNL     1      22.940  10.216  27.411  1.00  0.00    -0.335 N 
HETATM    5  C7  UNL     1      21.740  10.694  27.741  1.00  0.00     0.032 A 
ATOM      6  H1  UNL     1      23.282  10.112  26.456  1.00  0.00     0.168 HD
HETATM    7  C6  UNL     1      21.657  10.679  29.115  1.00  0.00     0.065 A 
HETATM    8  C8  UNL     1      20.676  11.161  26.817  1.00  0.00     0.070 C 
HETATM    9  N6  UNL     1      22.846  10.177  29.545  1.00  0.00    -0.202 N 
BRANCH   7  10
HETATM   10  C5  UNL     1      20.509  11.117  29.946  1.00  0.00     0.062 C 
BRANCH  10  11
HETATM   11  C4  UNL     1      20.718  12.520  30.477  1.00  0.00     0.006 C 
BRANCH  11  12
HETATM   12  C3  UNL     1      19.567  13.417  30.084  1.00  0.00     0.000 C 
BRANCH  12  13
HETATM   13  C2  UNL     1      19.506  14.605  31.022  1.00  0.00    -0.005 C 
HETATM   14  C1  UNL     1      19.610  14.150  32.462  1.00  0.00     0.005 C 
ENDBRANCH  12  13
ENDBRANCH  11  12
ENDBRANCH  10  11
ENDBRANCH   7  10
BRANCH   9  15
HETATM   15  O1  UNL     1      23.173   9.997  30.868  1.00  0.00    -0.281 OA
ATOM     16  H1  UNL     1      23.261   9.147  31.283  1.00  0.00     0.245 HD
ENDBRANCH   9  15
ENDBRANCH   2   3
ENDBRANCH   1   2
BRANCH   1  17
HETATM   17  C12 UNL     1      27.434   8.383  28.751  1.00  0.00     0.036 A 
HETATM   18  C13 UNL     1      27.717   7.117  28.268  1.00  0.00     0.056 A 
HETATM   19  C14 UNL     1      29.012   6.606  28.320  1.00  0.00     0.095 A 
HETATM   20  N2  UNL     1      29.593   5.451  27.948  1.00  0.00    -0.188 N 
HETATM   21  C16 UNL     1      30.007   7.377  28.860  1.00  0.00     0.150 A 
HETATM   22  C15 UNL     1      30.918   5.496  28.245  1.00  0.00     0.678 A 
ATOM     23  H2  UNL     1      29.113   4.665  27.510  1.00  0.00     0.184 HD
HETATM   24  N4  UNL     1      31.177   6.687  28.809  1.00  0.00    -0.174 N 
ATOM     25  H4  UNL     1      32.085   7.014  29.140  1.00  0.00     0.186 HD
HETATM   26  N5  UNL     1      29.746   8.594  29.327  1.00  0.00    -0.344 N 
HETATM   27  C17 UNL     1      30.827   9.391  29.896  1.00  0.00     0.157 C 
HETATM   28  C18 UNL     1      28.497   9.087  29.276  1.00  0.00     0.112 A 
BRANCH  22  29
HETATM   29  N3  UNL     1      31.793   4.550  28.023  1.00  0.00    -0.234 N 
ATOM     30  H32 UNL     1      32.344   4.436  27.172  1.00  0.00     0.174 HD
ATOM     31  H31 UNL     1      32.047   3.799  28.666  1.00  0.00     0.174 HD
ENDBRANCH  22  29
ENDBRANCH   1  17
TORSDOF 9
ENDMDL
MODEL 3
REMARK VINA RESULT: -7.441696437      1.079      1.711
REMARK  9 active torsions:
REMARK  status: ('A' for Active; 'I' for Inactive)
REMARK    1  A    between atoms: C2_2  and  C3_3 
REMARK    2  A    between atoms: C3_3  and  C4_4 
REMARK    3  A    between atoms: C4_4  and  C5_5 
REMARK    4  A    between atoms: C5_5  and  C6_6 
REMARK    5  A    between atoms: C9_11  and  C10_12 
REMARK    6  A    between atoms: C10_12  and  C11_13 
REMARK    7  A    between atoms: C11_13  and  C12_14 
REMARK    8  A    between atoms: C15_19  and  N3_20 
REMARK    9  A    between atoms: N6_29  and  O1_30 
ROOT
HETATM    1  C11 UNL     1      25.796   9.329  29.252  1.00  0.00    -0.057 C 
ENDROOT
BRANCH   1   2
HETATM    2  C10 UNL     1      24.692   9.828  29.330  1.00  0.00    -0.022 C 
BRANCH   2   3
HETATM    3  C9  UNL     1      23.397  10.440  29.428  1.00  0.00     0.189 A 
HETATM    4  N1  UNL     1      22.965  11.374  30.313  1.00  0.00    -0.335 N 
HETATM    5  C7  UNL     1      21.693  11.688  30.073  1.00  0.00     0.032 A 
ATOM      6  H1  UNL     1      23.535  11.779  31.056  1.00  0.00     0.168 HD
HETATM    7  C6  UNL     1      21.279  10.934  28.998  1.00  0.00     0.065 A 
HETATM    8  C8  UNL     1      20.856  12.665  30.814  1.00  0.00     0.070 C 
HETATM    9  N6  UNL     1      22.361  10.189  28.642  1.00  0.00    -0.202 N 
BRANCH   7  10
HETATM   10  C5  UNL     1      19.938  10.939  28.365  1.00  0.00     0.062 C 
BRANCH  10  11
HETATM   11  C4  UNL     1      19.766  12.134  27.450  1.00  0.00     0.006 C 
BRANCH  11  12
HETATM   12  C3  UNL     1      18.317  12.558  27.391  1.00  0.00     0.000 C 
BRANCH  12  13
HETATM   13  C2  UNL     1      18.016  13.498  28.539  1.00  0.00    -0.005 C 
HETATM   14  C1  UNL     1      16.810  13.016  29.318  1.00  0.00     0.005 C 
ENDBRANCH  12  13
ENDBRANCH  11  12
ENDBRANCH  10  11
ENDBRANCH   7  10
BRANCH   9  15
HETATM   15  O1  UNL     1      22.368   9.291  27.601  1.00  0.00    -0.281 OA
ATOM     16  H1  UNL     1      21.633   9.146  27.017  1.00  0.00     0.245 HD
ENDBRANCH   9  15
ENDBRANCH   2   3
ENDBRANCH   1   2
BRANCH   1  17
HETATM   17  C12 UNL     1      27.113   8.760  29.171  1.00  0.00     0.036 A 
HETATM   18  C13 UNL     1      27.299   7.518  28.588  1.00  0.00     0.056 A 
HETATM   19  C14 UNL     1      28.570   6.953  28.502  1.00  0.00     0.095 A 
HETATM   20  N2  UNL     1      29.067   5.803  28.012  1.00  0.00    -0.188 N 
HETATM   21  C16 UNL     1      29.638   7.646  29.005  1.00  0.00     0.150 A 
HETATM   22  C15 UNL     1      30.413   5.775  28.201  1.00  0.00     0.678 A 
ATOM     23  H2  UNL     1      28.519   5.067  27.567  1.00  0.00     0.184 HD
HETATM   24  N4  UNL     1      30.769   6.916  28.816  1.00  0.00    -0.174 N 
ATOM     25  H4  UNL     1      31.714   7.184  29.091  1.00  0.00     0.186 HD
HETATM   26  N5  UNL     1      29.471   8.840  29.567  1.00  0.00    -0.344 N 
HETATM   27  C17 UNL     1      30.629   9.554  30.094  1.00  0.00     0.157 C 
HETATM   28  C18 UNL     1      28.245   9.384  29.649  1.00  0.00     0.112 A 
BRANCH  22  29
HETATM   29  N3  UNL     1      31.224   4.812  27.850  1.00  0.00    -0.234 N 
ATOM     30  H32 UNL     1      30.999   4.046  27.216  1.00  0.00     0.174 HD
ATOM     31  H31 UNL     1      32.189   4.693  28.158  1.00  0.00     0.174 HD
ENDBRANCH  22  29
ENDBRANCH   1  17
TORSDOF 9
ENDMDL
MODEL 4
REMARK VINA RESULT: -7.434520778      2.367     10.107
REMARK  9 active torsions:
REMARK  status: ('A' for Active; 'I' for Inactive)
REMARK    1  A    between atoms: C2_2  and  C3_3 
REMARK    2  A    between atoms: C3_3  and  C4_4 
REMARK    3  A    between atoms: C4_4  and  C5_5 
REMARK    4  A    between atoms: C5_5  and  C6_6 
REMARK    5  A    between atoms: C9_11  and  C10_12 
REMARK    6  A    between atoms: C10_12  and  C11_13 
REMARK    7  A    between atoms: C11_13  and  C12_14 
REMARK    8  A    between atoms: C15_19  and  N3_20 
REMARK    9  A    between atoms: N6_29  and  O1_30 
ROOT
HETATM    1  C11 UNL     1      24.416   9.932  28.751  1.00  0.00    -0.057 C 
ENDROOT
BRANCH   1   2
HETATM    2  C10 UNL     1      25.529   9.450  28.804  1.00  0.00    -0.022 C 
BRANCH   2   3
HETATM    3  C9  UNL     1      26.854   8.900  28.856  1.00  0.00     0.189 A 
HETATM    4  N1  UNL     1      27.977   9.443  29.393  1.00  0.00    -0.335 N 
HETATM    5  C7  UNL     1      29.011   8.618  29.240  1.00  0.00     0.032 A 
ATOM      6  H1  UNL     1      28.021  10.354  29.850  1.00  0.00     0.168 HD
HETATM    7  C6  UNL     1      28.550   7.500  28.580  1.00  0.00     0.065 A 
HETATM    8  C8  UNL     1      30.409   8.839  29.687  1.00  0.00     0.070 C 
HETATM    9  N6  UNL     1      27.225   7.725  28.370  1.00  0.00    -0.202 N 
BRANCH   7  10
HETATM   10  C5  UNL     1      29.337   6.306  28.186  1.00  0.00     0.062 C 
BRANCH  10  11
HETATM   11  C4  UNL     1      29.576   5.391  29.370  1.00  0.00     0.006 C 
BRANCH  11  12
HETATM   12  C3  UNL     1      30.906   4.683  29.238  1.00  0.00     0.000 C 
BRANCH  12  13
HETATM   13  C2  UNL     1      31.760   5.397  28.212  1.00  0.00    -0.005 C 
HETATM   14  C1  UNL     1      33.082   4.681  28.031  1.00  0.00     0.005 C 
ENDBRANCH  12  13
ENDBRANCH  11  12
ENDBRANCH  10  11
ENDBRANCH   7  10
BRANCH   9  15
HETATM   15  O1  UNL     1      26.386   6.842  27.733  1.00  0.00    -0.281 OA
ATOM     16  H1  UNL     1      25.454   6.776  27.904  1.00  0.00     0.245 HD
ENDBRANCH   9  15
ENDBRANCH   2   3
ENDBRANCH   1   2
BRANCH   1  17
HETATM   17  C12 UNL     1      23.107  10.519  28.672  1.00  0.00     0.036 A 
HETATM   18  C13 UNL     1      22.346  10.370  27.525  1.00  0.00     0.056 A 
HETATM   19  C14 UNL     1      21.075  10.934  27.433  1.00  0.00     0.095 A 
HETATM   20  N2  UNL     1      20.118  10.969  26.489  1.00  0.00    -0.188 N 
HETATM   21  C16 UNL     1      20.586  11.641  28.499  1.00  0.00     0.150 A 
HETATM   22  C15 UNL     1      19.055  11.680  26.949  1.00  0.00     0.678 A 
ATOM     23  H2  UNL     1      20.180  10.531  25.570  1.00  0.00     0.184 HD
HETATM   24  N4  UNL     1      19.342  12.097  28.194  1.00  0.00    -0.174 N 
ATOM     25  H4  UNL     1      18.738  12.653  28.799  1.00  0.00     0.186 HD
HETATM   26  N5  UNL     1      21.308  11.790  29.605  1.00  0.00    -0.344 N 
HETATM   27  C17 UNL     1      20.759  12.549  30.723  1.00  0.00     0.157 C 
HETATM   28  C18 UNL     1      22.534  11.246  29.693  1.00  0.00     0.112 A 
BRANCH  22  29
HETATM   29  N3  UNL     1      17.945  11.919  26.302  1.00  0.00    -0.234 N 
ATOM     30  H32 UNL     1      17.308  11.214  25.930  1.00  0.00     0.174 HD
ATOM     31  H31 UNL     1      17.561  12.839  26.080  1.00  0.00     0.174 HD
ENDBRANCH  22  29
ENDBRANCH   1  17
TORSDOF 9
ENDMDL
MODEL 5
REMARK VINA RESULT: -7.416129308      2.203     10.232
REMARK  9 active torsions:
REMARK  status: ('A' for Active; 'I' for Inactive)
REMARK    1  A    between atoms: C2_2  and  C3_3 
REMARK    2  A    between atoms: C3_3  and  C4_4 
REMARK    3  A    between atoms: C4_4  and  C5_5 
REMARK    4  A    between atoms: C5_5  and  C6_6 
REMARK    5  A    between atoms: C9_11  and  C10_12 
REMARK    6  A    between atoms: C10_12  and  C11_13 
REMARK    7  A    between atoms: C11_13  and  C12_14 
REMARK    8  A    between atoms: C15_19  and  N3_20 
REMARK    9  A    between atoms: N6_29  and  O1_30 
ROOT
HETATM    1  C11 UNL     1      24.436   9.987  28.957  1.00  0.00    -0.057 C 
ENDROOT
BRANCH   1   2
HETATM    2  C10 UNL     1      25.538   9.478  28.945  1.00  0.00    -0.022 C 
BRANCH   2   3
HETATM    3  C9  UNL     1      26.848   8.891  28.949  1.00  0.00     0.189 A 
HETATM    4  N1  UNL     1      28.001   9.394  29.459  1.00  0.00    -0.335 N 
HETATM    5  C7  UNL     1      29.007   8.543  29.263  1.00  0.00     0.032 A 
ATOM      6  H1  UNL     1      28.085  10.296  29.928  1.00  0.00     0.168 HD
HETATM    7  C6  UNL     1      28.495   7.449  28.601  1.00  0.00     0.065 A 
HETATM    8  C8  UNL     1      30.423   8.719  29.671  1.00  0.00     0.070 C 
HETATM    9  N6  UNL     1      27.171   7.714  28.434  1.00  0.00    -0.202 N 
BRANCH   7  10
HETATM   10  C5  UNL     1      29.236   6.240  28.166  1.00  0.00     0.062 C 
BRANCH  10  11
HETATM   11  C4  UNL     1      29.489   5.303  29.329  1.00  0.00     0.006 C 
BRANCH  11  12
HETATM   12  C3  UNL     1      30.876   4.706  29.242  1.00  0.00     0.000 C 
BRANCH  12  13
HETATM   13  C2  UNL     1      31.678   5.439  28.187  1.00  0.00    -0.005 C 
HETATM   14  C1  UNL     1      33.027   4.779  27.994  1.00  0.00     0.005 C 
ENDBRANCH  12  13
ENDBRANCH  11  12
ENDBRANCH  10  11
ENDBRANCH   7  10
BRANCH   9  15
HETATM   15  O1  UNL     1      26.289   6.864  27.810  1.00  0.00    -0.281 OA
ATOM     16  H1  UNL     1      26.550   6.133  27.264  1.00  0.00     0.245 HD
ENDBRANCH   9  15
ENDBRANCH   2   3
ENDBRANCH   1   2
BRANCH   1  17
HETATM   17  C12 UNL     1      23.142  10.612  28.979  1.00  0.00     0.036 A 
HETATM   18  C13 UNL     1      22.699  11.257  30.121  1.00  0.00     0.056 A 
HETATM   19  C14 UNL     1      21.448  11.867  30.156  1.00  0.00     0.095 A 
HETATM   20  N2  UNL     1      20.750  12.551  31.081  1.00  0.00    -0.188 N 
HETATM   21  C16 UNL     1      20.656  11.819  29.040  1.00  0.00     0.150 A 
HETATM   22  C15 UNL     1      19.552  12.923  30.560  1.00  0.00     0.678 A 
ATOM     23  H2  UNL     1      21.071  12.758  32.027  1.00  0.00     0.184 HD
HETATM   24  N4  UNL     1      19.491  12.471  29.296  1.00  0.00    -0.174 N 
ATOM     25  H4  UNL     1      18.713  12.595  28.647  1.00  0.00     0.186 HD
HETATM   26  N5  UNL     1      21.071  11.202  27.938  1.00  0.00    -0.344 N 
HETATM   27  C17 UNL     1      20.204  11.168  26.765  1.00  0.00     0.157 C 
HETATM   28  C18 UNL     1      22.279  10.614  27.904  1.00  0.00     0.112 A 
BRANCH  22  29
HETATM   29  N3  UNL     1      18.618  13.602  31.173  1.00  0.00    -0.234 N 
ATOM     30  H32 UNL     1      18.274  13.422  32.117  1.00  0.00     0.174 HD
ATOM     31  H31 UNL     1      18.106  14.400  30.798  1.00  0.00     0.174 HD
ENDBRANCH  22  29
ENDBRANCH   1  17
TORSDOF 9
ENDMDL
