MODEL 1
REMARK VINA RESULT: -5.847220020      0.000      0.000
REMARK  10 active torsions:
REMARK  status: ('A' for Active; 'I' for Inactive)
REMARK    1  A    between atoms: N1_2  and  S1_4 
REMARK    2  A    between atoms: S1_4  and  N2_6 
REMARK    3  A    between atoms: S1_4  and  C9_19 
REMARK    4  A    between atoms: N2_6  and  C2_8 
REMARK    5  A    between atoms: C2_8  and  C3_9 
REMARK    6  A    between atoms: C3_9  and  C4_10 
REMARK    7  A    between atoms: C4_10  and  C5_11 
REMARK    8  A    between atoms: C5_11  and  C6_12 
REMARK    9  A    between atoms: C6_12  and  C7_13 
REMARK   10  A    between atoms: C7_13  and  N3_14 
ROOT
HETATM    1  S1  UNL     1      40.340  20.930  37.109  1.00  0.00     0.137 S 
HETATM    2  O1  UNL     1      39.863  21.194  35.662  1.00  0.00    -0.223 OA
ENDROOT
BRANCH   1   3
HETATM    3  N1  UNL     1      40.122  22.303  37.838  1.00  0.00    -0.336 N 
HETATM    4  C1  UNL     1      40.706  23.491  37.310  1.00  0.00     0.158 C 
ATOM      5  H1  UNL     1      39.561  22.345  38.690  1.00  0.00     0.170 HD
ENDBRANCH   1   3
BRANCH   1   6
HETATM    6  N2  UNL     1      41.989  20.653  37.004  1.00  0.00    -0.332 N 
ATOM      7  H2  UNL     1      42.603  20.820  37.801  1.00  0.00     0.170 HD
BRANCH   6   8
HETATM    8  C2  UNL     1      42.513  20.170  35.746  1.00  0.00     0.131 C 
BRANCH   8   9
HETATM    9  C3  UNL     1      43.842  20.800  35.472  1.00  0.00     0.020 C 
BRANCH   9  10
HETATM   10  C4  UNL     1      43.969  22.231  35.288  1.00  0.00     0.002 C 
BRANCH  10  11
HETATM   11  C5  UNL     1      45.415  22.731  35.247  1.00  0.00     0.005 C 
BRANCH  11  12
HETATM   12  C6  UNL     1      46.163  21.815  34.292  1.00  0.00     0.044 C 
BRANCH  12  13
HETATM   13  C7  UNL     1      46.078  22.079  32.869  1.00  0.00     0.063 C 
BRANCH  13  14
HETATM   14  N3  UNL     1      46.935  23.090  32.280  1.00  0.00    -0.347 N 
HETATM   15  C8  UNL     1      46.355  24.112  31.693  1.00  0.00     0.200 C 
HETATM   16  N4  UNL     1      47.101  25.131  31.096  1.00  0.00    -0.067 NA
HETATM   17  N5  UNL     1      44.920  24.112  31.693  1.00  0.00    -0.067 NA
ATOM     18  H3  UNL     1      47.951  23.010  32.320  1.00  0.00     0.167 HD
ENDBRANCH  13  14
ENDBRANCH  12  13
ENDBRANCH  11  12
ENDBRANCH  10  11
ENDBRANCH   9  10
ENDBRANCH   8   9
ENDBRANCH   6   8
ENDBRANCH   1   6
BRANCH   1  19
HETATM   19  C9  UNL     1      39.280  19.778  37.782  1.00  0.00     0.097 A 
HETATM   20  C10 UNL     1      37.919  19.728  37.442  1.00  0.00     0.058 A 
HETATM   21 CL1  UNL     1      37.272  20.899  36.320  1.00  0.00    -0.083 Cl
HETATM   22  C11 UNL     1      37.103  18.758  37.960  1.00  0.00     0.049 A 
HETATM   23  C12 UNL     1      37.552  17.789  38.835  1.00  0.00     0.037 A 
HETATM   24 CL2  UNL     1      36.491  16.551  39.490  1.00  0.00    -0.084 Cl
HETATM   25  C13 UNL     1      38.861  17.820  39.174  1.00  0.00     0.044 A 
HETATM   26  C14 UNL     1      39.712  18.806  38.649  1.00  0.00     0.036 A 
HETATM   27 BR1  UNL     1      41.553  18.664  39.193  1.00  0.00    -0.049 Br
ENDBRANCH   1  19
TORSDOF 10
ENDMDL
MODEL 2
REMARK VINA RESULT: -5.835605182      1.702      1.979
REMARK  10 active torsions:
REMARK  status: ('A' for Active; 'I' for Inactive)
REMARK    1  A    between atoms: N1_2  and  S1_4 
REMARK    2  A    between atoms: S1_4  and  N2_6 
REMARK    3  A    between atoms: S1_4  and  C9_19 
REMARK    4  A    between atoms: N2_6  and  C2_8 
REMARK    5  A    between atoms: C2_8  and  C3_9 
REMARK    6  A    between atoms: C3_9  and  C4_10 
REMARK    7  A    between atoms: C4_10  and  C5_11 
REMARK    8  A    between atoms: C5_11  and  C6_12 
REMARK    9  A    between atoms: C6_12  and  C7_13 
REMARK   10  A    between atoms: C7_13  and  N3_14 
ROOT
HETATM    1  S1  UNL     1      40.356  20.975  37.003  1.00  0.00     0.137 S 
HETATM    2  O1  UNL     1      40.019  21.065  35.496  1.00  0.00    -0.223 OA
ENDROOT
BRANCH   1   3
HETATM    3  N1  UNL     1      39.767  22.299  37.605  1.00  0.00    -0.336 N 
HETATM    4  C1  UNL     1      40.639  23.364  37.973  1.00  0.00     0.158 C 
ATOM      5  H1  UNL     1      38.759  22.397  37.733  1.00  0.00     0.170 HD
ENDBRANCH   1   3
BRANCH   1   6
HETATM    6  N2  UNL     1      42.027  21.055  37.102  1.00  0.00    -0.332 N 
ATOM      7  H2  UNL     1      42.498  21.137  38.003  1.00  0.00     0.170 HD
BRANCH   6   8
HETATM    8  C2  UNL     1      42.779  21.005  35.869  1.00  0.00     0.131 C 
BRANCH   8   9
HETATM    9  C3  UNL     1      43.303  22.366  35.535  1.00  0.00     0.020 C 
BRANCH   9  10
HETATM   10  C4  UNL     1      44.697  22.570  35.198  1.00  0.00     0.002 C 
BRANCH  10  11
HETATM   11  C5  UNL     1      45.555  21.306  35.294  1.00  0.00     0.005 C 
BRANCH  11  12
HETATM   12  C6  UNL     1      46.590  21.400  34.184  1.00  0.00     0.044 C 
BRANCH  12  13
HETATM   13  C7  UNL     1      46.185  21.941  32.902  1.00  0.00     0.063 C 
BRANCH  13  14
HETATM   14  N3  UNL     1      47.005  22.955  32.267  1.00  0.00    -0.347 N 
HETATM   15  C8  UNL     1      46.390  23.983  31.726  1.00  0.00     0.200 C 
HETATM   16  N4  UNL     1      47.098  25.005  31.091  1.00  0.00    -0.067 NA
HETATM   17  N5  UNL     1      44.958  23.985  31.819  1.00  0.00    -0.067 NA
ATOM     18  H3  UNL     1      48.021  22.874  32.241  1.00  0.00     0.167 HD
ENDBRANCH  13  14
ENDBRANCH  12  13
ENDBRANCH  11  12
ENDBRANCH  10  11
ENDBRANCH   9  10
ENDBRANCH   8   9
ENDBRANCH   6   8
ENDBRANCH   1   6
BRANCH   1  19
HETATM   19  C9  UNL     1      39.485  19.651  37.631  1.00  0.00     0.097 A 
HETATM   20  C10 UNL     1      40.061  18.739  38.529  1.00  0.00     0.058 A 
HETATM   21 CL1  UNL     1      41.731  18.935  38.999  1.00  0.00    -0.083 Cl
HETATM   22  C11 UNL     1      39.321  17.714  39.056  1.00  0.00     0.049 A 
HETATM   23  C12 UNL     1      37.990  17.512  38.745  1.00  0.00     0.037 A 
HETATM   24 CL2  UNL     1      37.055  16.193  39.433  1.00  0.00    -0.084 Cl
HETATM   25  C13 UNL     1      37.418  18.383  37.883  1.00  0.00     0.044 A 
HETATM   26  C14 UNL     1      38.162  19.440  37.335  1.00  0.00     0.036 A 
HETATM   27 BR1  UNL     1      37.172  20.614  36.173  1.00  0.00    -0.049 Br
ENDBRANCH   1  19
TORSDOF 10
ENDMDL
MODEL 3
REMARK VINA RESULT: -5.831557496      6.030      9.980
REMARK  10 active torsions:
REMARK  status: ('A' for Active; 'I' for Inactive)
REMARK    1  A    between atoms: N1_2  and  S1_4 
REMARK    2  A    between atoms: S1_4  and  N2_6 
REMARK    3  A    between atoms: S1_4  and  C9_19 
REMARK    4  A    between atoms: N2_6  and  C2_8 
REMARK    5  A    between atoms: C2_8  and  C3_9 
REMARK    6  A    between atoms: C3_9  and  C4_10 
REMARK    7  A    between atoms: C4_10  and  C5_11 
REMARK    8  A    between atoms: C5_11  and  C6_12 
REMARK    9  A    between atoms: C6_12  and  C7_13 
REMARK   10  A    between atoms: C7_13  and  N3_14 
ROOT
HETATM    1  S1  UNL     1      38.857  17.646  38.288  1.00  0.00     0.137 S 
HETATM    2  O1  UNL     1      38.693  16.986  36.899  1.00  0.00    -0.223 OA
ENDROOT
BRANCH   1   3
HETATM    3  N1  UNL     1      40.038  16.852  38.950  1.00  0.00    -0.336 N 
HETATM    4  C1  UNL     1      40.359  15.541  38.495  1.00  0.00     0.158 C 
ATOM      5  H1  UNL     1      40.575  17.275  39.707  1.00  0.00     0.170 HD
ENDBRANCH   1   3
BRANCH   1   6
HETATM    6  N2  UNL     1      37.453  17.289  39.131  1.00  0.00    -0.332 N 
ATOM      7  H2  UNL     1      36.912  16.450  38.922  1.00  0.00     0.170 HD
BRANCH   6   8
HETATM    8  C2  UNL     1      37.034  18.209  40.164  1.00  0.00     0.131 C 
BRANCH   8   9
HETATM    9  C3  UNL     1      35.542  18.210  40.272  1.00  0.00     0.020 C 
BRANCH   9  10
HETATM   10  C4  UNL     1      34.882  17.935  41.532  1.00  0.00     0.002 C 
BRANCH  10  11
HETATM   11  C5  UNL     1      35.693  17.051  42.484  1.00  0.00     0.005 C 
BRANCH  11  12
HETATM   12  C6  UNL     1      35.014  15.691  42.497  1.00  0.00     0.044 C 
BRANCH  12  13
HETATM   13  C7  UNL     1      35.484  14.673  41.579  1.00  0.00     0.063 C 
BRANCH  13  14
HETATM   14  N3  UNL     1      36.767  14.038  41.817  1.00  0.00    -0.347 N 
HETATM   15  C8  UNL     1      37.557  13.857  40.783  1.00  0.00     0.200 C 
HETATM   16  N4  UNL     1      38.808  13.252  40.917  1.00  0.00    -0.067 NA
HETATM   17  N5  UNL     1      37.054  14.306  39.516  1.00  0.00    -0.067 NA
ATOM     18  H3  UNL     1      37.045  13.744  42.753  1.00  0.00     0.167 HD
ENDBRANCH  13  14
ENDBRANCH  12  13
ENDBRANCH  11  12
ENDBRANCH  10  11
ENDBRANCH   9  10
ENDBRANCH   8   9
ENDBRANCH   6   8
ENDBRANCH   1   6
BRANCH   1  19
HETATM   19  C9  UNL     1      39.357  19.253  38.023  1.00  0.00     0.097 A 
HETATM   20  C10 UNL     1      40.596  19.733  38.476  1.00  0.00     0.058 A 
HETATM   21 CL1  UNL     1      41.653  18.669  39.371  1.00  0.00    -0.083 Cl
HETATM   22  C11 UNL     1      40.992  21.015  38.203  1.00  0.00     0.049 A 
HETATM   23  C12 UNL     1      40.216  21.903  37.484  1.00  0.00     0.037 A 
HETATM   24 CL2  UNL     1      40.741  23.544  37.141  1.00  0.00    -0.084 Cl
HETATM   25  C13 UNL     1      39.020  21.458  37.037  1.00  0.00     0.044 A 
HETATM   26  C14 UNL     1      38.600  20.145  37.306  1.00  0.00     0.036 A 
HETATM   27 BR1  UNL     1      36.898  19.664  36.546  1.00  0.00    -0.049 Br
ENDBRANCH   1  19
TORSDOF 10
ENDMDL
MODEL 4
REMARK VINA RESULT: -5.803790323      6.022      9.831
REMARK  10 active torsions:
REMARK  status: ('A' for Active; 'I' for Inactive)
REMARK    1  A    between atoms: N1_2  and  S1_4 
REMARK    2  A    between atoms: S1_4  and  N2_6 
REMARK    3  A    between atoms: S1_4  and  C9_19 
REMARK    4  A    between atoms: N2_6  and  C2_8 
REMARK    5  A    between atoms: C2_8  and  C3_9 
REMARK    6  A    between atoms: C3_9  and  C4_10 
REMARK    7  A    between atoms: C4_10  and  C5_11 
REMARK    8  A    between atoms: C5_11  and  C6_12 
REMARK    9  A    between atoms: C6_12  and  C7_13 
REMARK   10  A    between atoms: C7_13  and  N3_14 
ROOT
HETATM    1  S1  UNL     1      38.270  17.456  38.206  1.00  0.00     0.137 S 
HETATM    2  O1  UNL     1      37.547  17.038  36.905  1.00  0.00    -0.223 OA
ENDROOT
BRANCH   1   3
HETATM    3  N1  UNL     1      39.474  16.455  38.311  1.00  0.00    -0.336 N 
HETATM    4  C1  UNL     1      39.714  15.516  37.266  1.00  0.00     0.158 C 
ATOM      5  H1  UNL     1      40.085  16.476  39.127  1.00  0.00     0.170 HD
ENDBRANCH   1   3
BRANCH   1   6
HETATM    6  N2  UNL     1      37.201  17.117  39.451  1.00  0.00    -0.332 N 
ATOM      7  H2  UNL     1      36.868  16.167  39.616  1.00  0.00     0.170 HD
BRANCH   6   8
HETATM    8  C2  UNL     1      36.768  18.215  40.286  1.00  0.00     0.131 C 
BRANCH   8   9
HETATM    9  C3  UNL     1      35.308  18.082  40.586  1.00  0.00     0.020 C 
BRANCH   9  10
HETATM   10  C4  UNL     1      34.844  17.751  41.917  1.00  0.00     0.002 C 
BRANCH  10  11
HETATM   11  C5  UNL     1      35.716  16.725  42.646  1.00  0.00     0.005 C 
BRANCH  11  12
HETATM   12  C6  UNL     1      35.060  15.370  42.434  1.00  0.00     0.044 C 
BRANCH  12  13
HETATM   13  C7  UNL     1      35.647  14.459  41.472  1.00  0.00     0.063 C 
BRANCH  13  14
HETATM   14  N3  UNL     1      36.964  13.907  41.726  1.00  0.00    -0.347 N 
HETATM   15  C8  UNL     1      37.764  13.742  40.696  1.00  0.00     0.200 C 
HETATM   16  N4  UNL     1      39.048  13.215  40.847  1.00  0.00    -0.067 NA
HETATM   17  N5  UNL     1      37.236  14.124  39.418  1.00  0.00    -0.067 NA
ATOM     18  H3  UNL     1      37.259  13.657  42.670  1.00  0.00     0.167 HD
ENDBRANCH  13  14
ENDBRANCH  12  13
ENDBRANCH  11  12
ENDBRANCH  10  11
ENDBRANCH   9  10
ENDBRANCH   8   9
ENDBRANCH   6   8
ENDBRANCH   1   6
BRANCH   1  19
HETATM   19  C9  UNL     1      38.883  19.026  37.955  1.00  0.00     0.097 A 
HETATM   20  C10 UNL     1      38.143  20.018  37.292  1.00  0.00     0.058 A 
HETATM   21 CL1  UNL     1      36.557  19.633  36.669  1.00  0.00    -0.083 Cl
HETATM   22  C11 UNL     1      38.641  21.285  37.150  1.00  0.00     0.049 A 
HETATM   23  C12 UNL     1      39.878  21.664  37.635  1.00  0.00     0.037 A 
HETATM   24 CL2  UNL     1      40.501  23.295  37.446  1.00  0.00    -0.084 Cl
HETATM   25  C13 UNL     1      40.604  20.722  38.279  1.00  0.00     0.044 A 
HETATM   26  C14 UNL     1      40.107  19.418  38.435  1.00  0.00     0.036 A 
HETATM   27 BR1  UNL     1      41.249  18.226  39.425  1.00  0.00    -0.049 Br
ENDBRANCH   1  19
TORSDOF 10
ENDMDL
MODEL 5
REMARK VINA RESULT: -5.764138352      4.377      8.561
REMARK  10 active torsions:
REMARK  status: ('A' for Active; 'I' for Inactive)
REMARK    1  A    between atoms: N1_2  and  S1_4 
REMARK    2  A    between atoms: S1_4  and  N2_6 
REMARK    3  A    between atoms: S1_4  and  C9_19 
REMARK    4  A    between atoms: N2_6  and  C2_8 
REMARK    5  A    between atoms: C2_8  and  C3_9 
REMARK    6  A    between atoms: C3_9  and  C4_10 
REMARK    7  A    between atoms: C4_10  and  C5_11 
REMARK    8  A    between atoms: C5_11  and  C6_12 
REMARK    9  A    between atoms: C6_12  and  C7_13 
REMARK   10  A    between atoms: C7_13  and  N3_14 
ROOT
HETATM    1  S1  UNL     1      41.240  21.183  37.537  1.00  0.00     0.137 S 
HETATM    2  O1  UNL     1      42.711  21.529  37.210  1.00  0.00    -0.223 OA
ENDROOT
BRANCH   1   3
HETATM    3  N1  UNL     1      40.595  22.566  37.903  1.00  0.00    -0.336 N 
HETATM    4  C1  UNL     1      40.908  23.725  37.134  1.00  0.00     0.158 C 
ATOM      5  H1  UNL     1      39.951  22.636  38.691  1.00  0.00     0.170 HD
ENDBRANCH   1   3
BRANCH   1   6
HETATM    6  N2  UNL     1      41.288  20.247  38.926  1.00  0.00    -0.332 N 
ATOM      7  H2  UNL     1      41.334  20.678  39.850  1.00  0.00     0.170 HD
BRANCH   6   8
HETATM    8  C2  UNL     1      41.262  18.810  38.773  1.00  0.00     0.131 C 
BRANCH   8   9
HETATM    9  C3  UNL     1      39.940  18.273  39.223  1.00  0.00     0.020 C 
BRANCH   9  10
HETATM   10  C4  UNL     1      39.115  17.476  38.338  1.00  0.00     0.002 C 
BRANCH  10  11
HETATM   11  C5  UNL     1      37.760  17.083  38.932  1.00  0.00     0.005 C 
BRANCH  11  12
HETATM   12  C6  UNL     1      37.305  18.254  39.788  1.00  0.00     0.044 C 
BRANCH  12  13
HETATM   13  C7  UNL     1      36.075  18.123  40.544  1.00  0.00     0.063 C 
BRANCH  13  14
HETATM   14  N3  UNL     1      34.915  18.903  40.155  1.00  0.00    -0.347 N 
HETATM   15  C8  UNL     1      33.843  18.248  39.771  1.00  0.00     0.200 C 
HETATM   16  N4  UNL     1      32.682  18.916  39.376  1.00  0.00    -0.067 NA
HETATM   17  N5  UNL     1      33.941  16.816  39.771  1.00  0.00    -0.067 NA
ATOM     18  H3  UNL     1      34.931  19.922  40.180  1.00  0.00     0.167 HD
ENDBRANCH  13  14
ENDBRANCH  12  13
ENDBRANCH  11  12
ENDBRANCH  10  11
ENDBRANCH   9  10
ENDBRANCH   8   9
ENDBRANCH   6   8
ENDBRANCH   1   6
BRANCH   1  19
HETATM   19  C9  UNL     1      40.530  20.611  36.097  1.00  0.00     0.097 A 
HETATM   20  C10 UNL     1      39.142  20.442  35.966  1.00  0.00     0.058 A 
HETATM   21 CL1  UNL     1      38.103  20.793  37.324  1.00  0.00    -0.083 Cl
HETATM   22  C11 UNL     1      38.597  20.028  34.780  1.00  0.00     0.049 A 
HETATM   23  C12 UNL     1      39.357  19.753  33.660  1.00  0.00     0.037 A 
HETATM   24 CL2  UNL     1      38.640  19.226  32.145  1.00  0.00    -0.084 Cl
HETATM   25  C13 UNL     1      40.695  19.913  33.767  1.00  0.00     0.044 A 
HETATM   26  C14 UNL     1      41.271  20.338  34.975  1.00  0.00     0.036 A 
HETATM   27 BR1  UNL     1      43.182  20.566  34.930  1.00  0.00    -0.049 Br
ENDBRANCH   1  19
TORSDOF 10
ENDMDL
