MODEL 1
REMARK VINA RESULT: -7.126984703      0.000      0.000
REMARK  11 active torsions:
REMARK  status: ('A' for Active; 'I' for Inactive)
REMARK    1  A    between atoms: N1_1  and  N2_4 
REMARK    2  A    between atoms: N2_4  and  N3_6 
REMARK    3  A    between atoms: N3_6  and  C1_8 
REMARK    4  A    between atoms: C1_8  and  C2_9 
REMARK    5  A    between atoms: C4_12  and  O1_13 
REMARK    6  A    between atoms: O1_13  and  C5_14 
REMARK    7  A    between atoms: C5_14  and  C6_15 
REMARK    8  A    between atoms: C12_21  and  O2_22 
REMARK    9  A    between atoms: O2_22  and  C13_23 
REMARK   10  A    between atoms: C13_23  and  C14_24 
REMARK   11  A    between atoms: C20_31  and  O3_32 
ROOT
HETATM    1  C1  UNL     1      40.829  19.645  37.886  1.00  0.00     0.081 C 
HETATM    2  C3  UNL     1      39.595  18.924  38.383  1.00  0.00     0.070 C 
HETATM    3  C4  UNL     1      38.321  19.653  37.990  1.00  0.00     0.155 C 
HETATM    4  C12 UNL     1      38.330  19.808  36.501  1.00  0.00     0.181 C 
HETATM    5  C20 UNL     1      39.469  20.709  36.061  1.00  0.00     0.170 C 
HETATM    6  C21 UNL     1      40.744  19.972  36.420  1.00  0.00     0.144 C 
HETATM    7 CL2  UNL     1      40.757  18.463  35.486  1.00  0.00    -0.119 Cl
ENDROOT
BRANCH   1   8
HETATM    8  N3  UNL     1      41.139  20.805  38.689  1.00  0.00    -0.310 N 
ATOM      9  H3  UNL     1      40.881  20.806  39.676  1.00  0.00     0.182 HD
BRANCH   8  10
HETATM   10  N2  UNL     1      41.777  21.919  38.159  1.00  0.00    -0.253 N 
ATOM     11  H2  UNL     1      42.543  21.784  37.499  1.00  0.00     0.207 HD
BRANCH  10  12
HETATM   12  N1  UNL     1      41.430  23.119  38.477  1.00  0.00    -0.331 N 
ATOM     13  H12 UNL     1      41.515  23.400  39.454  1.00  0.00     0.178 HD
ATOM     14  H11 UNL     1      41.080  23.781  37.784  1.00  0.00     0.178 HD
ENDBRANCH  10  12
ENDBRANCH   8  10
ENDBRANCH   1   8
BRANCH   1  15
HETATM   15  C2  UNL     1      41.989  18.670  38.050  1.00  0.00     0.148 C 
HETATM   16 CL1  UNL     1      41.932  17.834  39.616  1.00  0.00    -0.128 Cl
ENDBRANCH   1  15
BRANCH   3  17
HETATM   17  O1  UNL     1      37.245  18.837  38.322  1.00  0.00    -0.379 OA
BRANCH  17  18
HETATM   18  C5  UNL     1      37.428  18.171  39.528  1.00  0.00     0.207 C 
BRANCH  18  19
HETATM   19  C6  UNL     1      36.084  18.008  40.143  1.00  0.00    -0.035 A 
HETATM   20  C7  UNL     1      34.959  18.213  39.371  1.00  0.00     0.009 A 
HETATM   21  C8  UNL     1      33.698  18.059  39.953  1.00  0.00     0.001 A 
HETATM   22  C9  UNL     1      33.531  17.710  41.270  1.00  0.00     0.000 A 
HETATM   23  C10 UNL     1      34.668  17.504  42.045  1.00  0.00     0.001 A 
HETATM   24  C11 UNL     1      35.902  17.658  41.461  1.00  0.00     0.009 A 
ENDBRANCH  18  19
ENDBRANCH  17  18
ENDBRANCH   3  17
BRANCH   5  25
HETATM   25  O3  UNL     1      39.398  21.970  36.582  1.00  0.00    -0.391 OA
ATOM     26  H3  UNL     1      39.991  22.585  36.167  1.00  0.00     0.210 HD
ENDBRANCH   5  25
BRANCH   4  27
HETATM   27  O2  UNL     1      37.132  20.125  35.939  1.00  0.00    -0.376 OA
BRANCH  27  28
HETATM   28  C13 UNL     1      36.821  19.440  34.781  1.00  0.00     0.210 C 
BRANCH  28  29
HETATM   29  C14 UNL     1      36.821  20.362  33.615  1.00  0.00     0.004 A 
HETATM   30  C15 UNL     1      35.812  21.299  33.476  1.00  0.00     0.012 A 
HETATM   31  C16 UNL     1      35.758  22.182  32.415  1.00  0.00     0.001 A 
HETATM   32  C17 UNL     1      36.736  22.149  31.441  1.00  0.00     0.003 A 
HETATM   33  C18 UNL     1      37.741  21.213  31.584  1.00  0.00     0.043 A 
HETATM   34  C19 UNL     1      37.793  20.332  32.644  1.00  0.00     0.124 A 
HETATM   35  F1  UNL     1      38.779  19.414  32.782  1.00  0.00    -0.205 F 
ENDBRANCH  28  29
ENDBRANCH  27  28
ENDBRANCH   4  27
TORSDOF 11
ENDMDL
MODEL 2
REMARK VINA RESULT: -7.123138044      3.109      5.983
REMARK  11 active torsions:
REMARK  status: ('A' for Active; 'I' for Inactive)
REMARK    1  A    between atoms: N1_1  and  N2_4 
REMARK    2  A    between atoms: N2_4  and  N3_6 
REMARK    3  A    between atoms: N3_6  and  C1_8 
REMARK    4  A    between atoms: C1_8  and  C2_9 
REMARK    5  A    between atoms: C4_12  and  O1_13 
REMARK    6  A    between atoms: O1_13  and  C5_14 
REMARK    7  A    between atoms: C5_14  and  C6_15 
REMARK    8  A    between atoms: C12_21  and  O2_22 
REMARK    9  A    between atoms: O2_22  and  C13_23 
REMARK   10  A    between atoms: C13_23  and  C14_24 
REMARK   11  A    between atoms: C20_31  and  O3_32 
ROOT
HETATM    1  C1  UNL     1      41.671  20.720  36.773  1.00  0.00     0.081 C 
HETATM    2  C3  UNL     1      41.753  19.576  37.761  1.00  0.00     0.070 C 
HETATM    3  C4  UNL     1      40.608  19.613  38.760  1.00  0.00     0.155 C 
HETATM    4  C12 UNL     1      39.329  19.605  37.982  1.00  0.00     0.181 C 
HETATM    5  C20 UNL     1      39.193  20.872  37.157  1.00  0.00     0.170 C 
HETATM    6  C21 UNL     1      40.312  20.824  36.136  1.00  0.00     0.144 C 
HETATM    7 CL2  UNL     1      40.035  19.396  35.120  1.00  0.00    -0.119 Cl
ENDROOT
BRANCH   1   8
HETATM    8  N3  UNL     1      42.102  21.969  37.355  1.00  0.00    -0.310 N 
ATOM      9  H3  UNL     1      42.629  21.953  38.227  1.00  0.00     0.182 HD
BRANCH   8  10
HETATM   10  N2  UNL     1      41.819  23.194  36.763  1.00  0.00    -0.253 N 
ATOM     11  H2  UNL     1      41.932  23.294  35.754  1.00  0.00     0.207 HD
BRANCH  10  12
HETATM   12  N1  UNL     1      41.417  24.208  37.451  1.00  0.00    -0.331 N 
ATOM     13  H12 UNL     1      41.553  24.185  38.462  1.00  0.00     0.178 HD
ATOM     14  H11 UNL     1      40.976  25.017  37.013  1.00  0.00     0.178 HD
ENDBRANCH  10  12
ENDBRANCH   8  10
ENDBRANCH   1   8
BRANCH   1  15
HETATM   15  C2  UNL     1      42.654  20.390  35.655  1.00  0.00     0.148 C 
HETATM   16 CL1  UNL     1      43.404  18.797  35.885  1.00  0.00    -0.128 Cl
ENDBRANCH   1  15
BRANCH   3  17
HETATM   17  O1  UNL     1      40.656  18.440  39.504  1.00  0.00    -0.379 OA
BRANCH  17  18
HETATM   18  C5  UNL     1      41.919  17.861  39.514  1.00  0.00     0.207 C 
BRANCH  18  19
HETATM   19  C6  UNL     1      41.777  16.497  38.941  1.00  0.00    -0.035 A 
HETATM   20  C7  UNL     1      42.889  15.864  38.423  1.00  0.00     0.009 A 
HETATM   21  C8  UNL     1      42.752  14.582  37.885  1.00  0.00     0.001 A 
HETATM   22  C9  UNL     1      41.550  13.921  37.849  1.00  0.00     0.000 A 
HETATM   23  C10 UNL     1      40.431  14.562  38.373  1.00  0.00     0.001 A 
HETATM   24  C11 UNL     1      40.579  15.822  38.899  1.00  0.00     0.009 A 
ENDBRANCH  18  19
ENDBRANCH  17  18
ENDBRANCH   3  17
BRANCH   5  25
HETATM   25  O3  UNL     1      39.182  22.012  37.909  1.00  0.00    -0.391 OA
ATOM     26  H3  UNL     1      39.166  22.807  37.389  1.00  0.00     0.210 HD
ENDBRANCH   5  25
BRANCH   4  27
HETATM   27  O2  UNL     1      38.213  19.293  38.695  1.00  0.00    -0.376 OA
BRANCH  27  28
HETATM   28  C13 UNL     1      37.520  18.182  38.256  1.00  0.00     0.210 C 
BRANCH  28  29
HETATM   29  C14 UNL     1      36.895  17.472  39.403  1.00  0.00     0.004 A 
HETATM   30  C15 UNL     1      36.407  18.193  40.479  1.00  0.00     0.012 A 
HETATM   31  C16 UNL     1      35.817  17.590  41.572  1.00  0.00     0.001 A 
HETATM   32  C17 UNL     1      35.697  16.215  41.619  1.00  0.00     0.003 A 
HETATM   33  C18 UNL     1      36.185  15.500  40.544  1.00  0.00     0.043 A 
HETATM   34  C19 UNL     1      36.775  16.104  39.453  1.00  0.00     0.124 A 
HETATM   35  F1  UNL     1      37.253  15.400  38.399  1.00  0.00    -0.205 F 
ENDBRANCH  28  29
ENDBRANCH  27  28
ENDBRANCH   4  27
TORSDOF 11
ENDMDL
MODEL 3
REMARK VINA RESULT: -7.030008683      3.601      6.337
REMARK  11 active torsions:
REMARK  status: ('A' for Active; 'I' for Inactive)
REMARK    1  A    between atoms: N1_1  and  N2_4 
REMARK    2  A    between atoms: N2_4  and  N3_6 
REMARK    3  A    between atoms: N3_6  and  C1_8 
REMARK    4  A    between atoms: C1_8  and  C2_9 
REMARK    5  A    between atoms: C4_12  and  O1_13 
REMARK    6  A    between atoms: O1_13  and  C5_14 
REMARK    7  A    between atoms: C5_14  and  C6_15 
REMARK    8  A    between atoms: C12_21  and  O2_22 
REMARK    9  A    between atoms: O2_22  and  C13_23 
REMARK   10  A    between atoms: C13_23  and  C14_24 
REMARK   11  A    between atoms: C20_31  and  O3_32 
ROOT
HETATM    1  C1  UNL     1      40.711  21.192  36.978  1.00  0.00     0.081 C 
HETATM    2  C3  UNL     1      41.169  19.999  37.788  1.00  0.00     0.070 C 
HETATM    3  C4  UNL     1      40.019  19.362  38.552  1.00  0.00     0.155 C 
HETATM    4  C12 UNL     1      38.960  19.003  37.555  1.00  0.00     0.181 C 
HETATM    5  C20 UNL     1      38.383  20.251  36.911  1.00  0.00     0.170 C 
HETATM    6  C21 UNL     1      39.518  20.872  36.121  1.00  0.00     0.144 C 
HETATM    7 CL2  UNL     1      39.993  19.701  34.876  1.00  0.00    -0.119 Cl
ENDROOT
BRANCH   1   8
HETATM    8  N3  UNL     1      40.496  22.357  37.805  1.00  0.00    -0.310 N 
ATOM      9  H3  UNL     1      39.576  22.795  37.812  1.00  0.00     0.182 HD
BRANCH   8  10
HETATM   10  N2  UNL     1      41.506  22.900  38.591  1.00  0.00    -0.253 N 
ATOM     11  H2  UNL     1      42.293  22.311  38.861  1.00  0.00     0.207 HD
BRANCH  10  12
HETATM   12  N1  UNL     1      41.476  24.126  38.988  1.00  0.00    -0.331 N 
ATOM     13  H12 UNL     1      41.219  24.310  39.958  1.00  0.00     0.178 HD
ATOM     14  H11 UNL     1      41.701  24.901  38.364  1.00  0.00     0.178 HD
ENDBRANCH  10  12
ENDBRANCH   8  10
ENDBRANCH   1   8
BRANCH   1  15
HETATM   15  C2  UNL     1      41.856  21.528  36.028  1.00  0.00     0.148 C 
HETATM   16 CL1  UNL     1      43.096  20.258  36.014  1.00  0.00    -0.128 Cl
ENDBRANCH   1  15
BRANCH   3  17
HETATM   17  O1  UNL     1      40.486  18.180  39.114  1.00  0.00    -0.379 OA
BRANCH  17  18
HETATM   18  C5  UNL     1      41.807  18.270  39.536  1.00  0.00     0.207 C 
BRANCH  18  19
HETATM   19  C6  UNL     1      42.516  17.076  39.006  1.00  0.00    -0.035 A 
HETATM   20  C7  UNL     1      42.740  16.000  39.840  1.00  0.00     0.009 A 
HETATM   21  C8  UNL     1      43.408  14.879  39.339  1.00  0.00     0.001 A 
HETATM   22  C9  UNL     1      43.854  14.805  38.043  1.00  0.00     0.000 A 
HETATM   23  C10 UNL     1      43.627  15.893  37.206  1.00  0.00     0.001 A 
HETATM   24  C11 UNL     1      42.969  16.988  37.710  1.00  0.00     0.009 A 
ENDBRANCH  18  19
ENDBRANCH  17  18
ENDBRANCH   3  17
BRANCH   5  25
HETATM   25  O3  UNL     1      37.802  21.105  37.804  1.00  0.00    -0.391 OA
ATOM     26  H3  UNL     1      37.677  21.982  37.462  1.00  0.00     0.210 HD
ENDBRANCH   5  25
BRANCH   4  27
HETATM   27  O2  UNL     1      38.018  18.127  37.994  1.00  0.00    -0.376 OA
BRANCH  27  28
HETATM   28  C13 UNL     1      37.800  17.032  37.182  1.00  0.00     0.210 C 
BRANCH  28  29
HETATM   29  C14 UNL     1      38.584  15.863  37.662  1.00  0.00     0.004 A 
HETATM   30  C15 UNL     1      39.562  15.309  36.855  1.00  0.00     0.012 A 
HETATM   31  C16 UNL     1      40.322  14.224  37.247  1.00  0.00     0.001 A 
HETATM   32  C17 UNL     1      40.117  13.650  38.486  1.00  0.00     0.003 A 
HETATM   33  C18 UNL     1      39.141  14.206  39.287  1.00  0.00     0.043 A 
HETATM   34  C19 UNL     1      38.382  15.290  38.895  1.00  0.00     0.124 A 
HETATM   35  F1  UNL     1      37.424  15.834  39.683  1.00  0.00    -0.205 F 
ENDBRANCH  28  29
ENDBRANCH  27  28
ENDBRANCH   4  27
TORSDOF 11
ENDMDL
MODEL 4
REMARK VINA RESULT: -6.849352979      2.810      6.643
REMARK  11 active torsions:
REMARK  status: ('A' for Active; 'I' for Inactive)
REMARK    1  A    between atoms: N1_1  and  N2_4 
REMARK    2  A    between atoms: N2_4  and  N3_6 
REMARK    3  A    between atoms: N3_6  and  C1_8 
REMARK    4  A    between atoms: C1_8  and  C2_9 
REMARK    5  A    between atoms: C4_12  and  O1_13 
REMARK    6  A    between atoms: O1_13  and  C5_14 
REMARK    7  A    between atoms: C5_14  and  C6_15 
REMARK    8  A    between atoms: C12_21  and  O2_22 
REMARK    9  A    between atoms: O2_22  and  C13_23 
REMARK   10  A    between atoms: C13_23  and  C14_24 
REMARK   11  A    between atoms: C20_31  and  O3_32 
ROOT
HETATM    1  C1  UNL     1      40.287  20.392  35.969  1.00  0.00     0.081 C 
HETATM    2  C3  UNL     1      40.785  19.239  36.814  1.00  0.00     0.070 C 
HETATM    3  C4  UNL     1      40.117  19.212  38.179  1.00  0.00     0.155 C 
HETATM    4  C12 UNL     1      38.637  19.158  37.955  1.00  0.00     0.181 C 
HETATM    5  C20 UNL     1      38.148  20.429  37.286  1.00  0.00     0.170 C 
HETATM    6  C21 UNL     1      38.785  20.446  35.911  1.00  0.00     0.144 C 
HETATM    7 CL2  UNL     1      38.186  19.022  35.038  1.00  0.00    -0.119 Cl
ENDROOT
BRANCH   1   8
HETATM    8  N3  UNL     1      40.865  21.651  36.378  1.00  0.00    -0.310 N 
ATOM      9  H3  UNL     1      40.715  22.476  35.796  1.00  0.00     0.182 HD
BRANCH   8  10
HETATM   10  N2  UNL     1      41.619  21.774  37.538  1.00  0.00    -0.253 N 
ATOM     11  H2  UNL     1      42.398  21.135  37.692  1.00  0.00     0.207 HD
BRANCH  10  12
HETATM   12  N1  UNL     1      41.362  22.673  38.427  1.00  0.00    -0.331 N 
ATOM     13  H12 UNL     1      41.847  22.615  39.322  1.00  0.00     0.178 HD
ATOM     14  H11 UNL     1      40.696  23.426  38.255  1.00  0.00     0.178 HD
ENDBRANCH  10  12
ENDBRANCH   8  10
ENDBRANCH   1   8
BRANCH   1  15
HETATM   15  C2  UNL     1      40.772  20.122  34.549  1.00  0.00     0.148 C 
HETATM   16 CL1  UNL     1      41.729  18.630  34.452  1.00  0.00    -0.128 Cl
ENDBRANCH   1  15
BRANCH   3  17
HETATM   17  O1  UNL     1      40.490  18.031  38.810  1.00  0.00    -0.379 OA
BRANCH  17  18
HETATM   18  C5  UNL     1      41.726  18.125  39.437  1.00  0.00     0.207 C 
BRANCH  18  19
HETATM   19  C6  UNL     1      42.550  16.988  38.948  1.00  0.00    -0.035 A 
HETATM   20  C7  UNL     1      42.754  15.900  39.772  1.00  0.00     0.009 A 
HETATM   21  C8  UNL     1      43.530  14.833  39.309  1.00  0.00     0.001 A 
HETATM   22  C9  UNL     1      44.102  14.824  38.062  1.00  0.00     0.000 A 
HETATM   23  C10 UNL     1      43.894  15.924  37.235  1.00  0.00     0.001 A 
HETATM   24  C11 UNL     1      43.130  16.965  37.701  1.00  0.00     0.009 A 
ENDBRANCH  18  19
ENDBRANCH  17  18
ENDBRANCH   3  17
BRANCH   5  25
HETATM   25  O3  UNL     1      38.389  21.557  38.017  1.00  0.00    -0.391 OA
ATOM     26  H3  UNL     1      37.600  21.963  38.358  1.00  0.00     0.210 HD
ENDBRANCH   5  25
BRANCH   4  27
HETATM   27  O2  UNL     1      37.896  18.787  39.034  1.00  0.00    -0.376 OA
BRANCH  27  28
HETATM   28  C13 UNL     1      36.736  18.095  38.748  1.00  0.00     0.210 C 
BRANCH  28  29
HETATM   29  C14 UNL     1      36.242  17.384  39.956  1.00  0.00     0.004 A 
HETATM   30  C15 UNL     1      35.609  18.091  40.963  1.00  0.00     0.012 A 
HETATM   31  C16 UNL     1      35.130  17.486  42.109  1.00  0.00     0.001 A 
HETATM   32  C17 UNL     1      35.276  16.124  42.282  1.00  0.00     0.003 A 
HETATM   33  C18 UNL     1      35.907  15.422  41.275  1.00  0.00     0.043 A 
HETATM   34  C19 UNL     1      36.386  16.028  40.131  1.00  0.00     0.124 A 
HETATM   35  F1  UNL     1      37.006  15.337  39.145  1.00  0.00    -0.205 F 
ENDBRANCH  28  29
ENDBRANCH  27  28
ENDBRANCH   4  27
TORSDOF 11
ENDMDL
MODEL 5
REMARK VINA RESULT: -6.802849175      4.763      6.424
REMARK  11 active torsions:
REMARK  status: ('A' for Active; 'I' for Inactive)
REMARK    1  A    between atoms: N1_1  and  N2_4 
REMARK    2  A    between atoms: N2_4  and  N3_6 
REMARK    3  A    between atoms: N3_6  and  C1_8 
REMARK    4  A    between atoms: C1_8  and  C2_9 
REMARK    5  A    between atoms: C4_12  and  O1_13 
REMARK    6  A    between atoms: O1_13  and  C5_14 
REMARK    7  A    between atoms: C5_14  and  C6_15 
REMARK    8  A    between atoms: C12_21  and  O2_22 
REMARK    9  A    between atoms: O2_22  and  C13_23 
REMARK   10  A    between atoms: C13_23  and  C14_24 
REMARK   11  A    between atoms: C20_31  and  O3_32 
ROOT
HETATM    1  C1  UNL     1      45.351  19.759  33.274  1.00  0.00     0.081 C 
HETATM    2  C3  UNL     1      44.303  18.838  33.861  1.00  0.00     0.070 C 
HETATM    3  C4  UNL     1      44.001  19.183  35.310  1.00  0.00     0.155 C 
HETATM    4  C12 UNL     1      43.586  20.621  35.355  1.00  0.00     0.181 C 
HETATM    5  C20 UNL     1      44.736  21.525  34.951  1.00  0.00     0.170 C 
HETATM    6  C21 UNL     1      45.021  21.210  33.496  1.00  0.00     0.144 C 
HETATM    7 CL2  UNL     1      43.562  21.622  32.575  1.00  0.00    -0.119 Cl
ENDROOT
BRANCH   1   8
HETATM    8  N3  UNL     1      46.681  19.423  33.725  1.00  0.00    -0.310 N 
ATOM      9  H3  UNL     1      46.901  18.450  33.937  1.00  0.00     0.182 HD
BRANCH   8  10
HETATM   10  N2  UNL     1      47.671  20.386  33.880  1.00  0.00    -0.253 N 
ATOM     11  H2  UNL     1      47.805  21.081  33.147  1.00  0.00     0.207 HD
BRANCH  10  12
HETATM   12  N1  UNL     1      48.426  20.425  34.925  1.00  0.00    -0.331 N 
ATOM     13  H12 UNL     1      49.367  20.808  34.822  1.00  0.00     0.178 HD
ATOM     14  H11 UNL     1      48.108  20.088  35.834  1.00  0.00     0.178 HD
ENDBRANCH  10  12
ENDBRANCH   8  10
ENDBRANCH   1   8
BRANCH   1  15
HETATM   15  C2  UNL     1      45.324  19.529  31.766  1.00  0.00     0.148 C 
HETATM   16 CL1  UNL     1      46.433  20.623  30.913  1.00  0.00    -0.128 Cl
ENDBRANCH   1  15
BRANCH   3  17
HETATM   17  O1  UNL     1      42.910  18.418  35.710  1.00  0.00    -0.379 OA
BRANCH  17  18
HETATM   18  C5  UNL     1      43.132  17.751  36.908  1.00  0.00     0.207 C 
BRANCH  18  19
HETATM   19  C6  UNL     1      41.847  17.756  37.654  1.00  0.00    -0.035 A 
HETATM   20  C7  UNL     1      41.713  18.568  38.762  1.00  0.00     0.009 A 
HETATM   21  C8  UNL     1      40.503  18.569  39.461  1.00  0.00     0.001 A 
HETATM   22  C9  UNL     1      39.435  17.791  39.089  1.00  0.00     0.000 A 
HETATM   23  C10 UNL     1      39.574  16.973  37.972  1.00  0.00     0.001 A 
HETATM   24  C11 UNL     1      40.768  16.981  37.293  1.00  0.00     0.009 A 
ENDBRANCH  18  19
ENDBRANCH  17  18
ENDBRANCH   3  17
BRANCH   5  25
HETATM   25  O3  UNL     1      45.829  21.411  35.762  1.00  0.00    -0.391 OA
ATOM     26  H3  UNL     1      45.640  21.584  36.677  1.00  0.00     0.210 HD
ENDBRANCH   5  25
BRANCH   4  27
HETATM   27  O2  UNL     1      42.955  21.013  36.494  1.00  0.00    -0.376 OA
BRANCH  27  28
HETATM   28  C13 UNL     1      41.981  21.978  36.332  1.00  0.00     0.210 C 
BRANCH  28  29
HETATM   29  C14 UNL     1      40.628  21.382  36.486  1.00  0.00     0.004 A 
HETATM   30  C15 UNL     1      40.178  20.446  35.571  1.00  0.00     0.012 A 
HETATM   31  C16 UNL     1      38.931  19.858  35.661  1.00  0.00     0.001 A 
HETATM   32  C17 UNL     1      38.080  20.201  36.693  1.00  0.00     0.003 A 
HETATM   33  C18 UNL     1      38.533  21.134  37.603  1.00  0.00     0.043 A 
HETATM   34  C19 UNL     1      39.779  21.721  37.512  1.00  0.00     0.124 A 
HETATM   35  F1  UNL     1      40.221  22.638  38.406  1.00  0.00    -0.205 F 
ENDBRANCH  28  29
ENDBRANCH  27  28
ENDBRANCH   4  27
TORSDOF 11
ENDMDL
