MODEL 1
REMARK VINA RESULT: -6.126467407      0.000      0.000
REMARK  8 active torsions:
REMARK  status: ('A' for Active; 'I' for Inactive)
REMARK    1  A    between atoms: N1_2  and  S1_4 
REMARK    2  A    between atoms: S1_4  and  N2_7 
REMARK    3  A    between atoms: N2_7  and  C2_9 
REMARK    4  A    between atoms: C2_9  and  C3_10 
REMARK    5  A    between atoms: C3_10  and  C4_12 
REMARK    6  A    between atoms: C4_12  and  N3_13 
REMARK    7  A    between atoms: N3_13  and  C5_16 
REMARK    8  A    between atoms: C5_16  and  C6_17 
ROOT
HETATM    1  C4  UNL     1      37.928  18.471  37.648  1.00  0.00     0.250 C 
ENDROOT
BRANCH   1   2
HETATM    2  C3  UNL     1      39.173  18.707  38.443  1.00  0.00     0.102 C 
HETATM    3 BR1  UNL     1      40.134  16.992  38.631  1.00  0.00    -0.088 Br
BRANCH   2   4
HETATM    4  C2  UNL     1      40.120  19.602  37.725  1.00  0.00     0.151 C 
BRANCH   4   5
HETATM    5  N2  UNL     1      40.856  20.509  38.607  1.00  0.00    -0.302 N 
ATOM      6  H2  UNL     1      41.043  20.374  39.601  1.00  0.00     0.173 HD
BRANCH   5   7
HETATM    7  S1  UNL     1      41.349  21.858  37.633  1.00  0.00     0.314 S 
HETATM    8  O1  UNL     1      40.333  22.075  36.504  1.00  0.00    -0.183 OA
HETATM    9  O2  UNL     1      42.653  21.554  37.005  1.00  0.00    -0.183 OA
BRANCH   7  10
HETATM   10  N1  UNL     1      41.328  23.323  38.552  1.00  0.00    -0.307 N 
HETATM   11  C1  UNL     1      40.648  24.297  37.703  1.00  0.00     0.161 C 
ATOM     12  H1  UNL     1      41.709  23.473  39.486  1.00  0.00     0.173 HD
ENDBRANCH   7  10
ENDBRANCH   5   7
ENDBRANCH   4   5
ENDBRANCH   2   4
ENDBRANCH   1   2
BRANCH   1  13
HETATM   13  N3  UNL     1      36.761  18.854  38.416  1.00  0.00    -0.070 N 
ATOM     14  H32 UNL     1      36.481  19.820  38.240  1.00  0.00     0.277 HD
ATOM     15  H31 UNL     1      35.912  18.396  38.086  1.00  0.00     0.277 HD
BRANCH  13  16
HETATM   16  C5  UNL     1      37.015  18.599  39.834  1.00  0.00     0.270 C 
BRANCH  16  17
HETATM   17  C6  UNL     1      35.812  18.021  40.491  1.00  0.00    -0.031 A 
HETATM   18  C7  UNL     1      35.806  17.280  41.614  1.00  0.00     0.010 A 
HETATM   19  C8  UNL     1      34.616  16.842  42.196  1.00  0.00     0.026 A 
HETATM   20  C9  UNL     1      33.439  17.192  41.585  1.00  0.00     0.051 A 
HETATM   21 CL1  UNL     1      31.905  16.696  42.263  1.00  0.00    -0.083 Cl
HETATM   22  C10 UNL     1      33.413  17.943  40.447  1.00  0.00     0.033 A 
HETATM   23 BR2  UNL     1      31.785  18.440  39.587  1.00  0.00    -0.049 Br
HETATM   24  C11 UNL     1      34.597  18.359  39.897  1.00  0.00     0.029 A 
ENDBRANCH  16  17
ENDBRANCH  13  16
ENDBRANCH   1  13
TORSDOF 8
ENDMDL
MODEL 2
REMARK VINA RESULT: -5.990119960      1.697      2.166
REMARK  8 active torsions:
REMARK  status: ('A' for Active; 'I' for Inactive)
REMARK    1  A    between atoms: N1_2  and  S1_4 
REMARK    2  A    between atoms: S1_4  and  N2_7 
REMARK    3  A    between atoms: N2_7  and  C2_9 
REMARK    4  A    between atoms: C2_9  and  C3_10 
REMARK    5  A    between atoms: C3_10  and  C4_12 
REMARK    6  A    between atoms: C4_12  and  N3_13 
REMARK    7  A    between atoms: N3_13  and  C5_16 
REMARK    8  A    between atoms: C5_16  and  C6_17 
ROOT
HETATM    1  C4  UNL     1      39.969  17.492  37.814  1.00  0.00     0.250 C 
ENDROOT
BRANCH   1   2
HETATM    2  C3  UNL     1      40.906  18.071  38.827  1.00  0.00     0.102 C 
HETATM    3 BR1  UNL     1      42.395  16.804  39.103  1.00  0.00    -0.088 Br
BRANCH   2   4
HETATM    4  C2  UNL     1      41.548  19.317  38.328  1.00  0.00     0.151 C 
BRANCH   4   5
HETATM    5  N2  UNL     1      40.838  20.538  38.709  1.00  0.00    -0.302 N 
ATOM      6  H2  UNL     1      40.153  20.636  39.459  1.00  0.00     0.173 HD
BRANCH   5   7
HETATM    7  S1  UNL     1      41.387  21.788  37.637  1.00  0.00     0.314 S 
HETATM    8  O1  UNL     1      40.405  21.928  36.467  1.00  0.00    -0.183 OA
HETATM    9  O2  UNL     1      42.699  21.404  37.073  1.00  0.00    -0.183 OA
BRANCH   7  10
HETATM   10  N1  UNL     1      41.376  23.326  38.426  1.00  0.00    -0.307 N 
HETATM   11  C1  UNL     1      40.688  24.225  37.504  1.00  0.00     0.161 C 
ATOM     12  H1  UNL     1      41.767  23.557  39.339  1.00  0.00     0.173 HD
ENDBRANCH   7  10
ENDBRANCH   5   7
ENDBRANCH   4   5
ENDBRANCH   2   4
ENDBRANCH   1   2
BRANCH   1  13
HETATM   13  N3  UNL     1      38.678  17.229  38.417  1.00  0.00    -0.070 N 
ATOM     14  H32 UNL     1      38.250  16.374  38.061  1.00  0.00     0.277 HD
ATOM     15  H31 UNL     1      38.757  16.953  39.396  1.00  0.00     0.277 HD
BRANCH  13  16
HETATM   16  C5  UNL     1      37.817  18.397  38.237  1.00  0.00     0.270 C 
BRANCH  16  17
HETATM   17  C6  UNL     1      36.517  18.210  38.933  1.00  0.00    -0.031 A 
HETATM   18  C7  UNL     1      35.298  18.334  38.377  1.00  0.00     0.010 A 
HETATM   19  C8  UNL     1      34.133  18.067  39.097  1.00  0.00     0.026 A 
HETATM   20  C9  UNL     1      34.266  17.668  40.402  1.00  0.00     0.051 A 
HETATM   21 CL1  UNL     1      32.854  17.298  41.365  1.00  0.00    -0.083 Cl
HETATM   22  C10 UNL     1      35.487  17.532  40.994  1.00  0.00     0.033 A 
HETATM   23 BR2  UNL     1      35.689  16.977  42.807  1.00  0.00    -0.049 Br
HETATM   24  C11 UNL     1      36.615  17.803  40.263  1.00  0.00     0.029 A 
ENDBRANCH  16  17
ENDBRANCH  13  16
ENDBRANCH   1  13
TORSDOF 8
ENDMDL
MODEL 3
REMARK VINA RESULT: -5.915932819      1.923      2.351
REMARK  8 active torsions:
REMARK  status: ('A' for Active; 'I' for Inactive)
REMARK    1  A    between atoms: N1_2  and  S1_4 
REMARK    2  A    between atoms: S1_4  and  N2_7 
REMARK    3  A    between atoms: N2_7  and  C2_9 
REMARK    4  A    between atoms: C2_9  and  C3_10 
REMARK    5  A    between atoms: C3_10  and  C4_12 
REMARK    6  A    between atoms: C4_12  and  N3_13 
REMARK    7  A    between atoms: N3_13  and  C5_16 
REMARK    8  A    between atoms: C5_16  and  C6_17 
ROOT
HETATM    1  C4  UNL     1      39.813  18.723  37.195  1.00  0.00     0.250 C 
ENDROOT
BRANCH   1   2
HETATM    2  C3  UNL     1      40.240  19.535  38.376  1.00  0.00     0.102 C 
HETATM    3 BR1  UNL     1      41.594  18.512  39.386  1.00  0.00    -0.088 Br
BRANCH   2   4
HETATM    4  C2  UNL     1      40.932  20.785  37.960  1.00  0.00     0.151 C 
BRANCH   4   5
HETATM    5  N2  UNL     1      40.021  21.892  37.667  1.00  0.00    -0.302 N 
ATOM      6  H2  UNL     1      39.005  21.843  37.597  1.00  0.00     0.173 HD
BRANCH   5   7
HETATM    7  S1  UNL     1      41.008  23.306  37.464  1.00  0.00     0.314 S 
HETATM    8  O1  UNL     1      40.208  24.388  36.727  1.00  0.00    -0.183 OA
HETATM    9  O2  UNL     1      42.177  22.967  36.624  1.00  0.00    -0.183 OA
BRANCH   7  10
HETATM   10  N1  UNL     1      41.412  24.002  38.994  1.00  0.00    -0.307 N 
HETATM   11  C1  UNL     1      40.832  25.342  38.970  1.00  0.00     0.161 C 
ATOM     12  H1  UNL     1      41.942  23.569  39.751  1.00  0.00     0.173 HD
ENDBRANCH   7  10
ENDBRANCH   5   7
ENDBRANCH   4   5
ENDBRANCH   2   4
ENDBRANCH   1   2
BRANCH   1  13
HETATM   13  N3  UNL     1      38.384  18.486  37.238  1.00  0.00    -0.070 N 
ATOM     14  H32 UNL     1      37.916  18.777  36.380  1.00  0.00     0.277 HD
ATOM     15  H31 UNL     1      38.155  17.493  37.197  1.00  0.00     0.277 HD
BRANCH  13  16
HETATM   16  C5  UNL     1      37.826  19.136  38.423  1.00  0.00     0.270 C 
BRANCH  16  17
HETATM   17  C6  UNL     1      36.629  18.403  38.916  1.00  0.00    -0.031 A 
HETATM   18  C7  UNL     1      35.599  17.976  38.163  1.00  0.00     0.010 A 
HETATM   19  C8  UNL     1      34.553  17.232  38.707  1.00  0.00     0.026 A 
HETATM   20  C9  UNL     1      34.603  16.942  40.047  1.00  0.00     0.051 A 
HETATM   21 CL1  UNL     1      33.338  15.998  40.799  1.00  0.00    -0.083 Cl
HETATM   22  C10 UNL     1      35.634  17.360  40.836  1.00  0.00     0.033 A 
HETATM   23 BR2  UNL     1      35.721  16.964  42.700  1.00  0.00    -0.049 Br
HETATM   24  C11 UNL     1      36.648  18.091  40.275  1.00  0.00     0.029 A 
ENDBRANCH  16  17
ENDBRANCH  13  16
ENDBRANCH   1  13
TORSDOF 8
ENDMDL
MODEL 4
REMARK VINA RESULT: -5.914145588      6.034      7.339
REMARK  8 active torsions:
REMARK  status: ('A' for Active; 'I' for Inactive)
REMARK    1  A    between atoms: N1_2  and  S1_4 
REMARK    2  A    between atoms: S1_4  and  N2_7 
REMARK    3  A    between atoms: N2_7  and  C2_9 
REMARK    4  A    between atoms: C2_9  and  C3_10 
REMARK    5  A    between atoms: C3_10  and  C4_12 
REMARK    6  A    between atoms: C4_12  and  N3_13 
REMARK    7  A    between atoms: N3_13  and  C5_16 
REMARK    8  A    between atoms: C5_16  and  C6_17 
ROOT
HETATM    1  C4  UNL     1      40.241  21.291  37.973  1.00  0.00     0.250 C 
ENDROOT
BRANCH   1   2
HETATM    2  C3  UNL     1      40.722  22.088  36.802  1.00  0.00     0.102 C 
HETATM    3 BR1  UNL     1      40.850  23.984  37.341  1.00  0.00    -0.088 Br
BRANCH   2   4
HETATM    4  C2  UNL     1      42.107  21.705  36.412  1.00  0.00     0.151 C 
BRANCH   4   5
HETATM    5  N2  UNL     1      42.967  22.847  36.100  1.00  0.00    -0.302 N 
ATOM      6  H2  UNL     1      42.813  23.818  36.372  1.00  0.00     0.173 HD
BRANCH   5   7
HETATM    7  S1  UNL     1      44.300  22.227  35.177  1.00  0.00     0.314 S 
HETATM    8  O1  UNL     1      45.480  21.936  36.113  1.00  0.00    -0.183 OA
HETATM    9  O2  UNL     1      44.742  23.255  34.210  1.00  0.00    -0.183 OA
BRANCH   7  10
HETATM   10  N1  UNL     1      43.900  20.705  34.462  1.00  0.00    -0.307 N 
HETATM   11  C1  UNL     1      43.774  20.975  33.033  1.00  0.00     0.161 C 
ATOM     12  H1  UNL     1      43.778  19.810  34.936  1.00  0.00     0.173 HD
ENDBRANCH   7  10
ENDBRANCH   5   7
ENDBRANCH   4   5
ENDBRANCH   2   4
ENDBRANCH   1   2
BRANCH   1  13
HETATM   13  N3  UNL     1      41.315  20.474  38.500  1.00  0.00    -0.070 N 
ATOM     14  H32 UNL     1      42.079  20.360  37.833  1.00  0.00     0.277 HD
ATOM     15  H31 UNL     1      41.837  20.949  39.237  1.00  0.00     0.277 HD
BRANCH  13  16
HETATM   16  C5  UNL     1      40.770  19.192  38.944  1.00  0.00     0.270 C 
BRANCH  16  17
HETATM   17  C6  UNL     1      41.734  18.089  38.687  1.00  0.00    -0.031 A 
HETATM   18  C7  UNL     1      42.027  17.084  39.532  1.00  0.00     0.010 A 
HETATM   19  C8  UNL     1      42.895  16.052  39.170  1.00  0.00     0.026 A 
HETATM   20  C9  UNL     1      43.445  16.090  37.914  1.00  0.00     0.051 A 
HETATM   21 CL1  UNL     1      44.527  14.824  37.381  1.00  0.00    -0.083 Cl
HETATM   22  C10 UNL     1      43.166  17.095  37.035  1.00  0.00     0.033 A 
HETATM   23 BR2  UNL     1      43.921  17.162  35.285  1.00  0.00    -0.049 Br
HETATM   24  C11 UNL     1      42.311  18.096  37.418  1.00  0.00     0.029 A 
ENDBRANCH  16  17
ENDBRANCH  13  16
ENDBRANCH   1  13
TORSDOF 8
ENDMDL
MODEL 5
REMARK VINA RESULT: -5.890857883      1.844      2.050
REMARK  8 active torsions:
REMARK  status: ('A' for Active; 'I' for Inactive)
REMARK    1  A    between atoms: N1_2  and  S1_4 
REMARK    2  A    between atoms: S1_4  and  N2_7 
REMARK    3  A    between atoms: N2_7  and  C2_9 
REMARK    4  A    between atoms: C2_9  and  C3_10 
REMARK    5  A    between atoms: C3_10  and  C4_12 
REMARK    6  A    between atoms: C4_12  and  N3_13 
REMARK    7  A    between atoms: N3_13  and  C5_16 
REMARK    8  A    between atoms: C5_16  and  C6_17 
ROOT
HETATM    1  C4  UNL     1      39.674  17.829  38.151  1.00  0.00     0.250 C 
ENDROOT
BRANCH   1   2
HETATM    2  C3  UNL     1      40.687  18.279  39.155  1.00  0.00     0.102 C 
HETATM    3 BR1  UNL     1      42.147  16.950  39.214  1.00  0.00    -0.088 Br
BRANCH   2   4
HETATM    4  C2  UNL     1      41.340  19.551  38.741  1.00  0.00     0.151 C 
BRANCH   4   5
HETATM    5  N2  UNL     1      40.398  20.645  38.502  1.00  0.00    -0.302 N 
ATOM      6  H2  UNL     1      39.420  20.680  38.787  1.00  0.00     0.173 HD
BRANCH   5   7
HETATM    7  S1  UNL     1      41.272  21.872  37.639  1.00  0.00     0.314 S 
HETATM    8  O1  UNL     1      40.491  22.267  36.379  1.00  0.00    -0.183 OA
HETATM    9  O2  UNL     1      42.575  21.326  37.203  1.00  0.00    -0.183 OA
BRANCH   7  10
HETATM   10  N1  UNL     1      41.387  23.320  38.576  1.00  0.00    -0.307 N 
HETATM   11  C1  UNL     1      40.664  24.331  37.808  1.00  0.00     0.161 C 
ATOM     12  H1  UNL     1      41.859  23.443  39.472  1.00  0.00     0.173 HD
ENDBRANCH   7  10
ENDBRANCH   5   7
ENDBRANCH   4   5
ENDBRANCH   2   4
ENDBRANCH   1   2
BRANCH   1  13
HETATM   13  N3  UNL     1      38.541  17.219  38.819  1.00  0.00    -0.070 N 
ATOM     14  H32 UNL     1      38.074  16.526  38.235  1.00  0.00     0.277 HD
ATOM     15  H31 UNL     1      38.827  16.600  39.577  1.00  0.00     0.277 HD
BRANCH  13  16
HETATM   16  C5  UNL     1      37.629  18.269  39.273  1.00  0.00     0.270 C 
BRANCH  16  17
HETATM   17  C6  UNL     1      36.551  17.702  40.125  1.00  0.00    -0.031 A 
HETATM   18  C7  UNL     1      35.636  18.407  40.815  1.00  0.00     0.010 A 
HETATM   19  C8  UNL     1      34.616  17.781  41.531  1.00  0.00     0.026 A 
HETATM   20  C9  UNL     1      34.570  16.411  41.513  1.00  0.00     0.051 A 
HETATM   21 CL1  UNL     1      33.311  15.553  42.372  1.00  0.00    -0.083 Cl
HETATM   22  C10 UNL     1      35.482  15.668  40.823  1.00  0.00     0.033 A 
HETATM   23 BR2  UNL     1      35.431  13.762  40.785  1.00  0.00    -0.049 Br
HETATM   24  C11 UNL     1      36.474  16.310  40.128  1.00  0.00     0.029 A 
ENDBRANCH  16  17
ENDBRANCH  13  16
ENDBRANCH   1  13
TORSDOF 8
ENDMDL
