MODEL 1
REMARK VINA RESULT: -6.957998137      0.000      0.000
REMARK  12 active torsions:
REMARK  status: ('A' for Active; 'I' for Inactive)
REMARK    1  A    between atoms: N3_4  and  C2_6 
REMARK    2  A    between atoms: C2_6  and  C3_7 
REMARK    3  A    between atoms: C3_7  and  C4_8 
REMARK    4  A    between atoms: C4_8  and  C5_9 
REMARK    5  A    between atoms: C5_9  and  C6_10 
REMARK    6  A    between atoms: C9_14  and  C10_15 
REMARK    7  A    between atoms: C10_15  and  C11_16 
REMARK    8  A    between atoms: C11_16  and  N4_17 
REMARK       I    between atoms: N4_17  and  C12_19 
REMARK    9  A    between atoms: C12_19  and  C13_21 
REMARK   10  A    between atoms: C13_21  and  C14_22 
REMARK   11  A    between atoms: C14_22  and  N5_23 
REMARK       I    between atoms: N5_23  and  C15_25 
REMARK   12  A    between atoms: C15_25  and  C16_27 
ROOT
HETATM    1  C6  UNL     1      42.852  17.828  37.640  1.00  0.00    -0.032 A 
HETATM    2  C7  UNL     1      43.265  18.316  36.387  1.00  0.00     0.051 A 
HETATM    3  C8  UNL     1      44.086  17.568  35.582  1.00  0.00     0.125 A 
HETATM    4  F1  UNL     1      44.432  18.093  34.382  1.00  0.00    -0.205 F 
HETATM    5  C9  UNL     1      44.565  16.299  35.931  1.00  0.00     0.005 A 
HETATM    6  C20 UNL     1      44.155  15.834  37.149  1.00  0.00     0.065 A 
HETATM    7 CL1  UNL     1      44.598  14.227  37.717  1.00  0.00    -0.082 Cl
HETATM    8  C21 UNL     1      43.317  16.591  37.981  1.00  0.00     0.062 A 
HETATM    9 CL2  UNL     1      42.901  15.941  39.571  1.00  0.00    -0.082 Cl
ENDROOT
BRANCH   5  10
HETATM   10  C10 UNL     1      45.421  15.560  34.993  1.00  0.00     0.063 C 
BRANCH  10  11
HETATM   11  C11 UNL     1      46.874  15.576  35.288  1.00  0.00     0.127 C 
BRANCH  11  12
HETATM   12  N4  UNL     1      47.491  16.870  35.310  1.00  0.00    -0.360 N 
HETATM   13  C12 UNL     1      47.809  17.589  34.140  1.00  0.00     0.222 C 
HETATM   14  O1  UNL     1      47.522  17.069  33.006  1.00  0.00    -0.273 OA
ATOM     15  H4  UNL     1      47.710  17.289  36.215  1.00  0.00     0.162 HD
BRANCH  13  16
HETATM   16  C13 UNL     1      48.443  18.884  34.198  1.00  0.00     0.147 C 
BRANCH  16  17
HETATM   17  C14 UNL     1      47.948  19.788  35.266  1.00  0.00     0.073 C 
BRANCH  17  18
HETATM   18  N5  UNL     1      46.807  20.579  35.022  1.00  0.00    -0.340 N 
HETATM   19  C15 UNL     1      46.346  21.469  34.075  1.00  0.00     0.225 C 
HETATM   20  O2  UNL     1      46.951  21.828  33.051  1.00  0.00    -0.273 OA
ATOM     21  H5  UNL     1      46.118  20.456  35.765  1.00  0.00     0.167 HD
BRANCH  19  22
HETATM   22  C16 UNL     1      44.981  22.125  34.205  1.00  0.00     0.078 C 
HETATM   23  C17 UNL     1      44.024  21.314  33.362  1.00  0.00     0.014 C 
HETATM   24  C18 UNL     1      43.081  21.267  34.543  1.00  0.00     0.002 C 
HETATM   25  C19 UNL     1      44.209  21.741  35.416  1.00  0.00     0.014 C 
ENDBRANCH  19  22
ENDBRANCH  17  18
ENDBRANCH  16  17
ENDBRANCH  13  16
ENDBRANCH  11  12
ENDBRANCH  10  11
ENDBRANCH   5  10
BRANCH   1  26
HETATM   26  C5  UNL     1      41.927  18.674  38.416  1.00  0.00     0.040 C 
BRANCH  26  27
HETATM   27  C4  UNL     1      40.941  19.455  37.633  1.00  0.00     0.006 C 
BRANCH  27  28
HETATM   28  C3  UNL     1      40.365  20.682  38.230  1.00  0.00     0.020 C 
BRANCH  28  29
HETATM   29  C2  UNL     1      41.080  21.891  37.585  1.00  0.00     0.122 C 
BRANCH  29  30
HETATM   30  N3  UNL     1      41.093  22.989  38.501  1.00  0.00    -0.367 N 
HETATM   31  C1  UNL     1      40.691  24.151  38.151  1.00  0.00     0.196 C 
HETATM   32  N1  UNL     1      40.221  24.355  36.820  1.00  0.00    -0.067 NA
HETATM   33  N2  UNL     1      40.721  25.209  39.097  1.00  0.00    -0.067 NA
ATOM     34  H3  UNL     1      41.430  22.843  39.453  1.00  0.00     0.161 HD
ENDBRANCH  29  30
ENDBRANCH  28  29
ENDBRANCH  27  28
ENDBRANCH  26  27
ENDBRANCH   1  26
TORSDOF 12
ENDMDL
MODEL 2
REMARK VINA RESULT: -6.791193284      4.707      9.215
REMARK  12 active torsions:
REMARK  status: ('A' for Active; 'I' for Inactive)
REMARK    1  A    between atoms: N3_4  and  C2_6 
REMARK    2  A    between atoms: C2_6  and  C3_7 
REMARK    3  A    between atoms: C3_7  and  C4_8 
REMARK    4  A    between atoms: C4_8  and  C5_9 
REMARK    5  A    between atoms: C5_9  and  C6_10 
REMARK    6  A    between atoms: C9_14  and  C10_15 
REMARK    7  A    between atoms: C10_15  and  C11_16 
REMARK    8  A    between atoms: C11_16  and  N4_17 
REMARK       I    between atoms: N4_17  and  C12_19 
REMARK    9  A    between atoms: C12_19  and  C13_21 
REMARK   10  A    between atoms: C13_21  and  C14_22 
REMARK   11  A    between atoms: C14_22  and  N5_23 
REMARK       I    between atoms: N5_23  and  C15_25 
REMARK   12  A    between atoms: C15_25  and  C16_27 
ROOT
HETATM    1  C6  UNL     1      43.247  20.575  35.890  1.00  0.00    -0.032 A 
HETATM    2  C7  UNL     1      42.782  21.903  35.888  1.00  0.00     0.051 A 
HETATM    3  C8  UNL     1      41.632  22.241  36.554  1.00  0.00     0.125 A 
HETATM    4  F1  UNL     1      41.250  23.540  36.524  1.00  0.00    -0.205 F 
HETATM    5  C9  UNL     1      40.852  21.321  37.267  1.00  0.00     0.005 A 
HETATM    6  C20 UNL     1      41.314  20.035  37.264  1.00  0.00     0.065 A 
HETATM    7 CL1  UNL     1      40.503  18.763  38.170  1.00  0.00    -0.082 Cl
HETATM    8  C21 UNL     1      42.489  19.678  36.584  1.00  0.00     0.062 A 
HETATM    9 CL2  UNL     1      42.969  17.978  36.572  1.00  0.00    -0.082 Cl
ENDROOT
BRANCH   5  10
HETATM   10  C10 UNL     1      39.646  21.780  37.971  1.00  0.00     0.063 C 
BRANCH  10  11
HETATM   11  C11 UNL     1      38.404  21.839  37.165  1.00  0.00     0.127 C 
BRANCH  11  12
HETATM   12  N4  UNL     1      37.668  20.613  37.065  1.00  0.00    -0.360 N 
HETATM   13  C12 UNL     1      37.419  19.965  35.837  1.00  0.00     0.222 C 
HETATM   14  O1  UNL     1      37.883  20.488  34.765  1.00  0.00    -0.273 OA
ATOM     15  H4  UNL     1      37.307  20.191  37.921  1.00  0.00     0.162 HD
BRANCH  13  16
HETATM   16  C13 UNL     1      36.662  18.738  35.770  1.00  0.00     0.147 C 
BRANCH  16  17
HETATM   17  C14 UNL     1      37.183  17.623  36.598  1.00  0.00     0.073 C 
BRANCH  17  18
HETATM   18  N5  UNL     1      36.561  17.332  37.829  1.00  0.00    -0.340 N 
HETATM   19  C15 UNL     1      36.513  17.838  39.111  1.00  0.00     0.225 C 
HETATM   20  O2  UNL     1      37.120  18.839  39.527  1.00  0.00    -0.273 OA
ATOM     21  H5  UNL     1      35.971  16.503  37.748  1.00  0.00     0.167 HD
BRANCH  19  22
HETATM   22  C16 UNL     1      35.664  17.182  40.189  1.00  0.00     0.078 C 
HETATM   23  C17 UNL     1      36.228  17.625  41.519  1.00  0.00     0.014 C 
HETATM   24  C18 UNL     1      34.828  17.995  41.949  1.00  0.00     0.002 C 
HETATM   25  C19 UNL     1      34.398  17.891  40.512  1.00  0.00     0.014 C 
ENDBRANCH  19  22
ENDBRANCH  17  18
ENDBRANCH  16  17
ENDBRANCH  13  16
ENDBRANCH  11  12
ENDBRANCH  10  11
ENDBRANCH   5  10
BRANCH   1  26
HETATM   26  C5  UNL     1      44.520  20.311  35.193  1.00  0.00     0.040 C 
BRANCH  26  27
HETATM   27  C4  UNL     1      45.580  21.333  35.357  1.00  0.00     0.006 C 
BRANCH  27  28
HETATM   28  C3  UNL     1      46.866  21.148  34.645  1.00  0.00     0.020 C 
BRANCH  28  29
HETATM   29  C2  UNL     1      47.641  20.026  35.373  1.00  0.00     0.122 C 
BRANCH  29  30
HETATM   30  N3  UNL     1      48.986  19.975  34.888  1.00  0.00    -0.367 N 
HETATM   31  C1  UNL     1      49.375  19.041  34.107  1.00  0.00     0.196 C 
HETATM   32  N1  UNL     1      48.450  18.030  33.712  1.00  0.00    -0.067 NA
HETATM   33  N2  UNL     1      50.719  19.035  33.650  1.00  0.00    -0.067 NA
ATOM     34  H3  UNL     1      49.647  20.698  35.170  1.00  0.00     0.161 HD
ENDBRANCH  29  30
ENDBRANCH  28  29
ENDBRANCH  27  28
ENDBRANCH  26  27
ENDBRANCH   1  26
TORSDOF 12
ENDMDL
MODEL 3
REMARK VINA RESULT: -6.680367736      2.299      4.650
REMARK  12 active torsions:
REMARK  status: ('A' for Active; 'I' for Inactive)
REMARK    1  A    between atoms: N3_4  and  C2_6 
REMARK    2  A    between atoms: C2_6  and  C3_7 
REMARK    3  A    between atoms: C3_7  and  C4_8 
REMARK    4  A    between atoms: C4_8  and  C5_9 
REMARK    5  A    between atoms: C5_9  and  C6_10 
REMARK    6  A    between atoms: C9_14  and  C10_15 
REMARK    7  A    between atoms: C10_15  and  C11_16 
REMARK    8  A    between atoms: C11_16  and  N4_17 
REMARK       I    between atoms: N4_17  and  C12_19 
REMARK    9  A    between atoms: C12_19  and  C13_21 
REMARK   10  A    between atoms: C13_21  and  C14_22 
REMARK   11  A    between atoms: C14_22  and  N5_23 
REMARK       I    between atoms: N5_23  and  C15_25 
REMARK   12  A    between atoms: C15_25  and  C16_27 
ROOT
HETATM    1  C6  UNL     1      42.543  20.534  35.408  1.00  0.00    -0.032 A 
HETATM    2  C7  UNL     1      43.316  21.650  35.774  1.00  0.00     0.051 A 
HETATM    3  C8  UNL     1      44.630  21.745  35.391  1.00  0.00     0.125 A 
HETATM    4  F1  UNL     1      45.312  22.855  35.764  1.00  0.00    -0.205 F 
HETATM    5  C9  UNL     1      45.286  20.770  34.629  1.00  0.00     0.005 A 
HETATM    6  C20 UNL     1      44.525  19.692  34.277  1.00  0.00     0.065 A 
HETATM    7 CL1  UNL     1      45.163  18.407  33.257  1.00  0.00    -0.082 Cl
HETATM    8  C21 UNL     1      43.180  19.583  34.666  1.00  0.00     0.062 A 
HETATM    9 CL2  UNL     1      42.295  18.118  34.229  1.00  0.00    -0.082 Cl
ENDROOT
BRANCH   5  10
HETATM   10  C10 UNL     1      46.691  20.970  34.244  1.00  0.00     0.063 C 
BRANCH  10  11
HETATM   11  C11 UNL     1      47.704  20.584  35.256  1.00  0.00     0.127 C 
BRANCH  11  12
HETATM   12  N4  UNL     1      47.928  19.176  35.407  1.00  0.00    -0.360 N 
HETATM   13  C12 UNL     1      48.792  18.442  34.568  1.00  0.00     0.222 C 
HETATM   14  O1  UNL     1      49.414  19.064  33.637  1.00  0.00    -0.273 OA
ATOM     15  H4  UNL     1      47.441  18.683  36.155  1.00  0.00     0.162 HD
BRANCH  13  16
HETATM   16  C13 UNL     1      48.985  17.022  34.739  1.00  0.00     0.147 C 
BRANCH  16  17
HETATM   17  C14 UNL     1      47.774  16.187  34.544  1.00  0.00     0.073 C 
BRANCH  17  18
HETATM   18  N5  UNL     1      46.934  15.927  35.645  1.00  0.00    -0.340 N 
HETATM   19  C15 UNL     1      46.391  14.843  36.301  1.00  0.00     0.225 C 
HETATM   20  O2  UNL     1      46.556  13.648  36.003  1.00  0.00    -0.273 OA
ATOM     21  H5  UNL     1      46.643  16.799  36.089  1.00  0.00     0.167 HD
BRANCH  19  22
HETATM   22  C16 UNL     1      45.493  15.022  37.515  1.00  0.00     0.078 C 
HETATM   23  C17 UNL     1      44.469  16.072  37.150  1.00  0.00     0.014 C 
HETATM   24  C18 UNL     1      43.388  15.141  37.649  1.00  0.00     0.002 C 
HETATM   25  C19 UNL     1      44.396  14.026  37.640  1.00  0.00     0.014 C 
ENDBRANCH  19  22
ENDBRANCH  17  18
ENDBRANCH  16  17
ENDBRANCH  13  16
ENDBRANCH  11  12
ENDBRANCH  10  11
ENDBRANCH   5  10
BRANCH   1  26
HETATM   26  C5  UNL     1      41.126  20.539  35.817  1.00  0.00     0.040 C 
BRANCH  26  27
HETATM   27  C4  UNL     1      40.813  19.873  37.103  1.00  0.00     0.006 C 
BRANCH  27  28
HETATM   28  C3  UNL     1      40.525  20.710  38.290  1.00  0.00     0.020 C 
BRANCH  28  29
HETATM   29  C2  UNL     1      40.075  22.098  37.780  1.00  0.00     0.122 C 
BRANCH  29  30
HETATM   30  N3  UNL     1      40.924  23.112  38.326  1.00  0.00    -0.367 N 
HETATM   31  C1  UNL     1      40.912  24.306  37.869  1.00  0.00     0.196 C 
HETATM   32  N1  UNL     1      40.034  24.633  36.794  1.00  0.00    -0.067 NA
HETATM   33  N2  UNL     1      41.771  25.277  38.446  1.00  0.00    -0.067 NA
ATOM     34  H3  UNL     1      41.552  22.877  39.094  1.00  0.00     0.161 HD
ENDBRANCH  29  30
ENDBRANCH  28  29
ENDBRANCH  27  28
ENDBRANCH  26  27
ENDBRANCH   1  26
TORSDOF 12
ENDMDL
MODEL 4
REMARK VINA RESULT: -6.604552617      4.765      8.732
REMARK  12 active torsions:
REMARK  status: ('A' for Active; 'I' for Inactive)
REMARK    1  A    between atoms: N3_4  and  C2_6 
REMARK    2  A    between atoms: C2_6  and  C3_7 
REMARK    3  A    between atoms: C3_7  and  C4_8 
REMARK    4  A    between atoms: C4_8  and  C5_9 
REMARK    5  A    between atoms: C5_9  and  C6_10 
REMARK    6  A    between atoms: C9_14  and  C10_15 
REMARK    7  A    between atoms: C10_15  and  C11_16 
REMARK    8  A    between atoms: C11_16  and  N4_17 
REMARK       I    between atoms: N4_17  and  C12_19 
REMARK    9  A    between atoms: C12_19  and  C13_21 
REMARK   10  A    between atoms: C13_21  and  C14_22 
REMARK   11  A    between atoms: C14_22  and  N5_23 
REMARK       I    between atoms: N5_23  and  C15_25 
REMARK   12  A    between atoms: C15_25  and  C16_27 
ROOT
HETATM    1  C6  UNL     1      43.143  19.155  36.239  1.00  0.00    -0.032 A 
HETATM    2  C7  UNL     1      43.064  20.496  35.821  1.00  0.00     0.051 A 
HETATM    3  C8  UNL     1      42.216  21.374  36.447  1.00  0.00     0.125 A 
HETATM    4  F1  UNL     1      42.202  22.654  36.003  1.00  0.00    -0.205 F 
HETATM    5  C9  UNL     1      41.386  21.018  37.518  1.00  0.00     0.005 A 
HETATM    6  C20 UNL     1      41.473  19.714  37.917  1.00  0.00     0.065 A 
HETATM    7 CL1  UNL     1      40.560  19.110  39.295  1.00  0.00    -0.082 Cl
HETATM    8  C21 UNL     1      42.336  18.807  37.283  1.00  0.00     0.062 A 
HETATM    9 CL2  UNL     1      42.326  17.123  37.818  1.00  0.00    -0.082 Cl
ENDROOT
BRANCH   5  10
HETATM   10  C10 UNL     1      40.527  22.034  38.142  1.00  0.00     0.063 C 
BRANCH  10  11
HETATM   11  C11 UNL     1      39.280  22.368  37.414  1.00  0.00     0.127 C 
BRANCH  11  12
HETATM   12  N4  UNL     1      38.219  21.409  37.521  1.00  0.00    -0.360 N 
HETATM   13  C12 UNL     1      37.818  20.585  36.449  1.00  0.00     0.222 C 
HETATM   14  O1  UNL     1      38.438  20.688  35.334  1.00  0.00    -0.273 OA
ATOM     15  H4  UNL     1      37.733  21.320  38.414  1.00  0.00     0.162 HD
BRANCH  13  16
HETATM   16  C13 UNL     1      36.737  19.639  36.588  1.00  0.00     0.147 C 
BRANCH  16  17
HETATM   17  C14 UNL     1      36.882  18.664  37.696  1.00  0.00     0.073 C 
BRANCH  17  18
HETATM   18  N5  UNL     1      35.981  18.715  38.778  1.00  0.00    -0.340 N 
HETATM   19  C15 UNL     1      35.984  18.502  40.140  1.00  0.00     0.225 C 
HETATM   20  O2  UNL     1      36.961  18.158  40.826  1.00  0.00    -0.273 OA
ATOM     21  H5  UNL     1      35.051  18.990  38.459  1.00  0.00     0.167 HD
BRANCH  19  22
HETATM   22  C16 UNL     1      34.724  18.684  40.972  1.00  0.00     0.078 C 
HETATM   23  C17 UNL     1      33.566  18.746  40.003  1.00  0.00     0.014 C 
HETATM   24  C18 UNL     1      32.853  17.712  40.845  1.00  0.00     0.002 C 
HETATM   25  C19 UNL     1      34.157  17.432  41.539  1.00  0.00     0.014 C 
ENDBRANCH  19  22
ENDBRANCH  17  18
ENDBRANCH  16  17
ENDBRANCH  13  16
ENDBRANCH  11  12
ENDBRANCH  10  11
ENDBRANCH   5  10
BRANCH   1  26
HETATM   26  C5  UNL     1      44.120  18.295  35.546  1.00  0.00     0.040 C 
BRANCH  26  27
HETATM   27  C4  UNL     1      44.999  18.966  34.561  1.00  0.00     0.006 C 
BRANCH  27  28
HETATM   28  C3  UNL     1      46.426  19.172  34.901  1.00  0.00     0.020 C 
BRANCH  28  29
HETATM   29  C2  UNL     1      46.632  20.686  35.137  1.00  0.00     0.122 C 
BRANCH  29  30
HETATM   30  N3  UNL     1      46.197  21.417  33.987  1.00  0.00    -0.367 N 
HETATM   31  C1  UNL     1      45.662  22.572  34.098  1.00  0.00     0.196 C 
HETATM   32  N1  UNL     1      45.494  23.142  35.395  1.00  0.00    -0.067 NA
HETATM   33  N2  UNL     1      45.249  23.261  32.927  1.00  0.00    -0.067 NA
ATOM     34  H3  UNL     1      46.317  21.009  33.060  1.00  0.00     0.161 HD
ENDBRANCH  29  30
ENDBRANCH  28  29
ENDBRANCH  27  28
ENDBRANCH  26  27
ENDBRANCH   1  26
TORSDOF 12
ENDMDL
MODEL 5
REMARK VINA RESULT: -6.591388606      2.468      6.379
REMARK  12 active torsions:
REMARK  status: ('A' for Active; 'I' for Inactive)
REMARK    1  A    between atoms: N3_4  and  C2_6 
REMARK    2  A    between atoms: C2_6  and  C3_7 
REMARK    3  A    between atoms: C3_7  and  C4_8 
REMARK    4  A    between atoms: C4_8  and  C5_9 
REMARK    5  A    between atoms: C5_9  and  C6_10 
REMARK    6  A    between atoms: C9_14  and  C10_15 
REMARK    7  A    between atoms: C10_15  and  C11_16 
REMARK    8  A    between atoms: C11_16  and  N4_17 
REMARK       I    between atoms: N4_17  and  C12_19 
REMARK    9  A    between atoms: C12_19  and  C13_21 
REMARK   10  A    between atoms: C13_21  and  C14_22 
REMARK   11  A    between atoms: C14_22  and  N5_23 
REMARK       I    between atoms: N5_23  and  C15_25 
REMARK   12  A    between atoms: C15_25  and  C16_27 
ROOT
HETATM    1  C6  UNL     1      44.047  15.867  36.202  1.00  0.00    -0.032 A 
HETATM    2  C7  UNL     1      43.152  16.815  35.678  1.00  0.00     0.051 A 
HETATM    3  C8  UNL     1      42.120  17.300  36.442  1.00  0.00     0.125 A 
HETATM    4  F1  UNL     1      41.305  18.223  35.878  1.00  0.00    -0.205 F 
HETATM    5  C9  UNL     1      41.884  16.902  37.764  1.00  0.00     0.005 A 
HETATM    6  C20 UNL     1      42.761  15.982  38.264  1.00  0.00     0.065 A 
HETATM    7 CL1  UNL     1      42.661  15.425  39.931  1.00  0.00    -0.082 Cl
HETATM    8  C21 UNL     1      43.818  15.478  37.490  1.00  0.00     0.062 A 
HETATM    9 CL2  UNL     1      44.858  14.235  38.195  1.00  0.00    -0.082 Cl
ENDROOT
BRANCH   5  10
HETATM   10  C10 UNL     1      40.767  17.494  38.514  1.00  0.00     0.063 C 
BRANCH  10  11
HETATM   11  C11 UNL     1      41.108  18.640  39.391  1.00  0.00     0.127 C 
BRANCH  11  12
HETATM   12  N4  UNL     1      41.533  19.833  38.720  1.00  0.00    -0.360 N 
HETATM   13  C12 UNL     1      40.631  20.764  38.164  1.00  0.00     0.222 C 
HETATM   14  O1  UNL     1      39.376  20.540  38.276  1.00  0.00    -0.273 OA
ATOM     15  H4  UNL     1      42.534  20.017  38.641  1.00  0.00     0.162 HD
BRANCH  13  16
HETATM   16  C13 UNL     1      41.094  21.949  37.483  1.00  0.00     0.147 C 
BRANCH  16  17
HETATM   17  C14 UNL     1      41.350  21.790  36.030  1.00  0.00     0.073 C 
BRANCH  17  18
HETATM   18  N5  UNL     1      42.657  21.497  35.592  1.00  0.00    -0.340 N 
HETATM   19  C15 UNL     1      43.873  22.133  35.462  1.00  0.00     0.225 C 
HETATM   20  O2  UNL     1      44.118  23.315  35.758  1.00  0.00    -0.273 OA
ATOM     21  H5  UNL     1      42.723  20.528  35.277  1.00  0.00     0.167 HD
BRANCH  19  22
HETATM   22  C16 UNL     1      45.092  21.405  34.919  1.00  0.00     0.078 C 
HETATM   23  C17 UNL     1      44.864  19.931  35.157  1.00  0.00     0.014 C 
HETATM   24  C18 UNL     1      45.224  19.677  33.711  1.00  0.00     0.002 C 
HETATM   25  C19 UNL     1      45.074  21.151  33.454  1.00  0.00     0.014 C 
ENDBRANCH  19  22
ENDBRANCH  17  18
ENDBRANCH  16  17
ENDBRANCH  13  16
ENDBRANCH  11  12
ENDBRANCH  10  11
ENDBRANCH   5  10
BRANCH   1  26
HETATM   26  C5  UNL     1      45.157  15.440  35.330  1.00  0.00     0.040 C 
BRANCH  26  27
HETATM   27  C4  UNL     1      46.332  16.341  35.278  1.00  0.00     0.006 C 
BRANCH  27  28
HETATM   28  C3  UNL     1      47.320  16.164  34.189  1.00  0.00     0.020 C 
BRANCH  28  29
HETATM   29  C2  UNL     1      48.613  16.897  34.613  1.00  0.00     0.122 C 
BRANCH  29  30
HETATM   30  N3  UNL     1      48.298  18.226  35.039  1.00  0.00    -0.367 N 
HETATM   31  C1  UNL     1      48.955  19.234  34.611  1.00  0.00     0.196 C 
HETATM   32  N1  UNL     1      50.025  19.030  33.690  1.00  0.00    -0.067 NA
HETATM   33  N2  UNL     1      48.603  20.534  35.061  1.00  0.00    -0.067 NA
ATOM     34  H3  UNL     1      47.533  18.371  35.698  1.00  0.00     0.161 HD
ENDBRANCH  29  30
ENDBRANCH  28  29
ENDBRANCH  27  28
ENDBRANCH  26  27
ENDBRANCH   1  26
TORSDOF 12
ENDMDL
