MODEL 1
REMARK VINA RESULT: -5.464075377      0.000      0.000
REMARK  13 active torsions:
REMARK  status: ('A' for Active; 'I' for Inactive)
REMARK    1  A    between atoms: C2_2  and  C3_3 
REMARK    2  A    between atoms: C3_3  and  C4_4 
REMARK    3  A    between atoms: C3_3  and  C5_6 
REMARK    4  A    between atoms: C3_3  and  N1_9 
REMARK    5  A    between atoms: C5_6  and  C6_7 
REMARK    6  A    between atoms: N1_9  and  C8_11 
REMARK    7  A    between atoms: N1_9  and  C10_15 
REMARK    8  A    between atoms: C8_11  and  C9_12 
REMARK    9  A    between atoms: C9_12  and  O1_13 
REMARK   10  A    between atoms: C10_15  and  C11_16 
REMARK   11  A    between atoms: C11_16  and  O2_17 
REMARK   12  A    between atoms: O2_17  and  C12_18 
REMARK   13  A    between atoms: C12_18  and  C13_19 
ROOT
HETATM    1  C11 UNL     1      42.809  20.746  36.139  1.00  0.00     0.196 C 
ENDROOT
BRANCH   1   2
HETATM    2  C10 UNL     1      42.112  20.377  37.404  1.00  0.00     0.264 C 
BRANCH   2   3
HETATM    3  N1  UNL     1      40.930  19.602  37.343  1.00  0.00    -0.056 N 
HETATM    4  C7  UNL     1      40.379  19.785  35.980  1.00  0.00     0.273 C 
BRANCH   3   5
HETATM    5  C3  UNL     1      41.138  18.166  37.599  1.00  0.00     0.155 C 
BRANCH   5   6
HETATM    6  C2  UNL     1      39.843  17.683  38.334  1.00  0.00     0.037 C 
HETATM    7  C1  UNL     1      39.265  16.424  37.877  1.00  0.00     0.007 C 
ENDBRANCH   5   6
BRANCH   5   8
HETATM    8  C4  UNL     1      41.127  17.340  36.371  1.00  0.00     0.261 C 
HETATM    9  F1  UNL     1      42.214  17.237  35.598  1.00  0.00    -0.253 F 
ENDBRANCH   5   8
BRANCH   5  10
HETATM   10  C5  UNL     1      42.168  17.835  38.594  1.00  0.00     0.057 C 
BRANCH  10  11
HETATM   11  C6  UNL     1      42.978  16.627  38.603  1.00  0.00     0.117 C 
HETATM   12 CL1  UNL     1      42.622  15.324  39.714  1.00  0.00    -0.130 Cl
ENDBRANCH  10  11
ENDBRANCH   5  10
ENDBRANCH   3   5
BRANCH   3  13
HETATM   13  C8  UNL     1      39.869  20.184  38.137  1.00  0.00     0.264 C 
BRANCH  13  14
HETATM   14  C9  UNL     1      39.455  21.585  37.867  1.00  0.00     0.192 C 
BRANCH  14  15
HETATM   15  O1  UNL     1      38.033  21.601  37.870  1.00  0.00    -0.399 OA
ATOM     16  H1  UNL     1      37.759  21.849  36.995  1.00  0.00     0.209 HD
ENDBRANCH  14  15
ENDBRANCH  13  14
ENDBRANCH   3  13
ENDBRANCH   2   3
ENDBRANCH   1   2
BRANCH   1  17
HETATM   17  O2  UNL     1      43.880  19.900  35.932  1.00  0.00    -0.385 OA
BRANCH  17  18
HETATM   18  C12 UNL     1      44.348  19.763  34.665  1.00  0.00     0.209 C 
BRANCH  18  19
HETATM   19  C13 UNL     1      45.830  19.603  34.610  1.00  0.00     0.007 A 
HETATM   20  C14 UNL     1      46.618  20.728  34.666  1.00  0.00     0.017 A 
HETATM   21  C15 UNL     1      45.970  22.045  34.777  1.00  0.00     0.069 C 
HETATM   22  N2  UNL     1      47.981  20.628  34.619  1.00  0.00    -0.344 N 
HETATM   23  C16 UNL     1      48.592  19.451  34.519  1.00  0.00     0.125 A 
ATOM     24  H2  UNL     1      48.544  21.478  34.662  1.00  0.00     0.167 HD
HETATM   25  N3  UNL     1      49.886  19.328  34.473  1.00  0.00    -0.384 N 
HETATM   26  C17 UNL     1      47.833  18.307  34.461  1.00  0.00     0.107 A 
ATOM     27  H32 UNL     1      50.450  20.176  34.516  1.00  0.00     0.157 HD
ATOM     28  H31 UNL     1      50.355  18.425  34.396  1.00  0.00     0.157 HD
HETATM   29  N4  UNL     1      48.448  17.049  34.356  1.00  0.00    -0.097 NA
HETATM   30  C18 UNL     1      46.432  18.373  34.507  1.00  0.00     0.049 A 
HETATM   31 BR1  UNL     1      45.379  16.810  34.429  1.00  0.00    -0.048 Br
ENDBRANCH  18  19
ENDBRANCH  17  18
ENDBRANCH   1  17
TORSDOF 13
ENDMDL
MODEL 2
REMARK VINA RESULT: -5.460009784      1.633      2.184
REMARK  13 active torsions:
REMARK  status: ('A' for Active; 'I' for Inactive)
REMARK    1  A    between atoms: C2_2  and  C3_3 
REMARK    2  A    between atoms: C3_3  and  C4_4 
REMARK    3  A    between atoms: C3_3  and  C5_6 
REMARK    4  A    between atoms: C3_3  and  N1_9 
REMARK    5  A    between atoms: C5_6  and  C6_7 
REMARK    6  A    between atoms: N1_9  and  C8_11 
REMARK    7  A    between atoms: N1_9  and  C10_15 
REMARK    8  A    between atoms: C8_11  and  C9_12 
REMARK    9  A    between atoms: C9_12  and  O1_13 
REMARK   10  A    between atoms: C10_15  and  C11_16 
REMARK   11  A    between atoms: C11_16  and  O2_17 
REMARK   12  A    between atoms: O2_17  and  C12_18 
REMARK   13  A    between atoms: C12_18  and  C13_19 
ROOT
HETATM    1  C11 UNL     1      42.796  20.732  35.502  1.00  0.00     0.196 C 
ENDROOT
BRANCH   1   2
HETATM    2  C10 UNL     1      42.284  20.899  36.892  1.00  0.00     0.264 C 
BRANCH   2   3
HETATM    3  N1  UNL     1      40.944  20.550  37.183  1.00  0.00    -0.056 N 
HETATM    4  C7  UNL     1      40.195  20.665  35.909  1.00  0.00     0.273 C 
BRANCH   3   5
HETATM    5  C3  UNL     1      40.781  19.190  37.725  1.00  0.00     0.155 C 
BRANCH   5   6
HETATM    6  C2  UNL     1      39.446  19.226  38.543  1.00  0.00     0.037 C 
HETATM    7  C1  UNL     1      38.704  17.973  38.635  1.00  0.00     0.007 C 
ENDBRANCH   5   6
BRANCH   5   8
HETATM    8  C4  UNL     1      40.486  18.173  36.691  1.00  0.00     0.261 C 
HETATM    9  F1  UNL     1      41.444  17.719  35.875  1.00  0.00    -0.253 F 
ENDBRANCH   5   8
BRANCH   5  10
HETATM   10  C5  UNL     1      41.741  18.796  38.767  1.00  0.00     0.057 C 
BRANCH  10  11
HETATM   11  C6  UNL     1      42.567  17.598  38.747  1.00  0.00     0.117 C 
HETATM   12 CL1  UNL     1      41.867  16.029  39.073  1.00  0.00    -0.130 Cl
ENDBRANCH  10  11
ENDBRANCH   5  10
ENDBRANCH   3   5
BRANCH   3  13
HETATM   13  C8  UNL     1      40.286  21.570  37.969  1.00  0.00     0.264 C 
BRANCH  13  14
HETATM   14  C9  UNL     1      40.534  22.999  37.646  1.00  0.00     0.192 C 
BRANCH  14  15
HETATM   15  O1  UNL     1      41.210  23.562  38.764  1.00  0.00    -0.399 OA
ATOM     16  H1  UNL     1      42.038  23.897  38.443  1.00  0.00     0.209 HD
ENDBRANCH  14  15
ENDBRANCH  13  14
ENDBRANCH   3  13
ENDBRANCH   2   3
ENDBRANCH   1   2
BRANCH   1  17
HETATM   17  O2  UNL     1      44.021  20.096  35.529  1.00  0.00    -0.385 OA
BRANCH  17  18
HETATM   18  C12 UNL     1      44.287  19.183  34.560  1.00  0.00     0.209 C 
BRANCH  18  19
HETATM   19  C13 UNL     1      45.689  18.679  34.609  1.00  0.00     0.007 A 
HETATM   20  C14 UNL     1      45.956  17.537  35.327  1.00  0.00     0.017 A 
HETATM   21  C15 UNL     1      44.848  16.858  36.019  1.00  0.00     0.069 C 
HETATM   22  N2  UNL     1      47.228  17.039  35.398  1.00  0.00    -0.344 N 
HETATM   23  C16 UNL     1      48.247  17.633  34.782  1.00  0.00     0.125 A 
ATOM     24  H2  UNL     1      47.400  16.190  35.937  1.00  0.00     0.167 HD
HETATM   25  N3  UNL     1      49.464  17.181  34.833  1.00  0.00    -0.384 N 
HETATM   26  C17 UNL     1      48.012  18.777  34.056  1.00  0.00     0.107 A 
ATOM     27  H32 UNL     1      49.638  16.333  35.372  1.00  0.00     0.157 HD
ATOM     28  H31 UNL     1      50.245  17.637  34.361  1.00  0.00     0.157 HD
HETATM   29  N4  UNL     1      49.066  19.427  33.394  1.00  0.00    -0.097 NA
HETATM   30  C18 UNL     1      46.720  19.315  33.962  1.00  0.00     0.049 A 
HETATM   31 BR1  UNL     1      46.387  20.883  32.969  1.00  0.00    -0.048 Br
ENDBRANCH  18  19
ENDBRANCH  17  18
ENDBRANCH   1  17
TORSDOF 13
ENDMDL
MODEL 3
REMARK VINA RESULT: -5.398284819      2.295      2.768
REMARK  13 active torsions:
REMARK  status: ('A' for Active; 'I' for Inactive)
REMARK    1  A    between atoms: C2_2  and  C3_3 
REMARK    2  A    between atoms: C3_3  and  C4_4 
REMARK    3  A    between atoms: C3_3  and  C5_6 
REMARK    4  A    between atoms: C3_3  and  N1_9 
REMARK    5  A    between atoms: C5_6  and  C6_7 
REMARK    6  A    between atoms: N1_9  and  C8_11 
REMARK    7  A    between atoms: N1_9  and  C10_15 
REMARK    8  A    between atoms: C8_11  and  C9_12 
REMARK    9  A    between atoms: C9_12  and  O1_13 
REMARK   10  A    between atoms: C10_15  and  C11_16 
REMARK   11  A    between atoms: C11_16  and  O2_17 
REMARK   12  A    between atoms: O2_17  and  C12_18 
REMARK   13  A    between atoms: C12_18  and  C13_19 
ROOT
HETATM    1  C11 UNL     1      42.725  21.594  36.281  1.00  0.00     0.196 C 
ENDROOT
BRANCH   1   2
HETATM    2  C10 UNL     1      41.834  21.312  37.442  1.00  0.00     0.264 C 
BRANCH   2   3
HETATM    3  N1  UNL     1      40.463  21.046  37.215  1.00  0.00    -0.056 N 
HETATM    4  C7  UNL     1      40.295  20.937  35.747  1.00  0.00     0.273 C 
BRANCH   3   5
HETATM    5  C3  UNL     1      39.976  19.812  37.857  1.00  0.00     0.155 C 
BRANCH   5   6
HETATM    6  C2  UNL     1      39.954  18.734  36.722  1.00  0.00     0.037 C 
HETATM    7  C1  UNL     1      40.699  17.505  36.975  1.00  0.00     0.007 C 
ENDBRANCH   5   6
BRANCH   5   8
HETATM    8  C4  UNL     1      40.936  19.230  38.821  1.00  0.00     0.261 C 
HETATM    9  F1  UNL     1      40.595  19.029  40.100  1.00  0.00    -0.253 F 
ENDBRANCH   5   8
BRANCH   5  10
HETATM   10  C5  UNL     1      38.565  19.818  38.270  1.00  0.00     0.057 C 
BRANCH  10  11
HETATM   11  C6  UNL     1      37.462  19.240  37.518  1.00  0.00     0.117 C 
HETATM   12 CL1  UNL     1      36.502  20.231  36.442  1.00  0.00    -0.130 Cl
ENDBRANCH  10  11
ENDBRANCH   5  10
ENDBRANCH   3   5
BRANCH   3  13
HETATM   13  C8  UNL     1      39.641  22.204  37.490  1.00  0.00     0.264 C 
BRANCH  13  14
HETATM   14  C9  UNL     1      40.303  23.488  37.842  1.00  0.00     0.192 C 
BRANCH  14  15
HETATM   15  O1  UNL     1      40.168  24.343  36.714  1.00  0.00    -0.399 OA
ATOM     16  H1  UNL     1      40.995  24.315  36.248  1.00  0.00     0.209 HD
ENDBRANCH  14  15
ENDBRANCH  13  14
ENDBRANCH   3  13
ENDBRANCH   2   3
ENDBRANCH   1   2
BRANCH   1  17
HETATM   17  O2  UNL     1      43.629  20.563  36.124  1.00  0.00    -0.385 OA
BRANCH  17  18
HETATM   18  C12 UNL     1      44.031  20.253  34.865  1.00  0.00     0.209 C 
BRANCH  18  19
HETATM   19  C13 UNL     1      45.491  19.960  34.780  1.00  0.00     0.007 A 
HETATM   20  C14 UNL     1      46.370  21.012  34.673  1.00  0.00     0.017 A 
HETATM   21  C15 UNL     1      45.836  22.384  34.646  1.00  0.00     0.069 C 
HETATM   22  N2  UNL     1      47.717  20.790  34.592  1.00  0.00    -0.344 N 
HETATM   23  C16 UNL     1      48.225  19.560  34.614  1.00  0.00     0.125 A 
ATOM     24  H2  UNL     1      48.349  21.587  34.513  1.00  0.00     0.167 HD
HETATM   25  N3  UNL     1      49.500  19.321  34.539  1.00  0.00    -0.384 N 
HETATM   26  C17 UNL     1      47.372  18.488  34.720  1.00  0.00     0.107 A 
ATOM     27  H32 UNL     1      50.133  20.117  34.460  1.00  0.00     0.157 HD
ATOM     28  H31 UNL     1      49.890  18.379  34.555  1.00  0.00     0.157 HD
HETATM   29  N4  UNL     1      47.877  17.177  34.746  1.00  0.00    -0.097 NA
HETATM   30  C18 UNL     1      45.985  18.679  34.805  1.00  0.00     0.049 A 
HETATM   31 BR1  UNL     1      44.805  17.215  34.951  1.00  0.00    -0.048 Br
ENDBRANCH  18  19
ENDBRANCH  17  18
ENDBRANCH   1  17
TORSDOF 13
ENDMDL
MODEL 4
REMARK VINA RESULT: -5.364179754      2.072      2.768
REMARK  13 active torsions:
REMARK  status: ('A' for Active; 'I' for Inactive)
REMARK    1  A    between atoms: C2_2  and  C3_3 
REMARK    2  A    between atoms: C3_3  and  C4_4 
REMARK    3  A    between atoms: C3_3  and  C5_6 
REMARK    4  A    between atoms: C3_3  and  N1_9 
REMARK    5  A    between atoms: C5_6  and  C6_7 
REMARK    6  A    between atoms: N1_9  and  C8_11 
REMARK    7  A    between atoms: N1_9  and  C10_15 
REMARK    8  A    between atoms: C8_11  and  C9_12 
REMARK    9  A    between atoms: C9_12  and  O1_13 
REMARK   10  A    between atoms: C10_15  and  C11_16 
REMARK   11  A    between atoms: C11_16  and  O2_17 
REMARK   12  A    between atoms: O2_17  and  C12_18 
REMARK   13  A    between atoms: C12_18  and  C13_19 
ROOT
HETATM    1  C11 UNL     1      42.892  20.943  35.524  1.00  0.00     0.196 C 
ENDROOT
BRANCH   1   2
HETATM    2  C10 UNL     1      42.039  19.835  36.039  1.00  0.00     0.264 C 
BRANCH   2   3
HETATM    3  N1  UNL     1      41.084  20.107  37.047  1.00  0.00    -0.056 N 
HETATM    4  C7  UNL     1      39.908  20.693  36.364  1.00  0.00     0.273 C 
BRANCH   3   5
HETATM    5  C3  UNL     1      40.665  18.921  37.814  1.00  0.00     0.155 C 
BRANCH   5   6
HETATM    6  C2  UNL     1      41.748  18.743  38.931  1.00  0.00     0.037 C 
HETATM    7  C1  UNL     1      42.408  17.444  38.999  1.00  0.00     0.007 C 
ENDBRANCH   5   6
BRANCH   5   8
HETATM    8  C4  UNL     1      39.433  19.134  38.606  1.00  0.00     0.261 C 
HETATM    9  F1  UNL     1      39.206  18.444  39.730  1.00  0.00    -0.253 F 
ENDBRANCH   5   8
BRANCH   5  10
HETATM   10  C5  UNL     1      40.769  17.633  37.112  1.00  0.00     0.057 C 
BRANCH  10  11
HETATM   11  C6  UNL     1      39.651  16.779  36.741  1.00  0.00     0.117 C 
HETATM   12 CL1  UNL     1      39.061  15.557  37.845  1.00  0.00    -0.130 Cl
ENDBRANCH  10  11
ENDBRANCH   5  10
ENDBRANCH   3   5
BRANCH   3  13
HETATM   13  C8  UNL     1      41.488  21.220  37.878  1.00  0.00     0.264 C 
BRANCH  13  14
HETATM   14  C9  UNL     1      40.661  22.455  37.878  1.00  0.00     0.192 C 
BRANCH  14  15
HETATM   15  O1  UNL     1      41.370  23.425  38.638  1.00  0.00    -0.399 OA
ATOM     16  H1  UNL     1      42.279  23.376  38.367  1.00  0.00     0.209 HD
ENDBRANCH  14  15
ENDBRANCH  13  14
ENDBRANCH   3  13
ENDBRANCH   2   3
ENDBRANCH   1   2
BRANCH   1  17
HETATM   17  O2  UNL     1      44.184  20.491  35.342  1.00  0.00    -0.385 OA
BRANCH  17  18
HETATM   18  C12 UNL     1      44.390  19.496  34.442  1.00  0.00     0.209 C 
BRANCH  18  19
HETATM   19  C13 UNL     1      45.755  18.903  34.537  1.00  0.00     0.007 A 
HETATM   20  C14 UNL     1      45.930  17.768  35.293  1.00  0.00     0.017 A 
HETATM   21  C15 UNL     1      44.765  17.183  35.977  1.00  0.00     0.069 C 
HETATM   22  N2  UNL     1      47.165  17.190  35.407  1.00  0.00    -0.344 N 
HETATM   23  C16 UNL     1      48.233  17.698  34.800  1.00  0.00     0.125 A 
ATOM     24  H2  UNL     1      47.269  16.348  35.974  1.00  0.00     0.167 HD
HETATM   25  N3  UNL     1      49.417  17.169  34.892  1.00  0.00    -0.384 N 
HETATM   26  C17 UNL     1      48.091  18.833  34.037  1.00  0.00     0.107 A 
ATOM     27  H32 UNL     1      49.522  16.327  35.458  1.00  0.00     0.157 HD
ATOM     28  H31 UNL     1      50.237  17.559  34.427  1.00  0.00     0.157 HD
HETATM   29  N4  UNL     1      49.200  19.394  33.383  1.00  0.00    -0.097 NA
HETATM   30  C18 UNL     1      46.840  19.451  33.898  1.00  0.00     0.049 A 
HETATM   31 BR1  UNL     1      46.632  21.009  32.854  1.00  0.00    -0.048 Br
ENDBRANCH  18  19
ENDBRANCH  17  18
ENDBRANCH   1  17
TORSDOF 13
ENDMDL
MODEL 5
REMARK VINA RESULT: -5.343297182      1.692      2.105
REMARK  13 active torsions:
REMARK  status: ('A' for Active; 'I' for Inactive)
REMARK    1  A    between atoms: C2_2  and  C3_3 
REMARK    2  A    between atoms: C3_3  and  C4_4 
REMARK    3  A    between atoms: C3_3  and  C5_6 
REMARK    4  A    between atoms: C3_3  and  N1_9 
REMARK    5  A    between atoms: C5_6  and  C6_7 
REMARK    6  A    between atoms: N1_9  and  C8_11 
REMARK    7  A    between atoms: N1_9  and  C10_15 
REMARK    8  A    between atoms: C8_11  and  C9_12 
REMARK    9  A    between atoms: C9_12  and  O1_13 
REMARK   10  A    between atoms: C10_15  and  C11_16 
REMARK   11  A    between atoms: C11_16  and  O2_17 
REMARK   12  A    between atoms: O2_17  and  C12_18 
REMARK   13  A    between atoms: C12_18  and  C13_19 
ROOT
HETATM    1  C11 UNL     1      42.839  20.672  36.289  1.00  0.00     0.196 C 
ENDROOT
BRANCH   1   2
HETATM    2  C10 UNL     1      41.476  20.084  36.148  1.00  0.00     0.264 C 
BRANCH   2   3
HETATM    3  N1  UNL     1      40.544  20.236  37.201  1.00  0.00    -0.056 N 
HETATM    4  C7  UNL     1      39.328  20.835  36.601  1.00  0.00     0.273 C 
BRANCH   3   5
HETATM    5  C3  UNL     1      40.187  18.976  37.875  1.00  0.00     0.155 C 
BRANCH   5   6
HETATM    6  C2  UNL     1      41.168  18.863  39.091  1.00  0.00     0.037 C 
HETATM    7  C1  UNL     1      42.237  17.877  38.978  1.00  0.00     0.007 C 
ENDBRANCH   5   6
BRANCH   5   8
HETATM    8  C4  UNL     1      38.867  19.015  38.543  1.00  0.00     0.261 C 
HETATM    9  F1  UNL     1      38.695  18.500  39.765  1.00  0.00    -0.253 F 
ENDBRANCH   5   8
BRANCH   5  10
HETATM   10  C5  UNL     1      40.505  17.743  37.140  1.00  0.00     0.057 C 
BRANCH  10  11
HETATM   11  C6  UNL     1      39.565  16.677  36.829  1.00  0.00     0.117 C 
HETATM   12 CL1  UNL     1      39.245  15.407  37.988  1.00  0.00    -0.130 Cl
ENDBRANCH  10  11
ENDBRANCH   5  10
ENDBRANCH   3   5
BRANCH   3  13
HETATM   13  C8  UNL     1      40.934  21.289  38.113  1.00  0.00     0.264 C 
BRANCH  13  14
HETATM   14  C9  UNL     1      40.355  22.646  37.934  1.00  0.00     0.192 C 
BRANCH  14  15
HETATM   15  O1  UNL     1      41.176  23.545  38.670  1.00  0.00    -0.399 OA
ATOM     16  H1  UNL     1      40.706  24.368  38.721  1.00  0.00     0.209 HD
ENDBRANCH  14  15
ENDBRANCH  13  14
ENDBRANCH   3  13
ENDBRANCH   2   3
ENDBRANCH   1   2
BRANCH   1  17
HETATM   17  O2  UNL     1      43.788  19.745  35.910  1.00  0.00    -0.385 OA
BRANCH  17  18
HETATM   18  C12 UNL     1      44.289  19.825  34.650  1.00  0.00     0.209 C 
BRANCH  18  19
HETATM   19  C13 UNL     1      45.769  19.643  34.603  1.00  0.00     0.007 A 
HETATM   20  C14 UNL     1      46.574  20.751  34.732  1.00  0.00     0.017 A 
HETATM   21  C15 UNL     1      45.945  22.070  34.910  1.00  0.00     0.069 C 
HETATM   22  N2  UNL     1      47.935  20.631  34.695  1.00  0.00    -0.344 N 
HETATM   23  C16 UNL     1      48.529  19.451  34.535  1.00  0.00     0.125 A 
ATOM     24  H2  UNL     1      48.511  21.468  34.793  1.00  0.00     0.167 HD
HETATM   25  N3  UNL     1      49.821  19.310  34.496  1.00  0.00    -0.384 N 
HETATM   26  C17 UNL     1      47.752  18.325  34.403  1.00  0.00     0.107 A 
ATOM     27  H32 UNL     1      50.397  20.145  34.594  1.00  0.00     0.157 HD
ATOM     28  H31 UNL     1      50.276  18.405  34.373  1.00  0.00     0.157 HD
HETATM   29  N4  UNL     1      48.348  17.065  34.233  1.00  0.00    -0.097 NA
HETATM   30  C18 UNL     1      46.352  18.412  34.436  1.00  0.00     0.049 A 
HETATM   31 BR1  UNL     1      45.275  16.874  34.257  1.00  0.00    -0.048 Br
ENDBRANCH  18  19
ENDBRANCH  17  18
ENDBRANCH   1  17
TORSDOF 13
ENDMDL
