MODEL 1
REMARK VINA RESULT: -6.764849460      0.000      0.000
REMARK  13 active torsions:
REMARK  status: ('A' for Active; 'I' for Inactive)
REMARK       I    between atoms: C1_4  and  N3_6 
REMARK    1  A    between atoms: N3_6  and  C2_8 
REMARK    2  A    between atoms: C2_8  and  C3_9 
REMARK    3  A    between atoms: C3_9  and  N4_10 
REMARK    4  A    between atoms: N4_10  and  C4_12 
REMARK    5  A    between atoms: N6_16  and  C6_18 
REMARK    6  A    between atoms: C6_18  and  C7_19 
REMARK    7  A    between atoms: C7_19  and  C8_20 
REMARK    8  A    between atoms: C8_20  and  C9_21 
REMARK    9  A    between atoms: C12_24  and  N7_25 
REMARK   10  A    between atoms: N7_25  and  C13_26 
REMARK   11  A    between atoms: N7_25  and  C15_29 
REMARK   12  A    between atoms: C13_26  and  C14_27 
REMARK   13  A    between atoms: C15_29  and  C16_30 
ROOT
HETATM    1  C4  UNL     1      43.536  20.506  35.326  1.00  0.00     0.140 A 
HETATM    2  N5  UNL     1      42.820  20.055  36.385  1.00  0.00    -0.175 N 
ATOM      3  H5  UNL     1      42.780  19.048  36.533  1.00  0.00     0.186 HD
HETATM    4  C5  UNL     1      42.161  20.837  37.251  1.00  0.00     0.683 A 
HETATM    5  N6  UNL     1      41.471  20.447  38.256  1.00  0.00    -0.205 N 
ATOM      6  H6  UNL     1      41.026  21.167  38.825  1.00  0.00     0.183 HD
HETATM    7  N8  UNL     1      42.253  22.188  36.997  1.00  0.00    -0.200 N 
ATOM      8  H8  UNL     1      41.771  22.833  37.623  1.00  0.00     0.183 HD
HETATM    9  C19 UNL     1      42.942  22.694  35.973  1.00  0.00     0.133 A 
HETATM   10  C20 UNL     1      43.604  21.862  35.107  1.00  0.00     0.094 A 
HETATM   11 CL3  UNL     1      44.526  22.461  33.743  1.00  0.00    -0.079 Cl
ENDROOT
BRANCH   5  12
HETATM   12  C6  UNL     1      41.278  19.114  38.641  1.00  0.00     0.079 C 
BRANCH  12  13
HETATM   13  C7  UNL     1      39.991  18.831  39.393  1.00  0.00     0.049 C 
BRANCH  13  14
HETATM   14  C8  UNL     1      38.910  18.441  38.427  1.00  0.00     0.043 C 
BRANCH  14  15
HETATM   15  C9  UNL     1      37.750  17.843  39.102  1.00  0.00    -0.058 A 
HETATM   16  C10 UNL     1      37.088  16.757  38.589  1.00  0.00     0.009 A 
HETATM   17  C11 UNL     1      36.004  16.201  39.229  1.00  0.00     0.030 A 
HETATM   18  C12 UNL     1      35.547  16.731  40.427  1.00  0.00     0.030 A 
HETATM   19  C17 UNL     1      36.203  17.819  40.950  1.00  0.00     0.030 A 
HETATM   20  C18 UNL     1      37.292  18.363  40.287  1.00  0.00     0.009 A 
BRANCH  18  21
HETATM   21  N7  UNL     1      34.445  16.169  41.080  1.00  0.00    -0.379 N 
BRANCH  21  22
HETATM   22  C13 UNL     1      34.254  14.763  41.245  1.00  0.00     0.138 C 
BRANCH  22  23
HETATM   23  C14 UNL     1      34.844  14.163  42.468  1.00  0.00     0.134 C 
HETATM   24 CL1  UNL     1      36.563  13.787  42.294  1.00  0.00    -0.129 Cl
ENDBRANCH  22  23
ENDBRANCH  21  22
BRANCH  21  25
HETATM   25  C15 UNL     1      33.447  17.066  41.640  1.00  0.00     0.138 C 
BRANCH  25  26
HETATM   26  C16 UNL     1      32.404  17.493  40.652  1.00  0.00     0.134 C 
HETATM   27 CL2  UNL     1      32.825  18.983  39.795  1.00  0.00    -0.129 Cl
ENDBRANCH  25  26
ENDBRANCH  21  25
ENDBRANCH  18  21
ENDBRANCH  14  15
ENDBRANCH  13  14
ENDBRANCH  12  13
ENDBRANCH   5  12
BRANCH   1  28
HETATM   28  N4  UNL     1      44.126  19.677  34.530  1.00  0.00    -0.373 N 
ATOM     29  H4  UNL     1      43.896  19.749  33.539  1.00  0.00     0.161 HD
BRANCH  28  30
HETATM   30  C3  UNL     1      45.068  18.672  34.899  1.00  0.00     0.141 C 
BRANCH  30  31
HETATM   31  C2  UNL     1      46.460  19.221  35.103  1.00  0.00     0.142 C 
BRANCH  31  32
HETATM   32  N3  UNL     1      47.476  18.230  35.274  1.00  0.00    -0.363 N 
HETATM   33  C1  UNL     1      48.713  18.213  34.586  1.00  0.00     0.181 C 
HETATM   34  N1  UNL     1      49.680  17.431  35.006  1.00  0.00    -0.374 N 
HETATM   35  N2  UNL     1      48.921  19.033  33.450  1.00  0.00    -0.064 NA
ATOM     36  H12 UNL     1      50.571  17.419  34.510  1.00  0.00     0.158 HD
ATOM     37  H11 UNL     1      49.531  16.841  35.824  1.00  0.00     0.158 HD
ATOM     38  H3  UNL     1      47.296  17.479  35.940  1.00  0.00     0.162 HD
ENDBRANCH  31  32
ENDBRANCH  30  31
ENDBRANCH  28  30
ENDBRANCH   1  28
TORSDOF 13
ENDMDL
MODEL 2
REMARK VINA RESULT: -6.687722831      0.533      2.261
REMARK  13 active torsions:
REMARK  status: ('A' for Active; 'I' for Inactive)
REMARK       I    between atoms: C1_4  and  N3_6 
REMARK    1  A    between atoms: N3_6  and  C2_8 
REMARK    2  A    between atoms: C2_8  and  C3_9 
REMARK    3  A    between atoms: C3_9  and  N4_10 
REMARK    4  A    between atoms: N4_10  and  C4_12 
REMARK    5  A    between atoms: N6_16  and  C6_18 
REMARK    6  A    between atoms: C6_18  and  C7_19 
REMARK    7  A    between atoms: C7_19  and  C8_20 
REMARK    8  A    between atoms: C8_20  and  C9_21 
REMARK    9  A    between atoms: C12_24  and  N7_25 
REMARK   10  A    between atoms: N7_25  and  C13_26 
REMARK   11  A    between atoms: N7_25  and  C15_29 
REMARK   12  A    between atoms: C13_26  and  C14_27 
REMARK   13  A    between atoms: C15_29  and  C16_30 
ROOT
HETATM    1  C4  UNL     1      43.207  20.124  35.732  1.00  0.00     0.140 A 
HETATM    2  N5  UNL     1      42.505  19.648  36.789  1.00  0.00    -0.175 N 
ATOM      3  H5  UNL     1      42.499  18.639  36.937  1.00  0.00     0.186 HD
HETATM    4  C5  UNL     1      41.817  20.406  37.654  1.00  0.00     0.683 A 
HETATM    5  N6  UNL     1      41.139  19.991  38.658  1.00  0.00    -0.205 N 
ATOM      6  H6  UNL     1      40.668  20.695  39.226  1.00  0.00     0.183 HD
HETATM    7  N8  UNL     1      41.863  21.760  37.401  1.00  0.00    -0.200 N 
ATOM      8  H8  UNL     1      41.358  22.387  38.027  1.00  0.00     0.183 HD
HETATM    9  C19 UNL     1      42.536  22.290  36.378  1.00  0.00     0.133 A 
HETATM   10  C20 UNL     1      43.228  21.481  35.514  1.00  0.00     0.094 A 
HETATM   11 CL3  UNL     1      44.132  22.113  34.152  1.00  0.00    -0.079 Cl
ENDROOT
BRANCH   5  12
HETATM   12  C6  UNL     1      40.992  18.653  39.042  1.00  0.00     0.079 C 
BRANCH  12  13
HETATM   13  C7  UNL     1      39.751  17.955  38.516  1.00  0.00     0.049 C 
BRANCH  13  14
HETATM   14  C8  UNL     1      38.554  18.845  38.684  1.00  0.00     0.043 C 
BRANCH  14  15
HETATM   15  C9  UNL     1      37.407  18.131  39.262  1.00  0.00    -0.058 A 
HETATM   16  C10 UNL     1      36.676  17.223  38.540  1.00  0.00     0.009 A 
HETATM   17  C11 UNL     1      35.604  16.555  39.089  1.00  0.00     0.030 A 
HETATM   18  C12 UNL     1      35.231  16.787  40.405  1.00  0.00     0.030 A 
HETATM   19  C17 UNL     1      35.957  17.695  41.137  1.00  0.00     0.030 A 
HETATM   20  C18 UNL     1      37.032  18.356  40.563  1.00  0.00     0.009 A 
BRANCH  18  21
HETATM   21  N7  UNL     1      34.142  16.112  40.966  1.00  0.00    -0.379 N 
BRANCH  21  22
HETATM   22  C13 UNL     1      32.932  16.756  41.367  1.00  0.00     0.138 C 
BRANCH  22  23
HETATM   23  C14 UNL     1      32.067  17.260  40.270  1.00  0.00     0.134 C 
HETATM   24 CL1  UNL     1      32.423  18.933  39.821  1.00  0.00    -0.129 Cl
ENDBRANCH  22  23
ENDBRANCH  21  22
BRANCH  21  25
HETATM   25  C15 UNL     1      34.240  14.671  41.134  1.00  0.00     0.138 C 
BRANCH  25  26
HETATM   26  C16 UNL     1      34.901  14.260  42.414  1.00  0.00     0.134 C 
HETATM   27 CL2  UNL     1      36.622  13.891  42.221  1.00  0.00    -0.129 Cl
ENDBRANCH  25  26
ENDBRANCH  21  25
ENDBRANCH  18  21
ENDBRANCH  14  15
ENDBRANCH  13  14
ENDBRANCH  12  13
ENDBRANCH   5  12
BRANCH   1  28
HETATM   28  N4  UNL     1      43.827  19.316  34.936  1.00  0.00    -0.373 N 
ATOM     29  H4  UNL     1      43.518  19.301  33.965  1.00  0.00     0.161 HD
BRANCH  28  30
HETATM   30  C3  UNL     1      44.901  18.444  35.282  1.00  0.00     0.141 C 
BRANCH  30  31
HETATM   31  C2  UNL     1      46.258  19.045  35.001  1.00  0.00     0.142 C 
BRANCH  31  32
HETATM   32  N3  UNL     1      47.359  18.152  35.184  1.00  0.00    -0.363 N 
HETATM   33  C1  UNL     1      48.605  18.259  34.522  1.00  0.00     0.181 C 
HETATM   34  N1  UNL     1      49.632  17.566  34.954  1.00  0.00    -0.374 N 
HETATM   35  N2  UNL     1      48.757  19.107  33.397  1.00  0.00    -0.064 NA
ATOM     36  H12 UNL     1      50.531  17.644  34.477  1.00  0.00     0.158 HD
ATOM     37  H11 UNL     1      49.523  16.956  35.764  1.00  0.00     0.158 HD
ATOM     38  H3  UNL     1      47.237  17.380  35.839  1.00  0.00     0.162 HD
ENDBRANCH  31  32
ENDBRANCH  30  31
ENDBRANCH  28  30
ENDBRANCH   1  28
TORSDOF 13
ENDMDL
MODEL 3
REMARK VINA RESULT: -6.680918471      2.958      3.817
REMARK  13 active torsions:
REMARK  status: ('A' for Active; 'I' for Inactive)
REMARK       I    between atoms: C1_4  and  N3_6 
REMARK    1  A    between atoms: N3_6  and  C2_8 
REMARK    2  A    between atoms: C2_8  and  C3_9 
REMARK    3  A    between atoms: C3_9  and  N4_10 
REMARK    4  A    between atoms: N4_10  and  C4_12 
REMARK    5  A    between atoms: N6_16  and  C6_18 
REMARK    6  A    between atoms: C6_18  and  C7_19 
REMARK    7  A    between atoms: C7_19  and  C8_20 
REMARK    8  A    between atoms: C8_20  and  C9_21 
REMARK    9  A    between atoms: C12_24  and  N7_25 
REMARK   10  A    between atoms: N7_25  and  C13_26 
REMARK   11  A    between atoms: N7_25  and  C15_29 
REMARK   12  A    between atoms: C13_26  and  C14_27 
REMARK   13  A    between atoms: C15_29  and  C16_30 
ROOT
HETATM    1  C4  UNL     1      45.086  15.811  36.947  1.00  0.00     0.140 A 
HETATM    2  N5  UNL     1      44.110  16.527  37.555  1.00  0.00    -0.175 N 
ATOM      3  H5  UNL     1      44.140  17.542  37.463  1.00  0.00     0.186 HD
HETATM    4  C5  UNL     1      43.107  15.999  38.270  1.00  0.00     0.683 A 
HETATM    5  N6  UNL     1      42.172  16.644  38.862  1.00  0.00    -0.205 N 
ATOM      6  H6  UNL     1      41.476  16.097  39.370  1.00  0.00     0.183 HD
HETATM    7  N8  UNL     1      43.120  14.624  38.358  1.00  0.00    -0.200 N 
ATOM      8  H8  UNL     1      42.380  14.166  38.891  1.00  0.00     0.183 HD
HETATM    9  C19 UNL     1      44.052  13.864  37.783  1.00  0.00     0.133 A 
HETATM   10  C20 UNL     1      45.064  14.441  37.059  1.00  0.00     0.094 A 
HETATM   11 CL3  UNL     1      46.319  13.501  36.278  1.00  0.00    -0.079 Cl
ENDROOT
BRANCH   5  12
HETATM   12  C6  UNL     1      42.024  18.037  38.870  1.00  0.00     0.079 C 
BRANCH  12  13
HETATM   13  C7  UNL     1      40.602  18.542  39.023  1.00  0.00     0.049 C 
BRANCH  13  14
HETATM   14  C8  UNL     1      39.685  17.768  38.122  1.00  0.00     0.043 C 
BRANCH  14  15
HETATM   15  C9  UNL     1      38.324  17.665  38.668  1.00  0.00    -0.058 A 
HETATM   16  C10 UNL     1      37.861  18.519  39.635  1.00  0.00     0.009 A 
HETATM   17  C11 UNL     1      36.584  18.419  40.139  1.00  0.00     0.030 A 
HETATM   18  C12 UNL     1      35.719  17.438  39.674  1.00  0.00     0.030 A 
HETATM   19  C17 UNL     1      36.174  16.577  38.704  1.00  0.00     0.030 A 
HETATM   20  C18 UNL     1      37.464  16.697  38.212  1.00  0.00     0.009 A 
BRANCH  18  21
HETATM   21  N7  UNL     1      34.422  17.332  40.184  1.00  0.00    -0.379 N 
BRANCH  21  22
HETATM   22  C13 UNL     1      33.910  16.153  40.808  1.00  0.00     0.138 C 
BRANCH  22  23
HETATM   23  C14 UNL     1      34.416  15.866  42.174  1.00  0.00     0.134 C 
HETATM   24 CL1  UNL     1      35.914  14.926  42.173  1.00  0.00    -0.129 Cl
ENDBRANCH  22  23
ENDBRANCH  21  22
BRANCH  21  25
HETATM   25  C15 UNL     1      33.550  18.491  40.091  1.00  0.00     0.138 C 
BRANCH  25  26
HETATM   26  C16 UNL     1      32.092  18.147  40.100  1.00  0.00     0.134 C 
HETATM   27 CL2  UNL     1      31.052  19.509  39.655  1.00  0.00    -0.129 Cl
ENDBRANCH  25  26
ENDBRANCH  21  25
ENDBRANCH  18  21
ENDBRANCH  14  15
ENDBRANCH  13  14
ENDBRANCH  12  13
ENDBRANCH   5  12
BRANCH   1  28
HETATM   28  N4  UNL     1      46.028  16.406  36.292  1.00  0.00    -0.373 N 
ATOM     29  H4  UNL     1      46.966  16.353  36.686  1.00  0.00     0.161 HD
BRANCH  28  30
HETATM   30  C3  UNL     1      45.884  17.130  35.070  1.00  0.00     0.141 C 
BRANCH  30  31
HETATM   31  C2  UNL     1      46.378  18.553  35.172  1.00  0.00     0.142 C 
BRANCH  31  32
HETATM   32  N3  UNL     1      47.796  18.688  35.293  1.00  0.00    -0.363 N 
HETATM   33  C1  UNL     1      48.656  19.138  34.263  1.00  0.00     0.181 C 
HETATM   34  N1  UNL     1      49.888  19.486  34.551  1.00  0.00    -0.374 N 
HETATM   35  N2  UNL     1      48.201  19.219  32.924  1.00  0.00    -0.064 NA
ATOM     36  H12 UNL     1      50.508  19.811  33.808  1.00  0.00     0.158 HD
ATOM     37  H11 UNL     1      50.216  19.428  35.514  1.00  0.00     0.158 HD
ATOM     38  H3  UNL     1      48.220  18.440  36.187  1.00  0.00     0.162 HD
ENDBRANCH  31  32
ENDBRANCH  30  31
ENDBRANCH  28  30
ENDBRANCH   1  28
TORSDOF 13
ENDMDL
MODEL 4
REMARK VINA RESULT: -6.646455251      2.801      4.226
REMARK  13 active torsions:
REMARK  status: ('A' for Active; 'I' for Inactive)
REMARK       I    between atoms: C1_4  and  N3_6 
REMARK    1  A    between atoms: N3_6  and  C2_8 
REMARK    2  A    between atoms: C2_8  and  C3_9 
REMARK    3  A    between atoms: C3_9  and  N4_10 
REMARK    4  A    between atoms: N4_10  and  C4_12 
REMARK    5  A    between atoms: N6_16  and  C6_18 
REMARK    6  A    between atoms: C6_18  and  C7_19 
REMARK    7  A    between atoms: C7_19  and  C8_20 
REMARK    8  A    between atoms: C8_20  and  C9_21 
REMARK    9  A    between atoms: C12_24  and  N7_25 
REMARK   10  A    between atoms: N7_25  and  C13_26 
REMARK   11  A    between atoms: N7_25  and  C15_29 
REMARK   12  A    between atoms: C13_26  and  C14_27 
REMARK   13  A    between atoms: C15_29  and  C16_30 
ROOT
HETATM    1  C4  UNL     1      44.977  15.959  36.937  1.00  0.00     0.140 A 
HETATM    2  N5  UNL     1      43.990  16.703  37.492  1.00  0.00    -0.175 N 
ATOM      3  H5  UNL     1      44.048  17.716  37.392  1.00  0.00     0.186 HD
HETATM    4  C5  UNL     1      42.942  16.205  38.162  1.00  0.00     0.683 A 
HETATM    5  N6  UNL     1      41.995  16.877  38.703  1.00  0.00    -0.205 N 
ATOM      6  H6  UNL     1      41.264  16.351  39.182  1.00  0.00     0.183 HD
HETATM    7  N8  UNL     1      42.919  14.831  38.263  1.00  0.00    -0.200 N 
ATOM      8  H8  UNL     1      42.145  14.395  38.763  1.00  0.00     0.183 HD
HETATM    9  C19 UNL     1      43.860  14.044  37.739  1.00  0.00     0.133 A 
HETATM   10  C20 UNL     1      44.918  14.591  37.060  1.00  0.00     0.094 A 
HETATM   11 CL3  UNL     1      46.186  13.615  36.347  1.00  0.00    -0.079 Cl
ENDROOT
BRANCH   5  12
HETATM   12  C6  UNL     1      41.880  18.273  38.692  1.00  0.00     0.079 C 
BRANCH  12  13
HETATM   13  C7  UNL     1      40.527  18.820  39.107  1.00  0.00     0.049 C 
BRANCH  13  14
HETATM   14  C8  UNL     1      39.467  18.331  38.162  1.00  0.00     0.043 C 
BRANCH  14  15
HETATM   15  C9  UNL     1      38.286  17.816  38.869  1.00  0.00    -0.058 A 
HETATM   16  C10 UNL     1      37.695  18.504  39.897  1.00  0.00     0.009 A 
HETATM   17  C11 UNL     1      36.587  18.017  40.552  1.00  0.00     0.030 A 
HETATM   18  C12 UNL     1      36.030  16.800  40.183  1.00  0.00     0.030 A 
HETATM   19  C17 UNL     1      36.615  16.103  39.154  1.00  0.00     0.030 A 
HETATM   20  C18 UNL     1      37.731  16.613  38.509  1.00  0.00     0.009 A 
BRANCH  18  21
HETATM   21  N7  UNL     1      34.905  16.301  40.846  1.00  0.00    -0.379 N 
BRANCH  21  22
HETATM   22  C13 UNL     1      33.960  17.124  41.532  1.00  0.00     0.138 C 
BRANCH  22  23
HETATM   23  C14 UNL     1      32.803  17.597  40.730  1.00  0.00     0.134 C 
HETATM   24 CL1  UNL     1      33.161  19.054  39.793  1.00  0.00    -0.129 Cl
ENDBRANCH  22  23
ENDBRANCH  21  22
BRANCH  21  25
HETATM   25  C15 UNL     1      34.673  14.866  40.822  1.00  0.00     0.138 C 
BRANCH  25  26
HETATM   26  C16 UNL     1      34.990  14.185  42.118  1.00  0.00     0.134 C 
HETATM   27 CL2  UNL     1      36.719  13.873  42.337  1.00  0.00    -0.129 Cl
ENDBRANCH  25  26
ENDBRANCH  21  25
ENDBRANCH  18  21
ENDBRANCH  14  15
ENDBRANCH  13  14
ENDBRANCH  12  13
ENDBRANCH   5  12
BRANCH   1  28
HETATM   28  N4  UNL     1      45.962  16.526  36.322  1.00  0.00    -0.373 N 
ATOM     29  H4  UNL     1      46.879  16.458  36.763  1.00  0.00     0.161 HD
BRANCH  28  30
HETATM   30  C3  UNL     1      45.894  17.238  35.088  1.00  0.00     0.141 C 
BRANCH  30  31
HETATM   31  C2  UNL     1      46.456  18.637  35.187  1.00  0.00     0.142 C 
BRANCH  31  32
HETATM   32  N3  UNL     1      47.881  18.705  35.273  1.00  0.00    -0.363 N 
HETATM   33  C1  UNL     1      48.734  19.150  34.235  1.00  0.00     0.181 C 
HETATM   34  N1  UNL     1      49.987  19.435  34.499  1.00  0.00    -0.374 N 
HETATM   35  N2  UNL     1      48.248  19.293  32.912  1.00  0.00    -0.064 NA
ATOM     36  H12 UNL     1      50.601  19.756  33.750  1.00  0.00     0.158 HD
ATOM     37  H11 UNL     1      50.337  19.332  35.452  1.00  0.00     0.158 HD
ATOM     38  H3  UNL     1      48.316  18.412  36.148  1.00  0.00     0.162 HD
ENDBRANCH  31  32
ENDBRANCH  30  31
ENDBRANCH  28  30
ENDBRANCH   1  28
TORSDOF 13
ENDMDL
MODEL 5
REMARK VINA RESULT: -6.521588016      4.543      6.811
REMARK  13 active torsions:
REMARK  status: ('A' for Active; 'I' for Inactive)
REMARK       I    between atoms: C1_4  and  N3_6 
REMARK    1  A    between atoms: N3_6  and  C2_8 
REMARK    2  A    between atoms: C2_8  and  C3_9 
REMARK    3  A    between atoms: C3_9  and  N4_10 
REMARK    4  A    between atoms: N4_10  and  C4_12 
REMARK    5  A    between atoms: N6_16  and  C6_18 
REMARK    6  A    between atoms: C6_18  and  C7_19 
REMARK    7  A    between atoms: C7_19  and  C8_20 
REMARK    8  A    between atoms: C8_20  and  C9_21 
REMARK    9  A    between atoms: C12_24  and  N7_25 
REMARK   10  A    between atoms: N7_25  and  C13_26 
REMARK   11  A    between atoms: N7_25  and  C15_29 
REMARK   12  A    between atoms: C13_26  and  C14_27 
REMARK   13  A    between atoms: C15_29  and  C16_30 
ROOT
HETATM    1  C4  UNL     1      46.572  18.166  34.878  1.00  0.00     0.140 A 
HETATM    2  N5  UNL     1      46.214  17.153  35.705  1.00  0.00    -0.175 N 
ATOM      3  H5  UNL     1      45.897  17.398  36.642  1.00  0.00     0.186 HD
HETATM    4  C5  UNL     1      46.247  15.854  35.380  1.00  0.00     0.683 A 
HETATM    5  N6  UNL     1      45.922  14.872  36.136  1.00  0.00    -0.205 N 
ATOM      6  H6  UNL     1      46.001  13.934  35.743  1.00  0.00     0.183 HD
HETATM    7  N8  UNL     1      46.684  15.587  34.101  1.00  0.00    -0.200 N 
ATOM      8  H8  UNL     1      46.730  14.614  33.797  1.00  0.00     0.183 HD
HETATM    9  C19 UNL     1      47.050  16.538  33.240  1.00  0.00     0.133 A 
HETATM   10  C20 UNL     1      47.003  17.858  33.609  1.00  0.00     0.094 A 
HETATM   11 CL3  UNL     1      47.469  19.155  32.527  1.00  0.00    -0.079 Cl
ENDROOT
BRANCH   5  12
HETATM   12  C6  UNL     1      45.466  14.978  37.456  1.00  0.00     0.079 C 
BRANCH  12  13
HETATM   13  C7  UNL     1      43.971  14.807  37.648  1.00  0.00     0.049 C 
BRANCH  13  14
HETATM   14  C8  UNL     1      43.517  15.591  38.845  1.00  0.00     0.043 C 
BRANCH  14  15
HETATM   15  C9  UNL     1      42.878  16.860  38.469  1.00  0.00    -0.058 A 
HETATM   16  C10 UNL     1      42.174  17.616  39.370  1.00  0.00     0.009 A 
HETATM   17  C11 UNL     1      41.582  18.806  39.011  1.00  0.00     0.030 A 
HETATM   18  C12 UNL     1      41.683  19.277  37.710  1.00  0.00     0.030 A 
HETATM   19  C17 UNL     1      42.386  18.526  36.799  1.00  0.00     0.030 A 
HETATM   20  C18 UNL     1      42.974  17.331  37.183  1.00  0.00     0.009 A 
BRANCH  18  21
HETATM   21  N7  UNL     1      41.081  20.484  37.341  1.00  0.00    -0.379 N 
BRANCH  21  22
HETATM   22  C13 UNL     1      39.755  20.581  36.818  1.00  0.00     0.138 C 
BRANCH  22  23
HETATM   23  C14 UNL     1      38.684  20.870  37.804  1.00  0.00     0.134 C 
HETATM   24 CL1  UNL     1      38.057  19.416  38.590  1.00  0.00    -0.129 Cl
ENDBRANCH  22  23
ENDBRANCH  21  22
BRANCH  21  25
HETATM   25  C15 UNL     1      41.840  21.712  37.517  1.00  0.00     0.138 C 
BRANCH  25  26
HETATM   26  C16 UNL     1      41.546  22.752  36.479  1.00  0.00     0.134 C 
HETATM   27 CL2  UNL     1      40.718  24.174  37.132  1.00  0.00    -0.129 Cl
ENDBRANCH  25  26
ENDBRANCH  21  25
ENDBRANCH  18  21
ENDBRANCH  14  15
ENDBRANCH  13  14
ENDBRANCH  12  13
ENDBRANCH   5  12
BRANCH   1  28
HETATM   28  N4  UNL     1      46.527  19.393  35.281  1.00  0.00    -0.373 N 
ATOM     29  H4  UNL     1      47.329  19.732  35.810  1.00  0.00     0.161 HD
BRANCH  28  30
HETATM   30  C3  UNL     1      45.465  20.319  35.060  1.00  0.00     0.141 C 
BRANCH  30  31
HETATM   31  C2  UNL     1      45.937  21.754  35.031  1.00  0.00     0.142 C 
BRANCH  31  32
HETATM   32  N3  UNL     1      46.712  22.107  33.883  1.00  0.00    -0.363 N 
HETATM   33  C1  UNL     1      46.239  22.877  32.794  1.00  0.00     0.181 C 
HETATM   34  N1  UNL     1      47.093  23.375  31.931  1.00  0.00    -0.374 N 
HETATM   35  N2  UNL     1      44.854  23.119  32.626  1.00  0.00    -0.064 NA
ATOM     36  H12 UNL     1      46.752  23.930  31.146  1.00  0.00     0.158 HD
ATOM     37  H11 UNL     1      48.090  23.201  32.051  1.00  0.00     0.158 HD
ATOM     38  H3  UNL     1      47.677  21.778  33.846  1.00  0.00     0.162 HD
ENDBRANCH  31  32
ENDBRANCH  30  31
ENDBRANCH  28  30
ENDBRANCH   1  28
TORSDOF 13
ENDMDL
