MODEL 1
REMARK VINA RESULT: -6.978058100      0.000      0.000
REMARK  13 active torsions:
REMARK  status: ('A' for Active; 'I' for Inactive)
REMARK    1  A    between atoms: C1_2  and  C2_3 
REMARK    2  A    between atoms: C2_3  and  C3_4 
REMARK    3  A    between atoms: C3_4  and  N2_5 
REMARK       I    between atoms: N2_5  and  C4_7 
REMARK    4  A    between atoms: C4_7  and  C5_9 
REMARK    5  A    between atoms: N3_12  and  C8_13 
REMARK    6  A    between atoms: C8_13  and  C9_14 
REMARK    7  A    between atoms: C9_14  and  C10_15 
REMARK    8  A    between atoms: C10_15  and  C11_16 
REMARK    9  A    between atoms: C11_16  and  C12_17 
REMARK   10  A    between atoms: C12_17  and  C13_18 
REMARK   11  A    between atoms: C13_18  and  C14_19 
REMARK   12  A    between atoms: C14_19  and  N4_20 
REMARK   13  A    between atoms: N5_31  and  O2_33 
ROOT
HETATM    1  C5  UNL     1      43.207  21.369  35.732  1.00  0.00     0.034 A 
HETATM    2  C6  UNL     1      43.500  20.089  35.331  1.00  0.00     0.034 A 
HETATM    3  C7  UNL     1      44.751  19.727  34.851  1.00  0.00     0.091 A 
HETATM    4  N3  UNL     1      45.749  20.618  34.752  1.00  0.00    -0.366 N 
HETATM    5  C20 UNL     1      45.476  21.877  35.142  1.00  0.00     0.091 A 
HETATM    6  C21 UNL     1      44.262  22.283  35.620  1.00  0.00     0.034 A 
ENDROOT
BRANCH   4   7
HETATM    7  C8  UNL     1      47.062  20.272  34.249  1.00  0.00     0.128 C 
BRANCH   7   8
HETATM    8  C9  UNL     1      47.934  19.553  35.221  1.00  0.00     0.020 C 
BRANCH   8   9
HETATM    9  C10 UNL     1      48.656  18.401  34.571  1.00  0.00     0.002 C 
BRANCH   9  10
HETATM   10  C11 UNL     1      47.714  17.449  33.848  1.00  0.00     0.000 C 
BRANCH  10  11
HETATM   11  C12 UNL     1      47.365  16.277  34.725  1.00  0.00     0.002 C 
BRANCH  11  12
HETATM   12  C13 UNL     1      45.973  16.315  35.238  1.00  0.00     0.020 C 
BRANCH  12  13
HETATM   13  C14 UNL     1      45.584  15.297  36.247  1.00  0.00     0.128 C 
BRANCH  13  14
HETATM   14  N4  UNL     1      44.290  15.510  36.863  1.00  0.00    -0.363 N 
HETATM   15  C15 UNL     1      43.427  14.514  37.047  1.00  0.00     0.117 A 
HETATM   16  C16 UNL     1      42.171  14.667  37.625  1.00  0.00     0.089 A 
HETATM   17 CL1  UNL     1      41.084  13.310  37.836  1.00  0.00    -0.080 Cl
HETATM   18  C17 UNL     1      41.805  15.930  38.030  1.00  0.00     0.162 A 
HETATM   19  F1  UNL     1      40.597  16.171  38.604  1.00  0.00    -0.202 F 
HETATM   20  C18 UNL     1      42.689  16.964  37.845  1.00  0.00     0.089 A 
HETATM   21 CL2  UNL     1      42.222  18.581  38.363  1.00  0.00    -0.080 Cl
HETATM   22  C19 UNL     1      43.916  16.757  37.269  1.00  0.00     0.117 A 
ENDBRANCH  13  14
ENDBRANCH  12  13
ENDBRANCH  11  12
ENDBRANCH  10  11
ENDBRANCH   9  10
ENDBRANCH   8   9
ENDBRANCH   7   8
ENDBRANCH   4   7
BRANCH   1  23
HETATM   23  C4  UNL     1      41.920  21.819  36.243  1.00  0.00     0.251 C 
HETATM   24  N2  UNL     1      41.839  22.677  37.356  1.00  0.00    -0.356 N 
ATOM     25  H2  UNL     1      42.705  22.976  37.804  1.00  0.00     0.162 HD
HETATM   26  O1  UNL     1      40.871  21.406  35.644  1.00  0.00    -0.268 OA
BRANCH  24  27
HETATM   27  C3  UNL     1      40.596  23.150  37.888  1.00  0.00     0.130 C 
BRANCH  27  28
HETATM   28  C2  UNL     1      40.388  24.592  37.553  1.00  0.00     0.094 C 
BRANCH  28  29
HETATM   29  C1  UNL     1      41.031  25.487  38.548  1.00  0.00     0.114 C 
HETATM   30  N1  UNL     1      40.334  25.839  39.719  1.00  0.00    -0.086 NA
HETATM   31  N5  UNL     1      42.211  25.921  38.318  1.00  0.00    -0.259 N 
ATOM     32  H5  UNL     1      42.644  26.534  39.007  1.00  0.00     0.195 HD
BRANCH  31  33
HETATM   33  O2  UNL     1      42.925  25.604  37.192  1.00  0.00    -0.289 OA
ATOM     34  H2  UNL     1      42.957  26.157  36.419  1.00  0.00     0.244 HD
ENDBRANCH  31  33
ENDBRANCH  28  29
ENDBRANCH  27  28
ENDBRANCH  24  27
ENDBRANCH   1  23
TORSDOF 13
ENDMDL
MODEL 2
REMARK VINA RESULT: -6.817615425      0.747      2.057
REMARK  13 active torsions:
REMARK  status: ('A' for Active; 'I' for Inactive)
REMARK    1  A    between atoms: C1_2  and  C2_3 
REMARK    2  A    between atoms: C2_3  and  C3_4 
REMARK    3  A    between atoms: C3_4  and  N2_5 
REMARK       I    between atoms: N2_5  and  C4_7 
REMARK    4  A    between atoms: C4_7  and  C5_9 
REMARK    5  A    between atoms: N3_12  and  C8_13 
REMARK    6  A    between atoms: C8_13  and  C9_14 
REMARK    7  A    between atoms: C9_14  and  C10_15 
REMARK    8  A    between atoms: C10_15  and  C11_16 
REMARK    9  A    between atoms: C11_16  and  C12_17 
REMARK   10  A    between atoms: C12_17  and  C13_18 
REMARK   11  A    between atoms: C13_18  and  C14_19 
REMARK   12  A    between atoms: C14_19  and  N4_20 
REMARK   13  A    between atoms: N5_31  and  O2_33 
ROOT
HETATM    1  C5  UNL     1      43.197  21.325  35.813  1.00  0.00     0.034 A 
HETATM    2  C6  UNL     1      44.316  22.103  35.640  1.00  0.00     0.034 A 
HETATM    3  C7  UNL     1      45.521  21.582  35.191  1.00  0.00     0.091 A 
HETATM    4  N3  UNL     1      45.658  20.279  34.902  1.00  0.00    -0.366 N 
HETATM    5  C20 UNL     1      44.570  19.506  35.067  1.00  0.00     0.091 A 
HETATM    6  C21 UNL     1      43.362  19.969  35.506  1.00  0.00     0.034 A 
ENDROOT
BRANCH   4   7
HETATM    7  C8  UNL     1      46.905  19.706  34.439  1.00  0.00     0.128 C 
BRANCH   7   8
HETATM    8  C9  UNL     1      46.782  18.354  33.824  1.00  0.00     0.020 C 
BRANCH   8   9
HETATM    9  C10 UNL     1      47.705  17.361  34.480  1.00  0.00     0.002 C 
BRANCH   9  10
HETATM   10  C11 UNL     1      47.111  15.961  34.546  1.00  0.00     0.000 C 
BRANCH  10  11
HETATM   11  C12 UNL     1      45.679  16.010  35.006  1.00  0.00     0.002 C 
BRANCH  11  12
HETATM   12  C13 UNL     1      45.533  16.063  36.481  1.00  0.00     0.020 C 
BRANCH  12  13
HETATM   13  C14 UNL     1      44.603  15.095  37.115  1.00  0.00     0.128 C 
BRANCH  13  14
HETATM   14  N4  UNL     1      43.318  15.642  37.501  1.00  0.00    -0.363 N 
HETATM   15  C15 UNL     1      43.178  16.911  37.876  1.00  0.00     0.117 A 
HETATM   16  C16 UNL     1      41.971  17.482  38.263  1.00  0.00     0.089 A 
HETATM   17 CL1  UNL     1      41.861  19.163  38.746  1.00  0.00    -0.080 Cl
HETATM   18  C17 UNL     1      40.854  16.679  38.256  1.00  0.00     0.162 A 
HETATM   19  F1  UNL     1      39.633  17.153  38.619  1.00  0.00    -0.202 F 
HETATM   20  C18 UNL     1      40.988  15.367  37.870  1.00  0.00     0.089 A 
HETATM   21 CL2  UNL     1      39.559  14.338  37.859  1.00  0.00    -0.080 Cl
HETATM   22  C19 UNL     1      42.203  14.856  37.497  1.00  0.00     0.117 A 
ENDBRANCH  13  14
ENDBRANCH  12  13
ENDBRANCH  11  12
ENDBRANCH  10  11
ENDBRANCH   9  10
ENDBRANCH   8   9
ENDBRANCH   7   8
ENDBRANCH   4   7
BRANCH   1  23
HETATM   23  C4  UNL     1      41.903  21.802  36.280  1.00  0.00     0.251 C 
HETATM   24  N2  UNL     1      41.799  22.646  37.402  1.00  0.00    -0.356 N 
ATOM     25  H2  UNL     1      42.654  22.915  37.889  1.00  0.00     0.162 HD
HETATM   26  O1  UNL     1      40.868  21.425  35.633  1.00  0.00    -0.268 OA
BRANCH  24  27
HETATM   27  C3  UNL     1      40.549  23.144  37.891  1.00  0.00     0.130 C 
BRANCH  27  28
HETATM   28  C2  UNL     1      40.371  24.583  37.530  1.00  0.00     0.094 C 
BRANCH  28  29
HETATM   29  C1  UNL     1      41.026  25.483  38.514  1.00  0.00     0.114 C 
HETATM   30  N1  UNL     1      40.330  25.867  39.674  1.00  0.00    -0.086 NA
HETATM   31  N5  UNL     1      42.216  25.890  38.283  1.00  0.00    -0.259 N 
ATOM     32  H5  UNL     1      42.657  26.506  38.965  1.00  0.00     0.195 HD
BRANCH  31  33
HETATM   33  O2  UNL     1      42.930  25.540  37.167  1.00  0.00    -0.289 OA
ATOM     34  H2  UNL     1      42.630  25.708  36.280  1.00  0.00     0.244 HD
ENDBRANCH  31  33
ENDBRANCH  28  29
ENDBRANCH  27  28
ENDBRANCH  24  27
ENDBRANCH   1  23
TORSDOF 13
ENDMDL
MODEL 3
REMARK VINA RESULT: -6.646633613      3.115      6.973
REMARK  13 active torsions:
REMARK  status: ('A' for Active; 'I' for Inactive)
REMARK    1  A    between atoms: C1_2  and  C2_3 
REMARK    2  A    between atoms: C2_3  and  C3_4 
REMARK    3  A    between atoms: C3_4  and  N2_5 
REMARK       I    between atoms: N2_5  and  C4_7 
REMARK    4  A    between atoms: C4_7  and  C5_9 
REMARK    5  A    between atoms: N3_12  and  C8_13 
REMARK    6  A    between atoms: C8_13  and  C9_14 
REMARK    7  A    between atoms: C9_14  and  C10_15 
REMARK    8  A    between atoms: C10_15  and  C11_16 
REMARK    9  A    between atoms: C11_16  and  C12_17 
REMARK   10  A    between atoms: C12_17  and  C13_18 
REMARK   11  A    between atoms: C13_18  and  C14_19 
REMARK   12  A    between atoms: C14_19  and  N4_20 
REMARK   13  A    between atoms: N5_31  and  O2_33 
ROOT
HETATM    1  C5  UNL     1      44.702  20.919  35.070  1.00  0.00     0.034 A 
HETATM    2  C6  UNL     1      43.695  20.164  35.620  1.00  0.00     0.034 A 
HETATM    3  C7  UNL     1      42.556  20.733  36.171  1.00  0.00     0.091 A 
HETATM    4  N3  UNL     1      42.377  22.062  36.197  1.00  0.00    -0.366 N 
HETATM    5  C20 UNL     1      43.356  22.813  35.662  1.00  0.00     0.091 A 
HETATM    6  C21 UNL     1      44.496  22.303  35.107  1.00  0.00     0.034 A 
ENDROOT
BRANCH   4   7
HETATM    7  C8  UNL     1      41.202  22.683  36.773  1.00  0.00     0.128 C 
BRANCH   7   8
HETATM    8  C9  UNL     1      40.597  21.939  37.913  1.00  0.00     0.020 C 
BRANCH   8   9
HETATM    9  C10 UNL     1      39.203  21.468  37.590  1.00  0.00     0.002 C 
BRANCH   9  10
HETATM   10  C11 UNL     1      38.989  19.997  37.917  1.00  0.00     0.000 C 
BRANCH  10  11
HETATM   11  C12 UNL     1      40.101  19.477  38.788  1.00  0.00     0.002 C 
BRANCH  11  12
HETATM   12  C13 UNL     1      40.645  18.173  38.338  1.00  0.00     0.020 C 
BRANCH  12  13
HETATM   13  C14 UNL     1      42.089  17.913  38.570  1.00  0.00     0.128 C 
BRANCH  13  14
HETATM   14  N4  UNL     1      42.544  16.595  38.177  1.00  0.00    -0.363 N 
HETATM   15  C15 UNL     1      43.800  16.369  37.799  1.00  0.00     0.117 A 
HETATM   16  C16 UNL     1      44.284  15.127  37.405  1.00  0.00     0.089 A 
HETATM   17 CL1  UNL     1      45.952  14.902  36.918  1.00  0.00    -0.080 Cl
HETATM   18  C17 UNL     1      43.405  14.069  37.408  1.00  0.00     0.162 A 
HETATM   19  F1  UNL     1      43.792  12.819  37.038  1.00  0.00    -0.202 F 
HETATM   20  C18 UNL     1      42.107  14.291  37.797  1.00  0.00     0.089 A 
HETATM   21 CL2  UNL     1      40.980  12.938  37.803  1.00  0.00    -0.080 Cl
HETATM   22  C19 UNL     1      41.683  15.538  38.177  1.00  0.00     0.117 A 
ENDBRANCH  13  14
ENDBRANCH  12  13
ENDBRANCH  11  12
ENDBRANCH  10  11
ENDBRANCH   9  10
ENDBRANCH   8   9
ENDBRANCH   7   8
ENDBRANCH   4   7
BRANCH   1  23
HETATM   23  C4  UNL     1      45.922  20.392  34.475  1.00  0.00     0.251 C 
HETATM   24  N2  UNL     1      45.916  19.189  33.745  1.00  0.00    -0.356 N 
ATOM     25  H2  UNL     1      45.034  18.686  33.644  1.00  0.00     0.162 HD
HETATM   26  O1  UNL     1      46.996  21.064  34.642  1.00  0.00    -0.268 OA
BRANCH  24  27
HETATM   27  C3  UNL     1      47.090  18.638  33.138  1.00  0.00     0.130 C 
BRANCH  27  28
HETATM   28  C2  UNL     1      47.750  17.655  34.051  1.00  0.00     0.094 C 
BRANCH  28  29
HETATM   29  C1  UNL     1      49.172  18.003  34.301  1.00  0.00     0.114 C 
HETATM   30  N1  UNL     1      49.726  19.142  33.688  1.00  0.00    -0.086 NA
HETATM   31  N5  UNL     1      49.865  17.256  35.073  1.00  0.00    -0.259 N 
ATOM     32  H5  UNL     1      50.840  17.504  35.239  1.00  0.00     0.195 HD
BRANCH  31  33
HETATM   33  O2  UNL     1      49.366  16.139  35.690  1.00  0.00    -0.289 OA
ATOM     34  H2  UNL     1      49.542  15.254  35.392  1.00  0.00     0.244 HD
ENDBRANCH  31  33
ENDBRANCH  28  29
ENDBRANCH  27  28
ENDBRANCH  24  27
ENDBRANCH   1  23
TORSDOF 13
ENDMDL
MODEL 4
REMARK VINA RESULT: -6.640631455      3.208      6.383
REMARK  13 active torsions:
REMARK  status: ('A' for Active; 'I' for Inactive)
REMARK    1  A    between atoms: C1_2  and  C2_3 
REMARK    2  A    between atoms: C2_3  and  C3_4 
REMARK    3  A    between atoms: C3_4  and  N2_5 
REMARK       I    between atoms: N2_5  and  C4_7 
REMARK    4  A    between atoms: C4_7  and  C5_9 
REMARK    5  A    between atoms: N3_12  and  C8_13 
REMARK    6  A    between atoms: C8_13  and  C9_14 
REMARK    7  A    between atoms: C9_14  and  C10_15 
REMARK    8  A    between atoms: C10_15  and  C11_16 
REMARK    9  A    between atoms: C11_16  and  C12_17 
REMARK   10  A    between atoms: C12_17  and  C13_18 
REMARK   11  A    between atoms: C13_18  and  C14_19 
REMARK   12  A    between atoms: C14_19  and  N4_20 
REMARK   13  A    between atoms: N5_31  and  O2_33 
ROOT
HETATM    1  C5  UNL     1      42.017  22.007  36.263  1.00  0.00     0.034 A 
HETATM    2  C6  UNL     1      41.246  22.653  37.197  1.00  0.00     0.034 A 
HETATM    3  C7  UNL     1      39.941  22.272  37.477  1.00  0.00     0.091 A 
HETATM    4  N3  UNL     1      39.360  21.243  36.843  1.00  0.00    -0.366 N 
HETATM    5  C20 UNL     1      40.105  20.601  35.924  1.00  0.00     0.091 A 
HETATM    6  C21 UNL     1      41.392  20.937  35.613  1.00  0.00     0.034 A 
ENDROOT
BRANCH   4   7
HETATM    7  C8  UNL     1      37.999  20.827  37.108  1.00  0.00     0.128 C 
BRANCH   7   8
HETATM    8  C9  UNL     1      37.818  19.359  37.292  1.00  0.00     0.020 C 
BRANCH   8   9
HETATM    9  C10 UNL     1      38.155  18.930  38.696  1.00  0.00     0.002 C 
BRANCH   9  10
HETATM   10  C11 UNL     1      39.471  18.170  38.779  1.00  0.00     0.000 C 
BRANCH  10  11
HETATM   11  C12 UNL     1      40.558  19.048  39.338  1.00  0.00     0.002 C 
BRANCH  11  12
HETATM   12  C13 UNL     1      41.889  18.802  38.729  1.00  0.00     0.020 C 
BRANCH  12  13
HETATM   13  C14 UNL     1      42.339  17.393  38.605  1.00  0.00     0.128 C 
BRANCH  13  14
HETATM   14  N4  UNL     1      43.198  17.122  37.470  1.00  0.00    -0.363 N 
HETATM   15  C15 UNL     1      44.187  16.234  37.533  1.00  0.00     0.117 A 
HETATM   16  C16 UNL     1      45.043  15.944  36.476  1.00  0.00     0.089 A 
HETATM   17 CL1  UNL     1      46.326  14.760  36.630  1.00  0.00    -0.080 Cl
HETATM   18  C17 UNL     1      44.852  16.623  35.295  1.00  0.00     0.162 A 
HETATM   19  F1  UNL     1      45.642  16.404  34.211  1.00  0.00    -0.202 F 
HETATM   20  C18 UNL     1      43.834  17.542  35.220  1.00  0.00     0.089 A 
HETATM   21 CL2  UNL     1      43.587  18.411  33.709  1.00  0.00    -0.080 Cl
HETATM   22  C19 UNL     1      43.018  17.788  36.294  1.00  0.00     0.117 A 
ENDBRANCH  13  14
ENDBRANCH  12  13
ENDBRANCH  11  12
ENDBRANCH  10  11
ENDBRANCH   9  10
ENDBRANCH   8   9
ENDBRANCH   7   8
ENDBRANCH   4   7
BRANCH   1  23
HETATM   23  C4  UNL     1      43.390  22.352  35.918  1.00  0.00     0.251 C 
HETATM   24  N2  UNL     1      44.324  21.359  35.568  1.00  0.00    -0.356 N 
ATOM     25  H2  UNL     1      44.020  20.385  35.565  1.00  0.00     0.162 HD
HETATM   26  O1  UNL     1      43.712  23.588  35.946  1.00  0.00    -0.268 OA
BRANCH  24  27
HETATM   27  C3  UNL     1      45.680  21.653  35.215  1.00  0.00     0.130 C 
BRANCH  27  28
HETATM   28  C2  UNL     1      46.033  21.038  33.899  1.00  0.00     0.094 C 
BRANCH  28  29
HETATM   29  C1  UNL     1      46.161  22.061  32.830  1.00  0.00     0.114 C 
HETATM   30  N1  UNL     1      45.419  23.254  32.917  1.00  0.00    -0.086 NA
HETATM   31  N5  UNL     1      46.948  21.834  31.848  1.00  0.00    -0.259 N 
ATOM     32  H5  UNL     1      47.029  22.543  31.119  1.00  0.00     0.195 HD
BRANCH  31  33
HETATM   33  O2  UNL     1      47.687  20.687  31.723  1.00  0.00    -0.289 OA
ATOM     34  H2  UNL     1      47.627  20.104  30.975  1.00  0.00     0.244 HD
ENDBRANCH  31  33
ENDBRANCH  28  29
ENDBRANCH  27  28
ENDBRANCH  24  27
ENDBRANCH   1  23
TORSDOF 13
ENDMDL
MODEL 5
REMARK VINA RESULT: -6.597288452      1.297      2.236
REMARK  13 active torsions:
REMARK  status: ('A' for Active; 'I' for Inactive)
REMARK    1  A    between atoms: C1_2  and  C2_3 
REMARK    2  A    between atoms: C2_3  and  C3_4 
REMARK    3  A    between atoms: C3_4  and  N2_5 
REMARK       I    between atoms: N2_5  and  C4_7 
REMARK    4  A    between atoms: C4_7  and  C5_9 
REMARK    5  A    between atoms: N3_12  and  C8_13 
REMARK    6  A    between atoms: C8_13  and  C9_14 
REMARK    7  A    between atoms: C9_14  and  C10_15 
REMARK    8  A    between atoms: C10_15  and  C11_16 
REMARK    9  A    between atoms: C11_16  and  C12_17 
REMARK   10  A    between atoms: C12_17  and  C13_18 
REMARK   11  A    between atoms: C13_18  and  C14_19 
REMARK   12  A    between atoms: C14_19  and  N4_20 
REMARK   13  A    between atoms: N5_31  and  O2_33 
ROOT
HETATM    1  C5  UNL     1      43.696  21.548  35.570  1.00  0.00     0.034 A 
HETATM    2  C6  UNL     1      44.954  22.098  35.602  1.00  0.00     0.034 A 
HETATM    3  C7  UNL     1      45.904  21.841  34.624  1.00  0.00     0.091 A 
HETATM    4  N3  UNL     1      45.640  21.034  33.585  1.00  0.00    -0.366 N 
HETATM    5  C20 UNL     1      44.411  20.488  33.541  1.00  0.00     0.091 A 
HETATM    6  C21 UNL     1      43.442  20.709  34.479  1.00  0.00     0.034 A 
ENDROOT
BRANCH   4   7
HETATM    7  C8  UNL     1      46.613  20.742  32.553  1.00  0.00     0.128 C 
BRANCH   7   8
HETATM    8  C9  UNL     1      46.953  19.299  32.405  1.00  0.00     0.020 C 
BRANCH   8   9
HETATM    9  C10 UNL     1      47.629  18.759  33.638  1.00  0.00     0.002 C 
BRANCH   9  10
HETATM   10  C11 UNL     1      46.814  17.675  34.329  1.00  0.00     0.000 C 
BRANCH  10  11
HETATM   11  C12 UNL     1      47.363  16.311  34.012  1.00  0.00     0.002 C 
BRANCH  11  12
HETATM   12  C13 UNL     1      46.568  15.202  34.595  1.00  0.00     0.020 C 
BRANCH  12  13
HETATM   13  C14 UNL     1      46.571  15.055  36.072  1.00  0.00     0.128 C 
BRANCH  13  14
HETATM   14  N4  UNL     1      45.270  14.824  36.667  1.00  0.00    -0.363 N 
HETATM   15  C15 UNL     1      44.685  15.726  37.450  1.00  0.00     0.117 A 
HETATM   16  C16 UNL     1      43.444  15.549  38.052  1.00  0.00     0.089 A 
HETATM   17 CL1  UNL     1      42.732  16.782  39.073  1.00  0.00    -0.080 Cl
HETATM   18  C17 UNL     1      42.785  14.365  37.818  1.00  0.00     0.162 A 
HETATM   19  F1  UNL     1      41.567  14.107  38.365  1.00  0.00    -0.202 F 
HETATM   20  C18 UNL     1      43.380  13.427  37.011  1.00  0.00     0.089 A 
HETATM   21 CL2  UNL     1      42.538  11.910  36.710  1.00  0.00    -0.080 Cl
HETATM   22  C19 UNL     1      44.606  13.654  36.443  1.00  0.00     0.117 A 
ENDBRANCH  13  14
ENDBRANCH  12  13
ENDBRANCH  11  12
ENDBRANCH  10  11
ENDBRANCH   9  10
ENDBRANCH   8   9
ENDBRANCH   7   8
ENDBRANCH   4   7
BRANCH   1  23
HETATM   23  C4  UNL     1      42.652  21.772  36.560  1.00  0.00     0.251 C 
HETATM   24  N2  UNL     1      41.848  22.927  36.522  1.00  0.00    -0.356 N 
ATOM     25  H2  UNL     1      42.016  23.612  35.785  1.00  0.00     0.162 HD
HETATM   26  O1  UNL     1      42.494  20.881  37.462  1.00  0.00    -0.268 OA
BRANCH  24  27
HETATM   27  C3  UNL     1      40.806  23.184  37.470  1.00  0.00     0.130 C 
BRANCH  27  28
HETATM   28  C2  UNL     1      40.403  24.623  37.441  1.00  0.00     0.094 C 
BRANCH  28  29
HETATM   29  C1  UNL     1      41.076  25.405  38.509  1.00  0.00     0.114 C 
HETATM   30  N1  UNL     1      40.398  25.660  39.716  1.00  0.00    -0.086 NA
HETATM   31  N5  UNL     1      42.263  25.833  38.306  1.00  0.00    -0.259 N 
ATOM     32  H5  UNL     1      42.717  26.369  39.046  1.00  0.00     0.195 HD
BRANCH  31  33
HETATM   33  O2  UNL     1      42.959  25.609  37.148  1.00  0.00    -0.289 OA
ATOM     34  H2  UNL     1      43.703  26.133  36.874  1.00  0.00     0.244 HD
ENDBRANCH  31  33
ENDBRANCH  28  29
ENDBRANCH  27  28
ENDBRANCH  24  27
ENDBRANCH   1  23
TORSDOF 13
ENDMDL
