MODEL 1
REMARK VINA RESULT: -5.952604471      0.000      0.000
REMARK  12 active torsions:
REMARK  status: ('A' for Active; 'I' for Inactive)
REMARK    1  A    between atoms: N1_1  and  C1_5 
REMARK    2  A    between atoms: C1_5  and  C2_6 
REMARK    3  A    between atoms: C2_6  and  C3_7 
REMARK    4  A    between atoms: C3_7  and  C4_8 
REMARK    5  A    between atoms: C4_8  and  N2_9 
REMARK    6  A    between atoms: N2_9  and  C5_10 
REMARK       I    between atoms: N2_9  and  C14_29 
REMARK    7  A    between atoms: C5_10  and  C6_11 
REMARK    8  A    between atoms: C6_11  and  C7_12 
REMARK    9  A    between atoms: C7_12  and  C8_13 
REMARK   10  A    between atoms: C8_13  and  N3_14 
REMARK       I    between atoms: N3_14  and  C9_16 
REMARK       I    between atoms: C9_16  and  N5_20 
REMARK   11  A    between atoms: N5_20  and  C10_22 
REMARK   12  A    between atoms: C14_29  and  C15_31 
ROOT
HETATM    1  C7  UNL     1      42.308  21.105  35.011  1.00  0.00     0.022 C 
ENDROOT
BRANCH   1   2
HETATM    2  C6  UNL     1      41.682  20.428  36.161  1.00  0.00     0.021 C 
BRANCH   2   3
HETATM    3  C5  UNL     1      41.308  21.347  37.262  1.00  0.00     0.126 C 
BRANCH   3   4
HETATM    4  N2  UNL     1      39.896  21.539  37.355  1.00  0.00    -0.351 N 
HETATM    5  C14 UNL     1      39.009  20.733  38.088  1.00  0.00     0.229 C 
HETATM    6  O1  UNL     1      37.800  21.152  38.193  1.00  0.00    -0.273 OA
BRANCH   4   7
HETATM    7  C4  UNL     1      39.386  22.743  36.662  1.00  0.00     0.126 C 
BRANCH   7   8
HETATM    8  C3  UNL     1      40.093  23.953  37.183  1.00  0.00     0.022 C 
BRANCH   8   9
HETATM    9  C2  UNL     1      39.381  24.475  38.408  1.00  0.00     0.029 C 
BRANCH   9  10
HETATM   10  C1  UNL     1      39.808  25.886  38.746  1.00  0.00     0.229 C 
BRANCH  10  11
HETATM   11  N1  UNL     1      41.186  26.078  38.356  1.00  0.00    -0.079 N 
ATOM     12  H13 UNL     1      41.836  25.790  39.087  1.00  0.00     0.274 HD
ATOM     13  H12 UNL     1      41.477  25.420  37.634  1.00  0.00     0.274 HD
ATOM     14  H11 UNL     1      41.327  27.048  38.074  1.00  0.00     0.274 HD
ENDBRANCH  10  11
ENDBRANCH   9  10
ENDBRANCH   8   9
ENDBRANCH   7   8
ENDBRANCH   4   7
BRANCH   5  15
HETATM   15  C15 UNL     1      39.389  19.468  38.711  1.00  0.00     0.188 C 
HETATM   16 BR2  UNL     1      37.788  18.400  39.020  1.00  0.00    -0.087 Br
ENDBRANCH   5  15
ENDBRANCH   3   4
ENDBRANCH   2   3
ENDBRANCH   1   2
BRANCH   1  17
HETATM   17  C8  UNL     1      43.056  22.350  35.454  1.00  0.00     0.138 C 
BRANCH  17  18
HETATM   18  N3  UNL     1      44.478  22.130  35.510  1.00  0.00    -0.226 N 
HETATM   19  C9  UNL     1      45.224  22.168  34.310  1.00  0.00     0.684 C 
HETATM   20  N4  UNL     1      45.967  21.189  33.962  1.00  0.00    -0.156 N 
HETATM   21  N5  UNL     1      45.103  23.348  33.513  1.00  0.00    -0.188 N 
HETATM   22 BR1  UNL     1      46.070  19.664  35.074  1.00  0.00     0.063 Br
ATOM     23  H4  UNL     1      46.500  21.230  33.093  1.00  0.00     0.192 HD
ATOM     24  H5  UNL     1      45.542  24.208  33.841  1.00  0.00     0.184 HD
ATOM     25  H3  UNL     1      44.940  21.949  36.401  1.00  0.00     0.177 HD
BRANCH  21  26
HETATM   26  C10 UNL     1      44.400  23.373  32.290  1.00  0.00     0.089 A 
HETATM   27  C11 UNL     1      43.355  22.607  31.846  1.00  0.00     0.050 A 
HETATM   28  C12 UNL     1      43.025  23.017  30.583  1.00  0.00     0.091 A 
HETATM   29  N6  UNL     1      43.831  24.008  30.234  1.00  0.00    -0.355 N 
HETATM   30  C13 UNL     1      44.670  24.237  31.253  1.00  0.00     0.130 A 
ATOM     31  H6  UNL     1      43.816  24.508  29.346  1.00  0.00     0.166 HD
HETATM   32 CL1  UNL     1      45.931  25.474  31.247  1.00  0.00    -0.062 Cl
ENDBRANCH  21  26
ENDBRANCH  17  18
ENDBRANCH   1  17
TORSDOF 12
ENDMDL
MODEL 2
REMARK VINA RESULT: -5.859611703      1.447      1.604
REMARK  12 active torsions:
REMARK  status: ('A' for Active; 'I' for Inactive)
REMARK    1  A    between atoms: N1_1  and  C1_5 
REMARK    2  A    between atoms: C1_5  and  C2_6 
REMARK    3  A    between atoms: C2_6  and  C3_7 
REMARK    4  A    between atoms: C3_7  and  C4_8 
REMARK    5  A    between atoms: C4_8  and  N2_9 
REMARK    6  A    between atoms: N2_9  and  C5_10 
REMARK       I    between atoms: N2_9  and  C14_29 
REMARK    7  A    between atoms: C5_10  and  C6_11 
REMARK    8  A    between atoms: C6_11  and  C7_12 
REMARK    9  A    between atoms: C7_12  and  C8_13 
REMARK   10  A    between atoms: C8_13  and  N3_14 
REMARK       I    between atoms: N3_14  and  C9_16 
REMARK       I    between atoms: C9_16  and  N5_20 
REMARK   11  A    between atoms: N5_20  and  C10_22 
REMARK   12  A    between atoms: C14_29  and  C15_31 
ROOT
HETATM    1  C7  UNL     1      42.964  22.548  35.068  1.00  0.00     0.022 C 
ENDROOT
BRANCH   1   2
HETATM    2  C6  UNL     1      42.644  21.426  35.970  1.00  0.00     0.021 C 
BRANCH   2   3
HETATM    3  C5  UNL     1      41.206  21.067  35.985  1.00  0.00     0.126 C 
BRANCH   3   4
HETATM    4  N2  UNL     1      40.719  20.825  37.306  1.00  0.00    -0.351 N 
HETATM    5  C14 UNL     1      40.783  19.596  37.986  1.00  0.00     0.229 C 
HETATM    6  O1  UNL     1      40.448  19.605  39.226  1.00  0.00    -0.273 OA
BRANCH   4   7
HETATM    7  C4  UNL     1      40.178  22.016  37.997  1.00  0.00     0.126 C 
BRANCH   7   8
HETATM    8  C3  UNL     1      39.202  22.709  37.101  1.00  0.00     0.022 C 
BRANCH   8   9
HETATM    9  C2  UNL     1      39.519  24.185  37.042  1.00  0.00     0.029 C 
BRANCH   9  10
HETATM   10  C1  UNL     1      39.760  24.760  38.420  1.00  0.00     0.229 C 
BRANCH  10  11
HETATM   11  N1  UNL     1      40.861  25.693  38.366  1.00  0.00    -0.079 N 
ATOM     12  H13 UNL     1      41.155  25.887  37.409  1.00  0.00     0.274 HD
ATOM     13  H12 UNL     1      40.579  26.639  38.626  1.00  0.00     0.274 HD
ATOM     14  H11 UNL     1      41.628  25.348  38.943  1.00  0.00     0.274 HD
ENDBRANCH  10  11
ENDBRANCH   9  10
ENDBRANCH   8   9
ENDBRANCH   7   8
ENDBRANCH   4   7
BRANCH   5  15
HETATM   15  C15 UNL     1      41.192  18.342  37.360  1.00  0.00     0.188 C 
HETATM   16 BR2  UNL     1      41.691  17.067  38.747  1.00  0.00    -0.087 Br
ENDBRANCH   5  15
ENDBRANCH   3   4
ENDBRANCH   2   3
ENDBRANCH   1   2
BRANCH   1  17
HETATM   17  C8  UNL     1      44.355  23.088  35.346  1.00  0.00     0.138 C 
BRANCH  17  18
HETATM   18  N3  UNL     1      45.381  22.162  34.941  1.00  0.00    -0.226 N 
HETATM   19  C9  UNL     1      45.531  21.864  33.568  1.00  0.00     0.684 C 
HETATM   20  N4  UNL     1      45.499  20.659  33.146  1.00  0.00    -0.156 N 
HETATM   21  N5  UNL     1      45.719  22.972  32.684  1.00  0.00    -0.188 N 
HETATM   22 BR1  UNL     1      45.246  19.251  34.382  1.00  0.00     0.063 Br
ATOM     23  H4  UNL     1      45.608  20.458  32.152  1.00  0.00     0.192 HD
ATOM     24  H5  UNL     1      46.612  23.464  32.699  1.00  0.00     0.184 HD
ATOM     25  H3  UNL     1      45.990  21.728  35.635  1.00  0.00     0.177 HD
BRANCH  21  26
HETATM   26  C10 UNL     1      44.719  23.412  31.791  1.00  0.00     0.089 A 
HETATM   27  C11 UNL     1      43.538  22.828  31.417  1.00  0.00     0.050 A 
HETATM   28  C12 UNL     1      42.915  23.652  30.520  1.00  0.00     0.091 A 
HETATM   29  N6  UNL     1      43.671  24.721  30.329  1.00  0.00    -0.355 N 
HETATM   30  C13 UNL     1      44.767  24.594  31.089  1.00  0.00     0.130 A 
ATOM     31  H6  UNL     1      43.458  25.505  29.711  1.00  0.00     0.166 HD
HETATM   32 CL1  UNL     1      46.072  25.784  31.165  1.00  0.00    -0.062 Cl
ENDBRANCH  21  26
ENDBRANCH  17  18
ENDBRANCH   1  17
TORSDOF 12
ENDMDL
MODEL 3
REMARK VINA RESULT: -5.827836190      1.882      3.508
REMARK  12 active torsions:
REMARK  status: ('A' for Active; 'I' for Inactive)
REMARK    1  A    between atoms: N1_1  and  C1_5 
REMARK    2  A    between atoms: C1_5  and  C2_6 
REMARK    3  A    between atoms: C2_6  and  C3_7 
REMARK    4  A    between atoms: C3_7  and  C4_8 
REMARK    5  A    between atoms: C4_8  and  N2_9 
REMARK    6  A    between atoms: N2_9  and  C5_10 
REMARK       I    between atoms: N2_9  and  C14_29 
REMARK    7  A    between atoms: C5_10  and  C6_11 
REMARK    8  A    between atoms: C6_11  and  C7_12 
REMARK    9  A    between atoms: C7_12  and  C8_13 
REMARK   10  A    between atoms: C8_13  and  N3_14 
REMARK       I    between atoms: N3_14  and  C9_16 
REMARK       I    between atoms: C9_16  and  N5_20 
REMARK   11  A    between atoms: N5_20  and  C10_22 
REMARK   12  A    between atoms: C14_29  and  C15_31 
ROOT
HETATM    1  C7  UNL     1      42.715  20.657  35.475  1.00  0.00     0.022 C 
ENDROOT
BRANCH   1   2
HETATM    2  C6  UNL     1      41.322  20.629  35.958  1.00  0.00     0.021 C 
BRANCH   2   3
HETATM    3  C5  UNL     1      41.167  21.102  37.354  1.00  0.00     0.126 C 
BRANCH   3   4
HETATM    4  N2  UNL     1      39.802  21.126  37.772  1.00  0.00    -0.351 N 
HETATM    5  C14 UNL     1      38.896  22.177  37.543  1.00  0.00     0.229 C 
HETATM    6  O1  UNL     1      37.667  21.955  37.842  1.00  0.00    -0.273 OA
BRANCH   4   7
HETATM    7  C4  UNL     1      39.333  19.889  38.434  1.00  0.00     0.126 C 
BRANCH   7   8
HETATM    8  C3  UNL     1      40.454  19.291  39.223  1.00  0.00     0.022 C 
BRANCH   8   9
HETATM    9  C2  UNL     1      40.294  17.791  39.284  1.00  0.00     0.029 C 
BRANCH   9  10
HETATM   10  C1  UNL     1      41.613  17.079  39.082  1.00  0.00     0.229 C 
BRANCH  10  11
HETATM   11  N1  UNL     1      42.203  17.505  37.835  1.00  0.00    -0.079 N 
ATOM     12  H13 UNL     1      42.200  16.764  37.134  1.00  0.00     0.274 HD
ATOM     13  H12 UNL     1      41.617  18.177  37.340  1.00  0.00     0.274 HD
ATOM     14  H11 UNL     1      43.141  17.867  38.009  1.00  0.00     0.274 HD
ENDBRANCH  10  11
ENDBRANCH   9  10
ENDBRANCH   8   9
ENDBRANCH   7   8
ENDBRANCH   4   7
BRANCH   5  15
HETATM   15  C15 UNL     1      39.283  23.477  37.002  1.00  0.00     0.188 C 
HETATM   16 BR2  UNL     1      39.720  24.678  38.474  1.00  0.00    -0.087 Br
ENDBRANCH   5  15
ENDBRANCH   3   4
ENDBRANCH   2   3
ENDBRANCH   1   2
BRANCH   1  17
HETATM   17  C8  UNL     1      43.325  22.035  35.657  1.00  0.00     0.138 C 
BRANCH  17  18
HETATM   18  N3  UNL     1      44.765  21.992  35.632  1.00  0.00    -0.226 N 
HETATM   19  C9  UNL     1      45.431  22.118  34.391  1.00  0.00     0.684 C 
HETATM   20  N4  UNL     1      46.268  21.237  33.999  1.00  0.00    -0.156 N 
HETATM   21  N5  UNL     1      45.121  23.272  33.607  1.00  0.00    -0.188 N 
HETATM   22 BR1  UNL     1      46.621  19.740  35.097  1.00  0.00     0.063 Br
ATOM     23  H4  UNL     1      46.742  21.340  33.101  1.00  0.00     0.192 HD
ATOM     24  H5  UNL     1      45.470  24.180  33.913  1.00  0.00     0.184 HD
ATOM     25  H3  UNL     1      45.295  21.872  36.495  1.00  0.00     0.177 HD
BRANCH  21  26
HETATM   26  C10 UNL     1      44.353  23.206  32.426  1.00  0.00     0.089 A 
HETATM   27  C11 UNL     1      43.323  22.373  32.077  1.00  0.00     0.050 A 
HETATM   28  C12 UNL     1      42.906  22.707  30.817  1.00  0.00     0.091 A 
HETATM   29  N6  UNL     1      43.643  23.715  30.379  1.00  0.00    -0.355 N 
HETATM   30  C13 UNL     1      44.524  24.031  31.338  1.00  0.00     0.130 A 
ATOM     31  H6  UNL     1      43.556  24.172  29.471  1.00  0.00     0.166 HD
HETATM   32 CL1  UNL     1      45.722  25.323  31.204  1.00  0.00    -0.062 Cl
ENDBRANCH  21  26
ENDBRANCH  17  18
ENDBRANCH   1  17
TORSDOF 12
ENDMDL
MODEL 4
REMARK VINA RESULT: -5.744577035      5.163      6.580
REMARK  12 active torsions:
REMARK  status: ('A' for Active; 'I' for Inactive)
REMARK    1  A    between atoms: N1_1  and  C1_5 
REMARK    2  A    between atoms: C1_5  and  C2_6 
REMARK    3  A    between atoms: C2_6  and  C3_7 
REMARK    4  A    between atoms: C3_7  and  C4_8 
REMARK    5  A    between atoms: C4_8  and  N2_9 
REMARK    6  A    between atoms: N2_9  and  C5_10 
REMARK       I    between atoms: N2_9  and  C14_29 
REMARK    7  A    between atoms: C5_10  and  C6_11 
REMARK    8  A    between atoms: C6_11  and  C7_12 
REMARK    9  A    between atoms: C7_12  and  C8_13 
REMARK   10  A    between atoms: C8_13  and  N3_14 
REMARK       I    between atoms: N3_14  and  C9_16 
REMARK       I    between atoms: C9_16  and  N5_20 
REMARK   11  A    between atoms: N5_20  and  C10_22 
REMARK   12  A    between atoms: C14_29  and  C15_31 
ROOT
HETATM    1  C7  UNL     1      40.735  17.542  38.896  1.00  0.00     0.022 C 
ENDROOT
BRANCH   1   2
HETATM    2  C6  UNL     1      40.862  19.004  39.037  1.00  0.00     0.021 C 
BRANCH   2   3
HETATM    3  C5  UNL     1      40.672  19.743  37.767  1.00  0.00     0.126 C 
BRANCH   3   4
HETATM    4  N2  UNL     1      39.658  20.744  37.866  1.00  0.00    -0.351 N 
HETATM    5  C14 UNL     1      38.273  20.513  37.798  1.00  0.00     0.229 C 
HETATM    6  O1  UNL     1      37.508  21.506  38.074  1.00  0.00    -0.273 OA
BRANCH   4   7
HETATM    7  C4  UNL     1      40.158  22.111  38.135  1.00  0.00     0.126 C 
BRANCH   7   8
HETATM    8  C3  UNL     1      40.226  22.876  36.853  1.00  0.00     0.022 C 
BRANCH   8   9
HETATM    9  C2  UNL     1      39.525  24.205  37.012  1.00  0.00     0.029 C 
BRANCH   9  10
HETATM   10  C1  UNL     1      39.747  24.793  38.388  1.00  0.00     0.229 C 
BRANCH  10  11
HETATM   11  N1  UNL     1      40.877  25.692  38.351  1.00  0.00    -0.079 N 
ATOM     12  H13 UNL     1      41.744  25.233  38.629  1.00  0.00     0.274 HD
ATOM     13  H12 UNL     1      41.143  25.938  37.397  1.00  0.00     0.274 HD
ATOM     14  H11 UNL     1      40.676  26.514  38.919  1.00  0.00     0.274 HD
ENDBRANCH  10  11
ENDBRANCH   9  10
ENDBRANCH   8   9
ENDBRANCH   7   8
ENDBRANCH   4   7
BRANCH   5  15
HETATM   15  C15 UNL     1      37.683  19.230  37.427  1.00  0.00     0.188 C 
HETATM   16 BR2  UNL     1      36.965  18.370  39.022  1.00  0.00    -0.087 Br
ENDBRANCH   5  15
ENDBRANCH   3   4
ENDBRANCH   2   3
ENDBRANCH   1   2
BRANCH   1  17
HETATM   17  C8  UNL     1      41.834  16.824  39.658  1.00  0.00     0.138 C 
BRANCH  17  18
HETATM   18  N3  UNL     1      41.699  15.393  39.573  1.00  0.00    -0.226 N 
HETATM   19  C9  UNL     1      42.257  14.718  38.463  1.00  0.00     0.684 C 
HETATM   20  N4  UNL     1      41.545  13.953  37.729  1.00  0.00    -0.156 N 
HETATM   21  N5  UNL     1      43.646  14.934  38.208  1.00  0.00    -0.188 N 
HETATM   22 BR1  UNL     1      39.713  13.721  38.135  1.00  0.00     0.063 Br
ATOM     23  H4  UNL     1      41.960  13.472  36.931  1.00  0.00     0.192 HD
ATOM     24  H5  UNL     1      44.331  14.515  38.837  1.00  0.00     0.184 HD
ATOM     25  H3  UNL     1      41.209  14.874  40.302  1.00  0.00     0.177 HD
BRANCH  21  26
HETATM   26  C10 UNL     1      44.110  15.705  37.121  1.00  0.00     0.089 A 
HETATM   27  C11 UNL     1      43.867  17.011  36.785  1.00  0.00     0.050 A 
HETATM   28  C12 UNL     1      44.549  17.294  35.634  1.00  0.00     0.091 A 
HETATM   29  N6  UNL     1      45.203  16.208  35.249  1.00  0.00    -0.355 N 
HETATM   30  C13 UNL     1      44.950  15.237  36.137  1.00  0.00     0.130 A 
ATOM     31  H6  UNL     1      45.796  16.126  34.423  1.00  0.00     0.166 HD
HETATM   32 CL1  UNL     1      45.609  13.600  36.038  1.00  0.00    -0.062 Cl
ENDBRANCH  21  26
ENDBRANCH  17  18
ENDBRANCH   1  17
TORSDOF 12
ENDMDL
MODEL 5
REMARK VINA RESULT: -5.741521143      4.277      8.599
REMARK  12 active torsions:
REMARK  status: ('A' for Active; 'I' for Inactive)
REMARK    1  A    between atoms: N1_1  and  C1_5 
REMARK    2  A    between atoms: C1_5  and  C2_6 
REMARK    3  A    between atoms: C2_6  and  C3_7 
REMARK    4  A    between atoms: C3_7  and  C4_8 
REMARK    5  A    between atoms: C4_8  and  N2_9 
REMARK    6  A    between atoms: N2_9  and  C5_10 
REMARK       I    between atoms: N2_9  and  C14_29 
REMARK    7  A    between atoms: C5_10  and  C6_11 
REMARK    8  A    between atoms: C6_11  and  C7_12 
REMARK    9  A    between atoms: C7_12  and  C8_13 
REMARK   10  A    between atoms: C8_13  and  N3_14 
REMARK       I    between atoms: N3_14  and  C9_16 
REMARK       I    between atoms: C9_16  and  N5_20 
REMARK   11  A    between atoms: N5_20  and  C10_22 
REMARK   12  A    between atoms: C14_29  and  C15_31 
ROOT
HETATM    1  C7  UNL     1      42.231  20.657  35.016  1.00  0.00     0.022 C 
ENDROOT
BRANCH   1   2
HETATM    2  C6  UNL     1      42.610  21.225  33.710  1.00  0.00     0.021 C 
BRANCH   2   3
HETATM    3  C5  UNL     1      43.515  22.394  33.809  1.00  0.00     0.126 C 
BRANCH   3   4
HETATM    4  N2  UNL     1      44.718  22.216  33.058  1.00  0.00    -0.351 N 
HETATM    5  C14 UNL     1      45.213  23.104  32.088  1.00  0.00     0.229 C 
HETATM    6  O1  UNL     1      46.392  22.866  31.636  1.00  0.00    -0.273 OA
BRANCH   4   7
HETATM    7  C4  UNL     1      45.506  21.018  33.423  1.00  0.00     0.126 C 
BRANCH   7   8
HETATM    8  C3  UNL     1      46.061  21.189  34.802  1.00  0.00     0.022 C 
BRANCH   8   9
HETATM    9  C2  UNL     1      46.412  19.840  35.383  1.00  0.00     0.029 C 
BRANCH   9  10
HETATM   10  C1  UNL     1      47.566  19.197  34.648  1.00  0.00     0.229 C 
BRANCH  10  11
HETATM   11  N1  UNL     1      48.714  20.073  34.694  1.00  0.00    -0.079 N 
ATOM     12  H13 UNL     1      48.488  21.020  34.392  1.00  0.00     0.274 HD
ATOM     13  H12 UNL     1      48.996  20.288  35.650  1.00  0.00     0.274 HD
ATOM     14  H11 UNL     1      49.475  19.666  34.150  1.00  0.00     0.274 HD
ENDBRANCH  10  11
ENDBRANCH   9  10
ENDBRANCH   8   9
ENDBRANCH   7   8
ENDBRANCH   4   7
BRANCH   5  15
HETATM   15  C15 UNL     1      44.463  24.248  31.578  1.00  0.00     0.188 C 
HETATM   16 BR2  UNL     1      45.660  25.391  30.548  1.00  0.00    -0.087 Br
ENDBRANCH   5  15
ENDBRANCH   3   4
ENDBRANCH   2   3
ENDBRANCH   1   2
BRANCH   1  17
HETATM   17  C8  UNL     1      40.980  21.326  35.557  1.00  0.00     0.138 C 
BRANCH  17  18
HETATM   18  N3  UNL     1      41.276  22.212  36.653  1.00  0.00    -0.226 N 
HETATM   19  C9  UNL     1      40.646  21.994  37.899  1.00  0.00     0.684 C 
HETATM   20  N4  UNL     1      39.980  22.920  38.474  1.00  0.00    -0.156 N 
HETATM   21  N5  UNL     1      40.790  20.695  38.477  1.00  0.00    -0.188 N 
HETATM   22 BR1  UNL     1      39.838  24.612  37.642  1.00  0.00     0.063 Br
ATOM     23  H4  UNL     1      39.530  22.749  39.373  1.00  0.00     0.192 HD
ATOM     24  H5  UNL     1      41.696  20.428  38.862  1.00  0.00     0.184 HD
ATOM     25  H3  UNL     1      41.931  22.985  36.533  1.00  0.00     0.177 HD
BRANCH  21  26
HETATM   26  C10 UNL     1      39.730  19.766  38.536  1.00  0.00     0.089 A 
HETATM   27  C11 UNL     1      38.412  19.893  38.186  1.00  0.00     0.050 A 
HETATM   28  C12 UNL     1      37.783  18.703  38.433  1.00  0.00     0.091 A 
HETATM   29  N6  UNL     1      38.668  17.848  38.924  1.00  0.00    -0.355 N 
HETATM   30  C13 UNL     1      39.851  18.473  38.993  1.00  0.00     0.130 A 
ATOM     31  H6  UNL     1      38.482  16.885  39.200  1.00  0.00     0.166 HD
HETATM   32 CL1  UNL     1      41.339  17.727  39.587  1.00  0.00    -0.062 Cl
ENDBRANCH  21  26
ENDBRANCH  17  18
ENDBRANCH   1  17
TORSDOF 12
ENDMDL
