MODEL 1
REMARK VINA RESULT: -6.208510091      0.000      0.000
REMARK  13 active torsions:
REMARK  status: ('A' for Active; 'I' for Inactive)
REMARK       I    between atoms: C1_2  and  N2_3 
REMARK       I    between atoms: C1_2  and  N5_23 
REMARK    1  A    between atoms: N2_3  and  C2_4 
REMARK    2  A    between atoms: C2_4  and  C3_5 
REMARK    3  A    between atoms: C3_5  and  C4_6 
REMARK    4  A    between atoms: C4_6  and  C5_7 
REMARK    5  A    between atoms: C5_7  and  C6_8 
REMARK    6  A    between atoms: C6_8  and  C7_9 
REMARK       I    between atoms: C7_9  and  N3_11 
REMARK    7  A    between atoms: N3_11  and  C8_13 
REMARK    8  A    between atoms: C8_13  and  C9_14 
REMARK    9  A    between atoms: C9_14  and  C10_15 
REMARK   10  A    between atoms: C10_15  and  C11_16 
REMARK   11  A    between atoms: C11_16  and  C12_17 
REMARK   12  A    between atoms: C12_17  and  N4_18 
REMARK       I    between atoms: N4_18  and  C13_20 
REMARK   13  A    between atoms: N5_23  and  C14_24 
ROOT
HETATM    1  C4  UNL     1      40.838  15.857  38.758  1.00  0.00     0.003 C 
ENDROOT
BRANCH   1   2
HETATM    2  C3  UNL     1      40.080  17.104  39.124  1.00  0.00     0.033 C 
BRANCH   2   3
HETATM    3  C2  UNL     1      41.165  18.187  39.410  1.00  0.00     0.222 C 
BRANCH   3   4
HETATM    4  N2  UNL     1      41.155  19.178  38.571  1.00  0.00    -0.407 NA
HETATM    5  C1  UNL     1      40.948  20.157  37.893  1.00  0.00     0.340 C 
HETATM    6  N1  UNL     1      39.736  20.916  38.177  1.00  0.00    -0.035 NA
HETATM    7  N5  UNL     1      41.729  20.567  36.899  1.00  0.00    -0.342 NA
BRANCH   7   8
HETATM    8  C14 UNL     1      42.425  20.930  36.018  1.00  0.00     0.207 A 
HETATM    9  N6  UNL     1      42.749  22.274  35.944  1.00  0.00    -0.338 N 
HETATM   10  C15 UNL     1      43.553  22.714  34.982  1.00  0.00     0.111 A 
ATOM     11  H6  UNL     1      42.370  22.927  36.629  1.00  0.00     0.168 HD
HETATM   12  C16 UNL     1      44.084  21.853  34.035  1.00  0.00     0.050 A 
HETATM   13 BR1  UNL     1      45.231  22.548  32.680  1.00  0.00    -0.048 Br
HETATM   14  C17 UNL     1      43.778  20.529  34.089  1.00  0.00     0.079 A 
HETATM   15 CL1  UNL     1      44.442  19.432  32.887  1.00  0.00    -0.081 Cl
HETATM   16  C18 UNL     1      42.957  20.064  35.070  1.00  0.00     0.115 A 
HETATM   17 CL2  UNL     1      42.599  18.353  35.087  1.00  0.00    -0.077 Cl
ENDBRANCH   7   8
ENDBRANCH   3   4
ENDBRANCH   2   3
ENDBRANCH   1   2
BRANCH   1  18
HETATM   18  C5  UNL     1      42.033  15.598  39.571  1.00  0.00     0.009 C 
BRANCH  18  19
HETATM   19  C6  UNL     1      43.197  14.893  39.016  1.00  0.00     0.103 C 
BRANCH  19  20
HETATM   20  C7  UNL     1      43.580  15.371  37.625  1.00  0.00     0.217 C 
HETATM   21  O1  UNL     1      43.867  16.581  37.533  1.00  0.00    -0.274 OA
HETATM   22  N3  UNL     1      43.594  14.436  36.608  1.00  0.00    -0.361 N 
ATOM     23  H3  UNL     1      43.297  13.483  36.819  1.00  0.00     0.162 HD
BRANCH  22  24
HETATM   24  C8  UNL     1      44.018  14.749  35.234  1.00  0.00     0.122 C 
BRANCH  24  25
HETATM   25  C9  UNL     1      45.539  14.752  35.223  1.00  0.00     0.020 C 
BRANCH  25  26
HETATM   26  C10 UNL     1      46.154  16.058  34.824  1.00  0.00     0.003 C 
BRANCH  26  27
HETATM   27  C11 UNL     1      47.679  15.830  34.898  1.00  0.00     0.020 C 
BRANCH  27  28
HETATM   28  C12 UNL     1      48.348  17.035  34.306  1.00  0.00     0.125 C 
BRANCH  28  29
HETATM   29  N4  UNL     1      47.872  18.185  35.092  1.00  0.00    -0.335 N 
HETATM   30  C13 UNL     1      47.737  19.436  34.473  1.00  0.00     0.283 C 
HETATM   31  O2  UNL     1      48.075  19.531  33.206  1.00  0.00    -0.630 OA
HETATM   32  O3  UNL     1      47.289  20.616  34.990  1.00  0.00    -0.630 OA
ATOM     33  H4  UNL     1      47.643  18.072  36.079  1.00  0.00     0.165 HD
ENDBRANCH  28  29
ENDBRANCH  27  28
ENDBRANCH  26  27
ENDBRANCH  25  26
ENDBRANCH  24  25
ENDBRANCH  22  24
ENDBRANCH  19  20
ENDBRANCH  18  19
ENDBRANCH   1  18
TORSDOF 13
ENDMDL
MODEL 2
REMARK VINA RESULT: -6.046625750      3.428      6.111
REMARK  13 active torsions:
REMARK  status: ('A' for Active; 'I' for Inactive)
REMARK       I    between atoms: C1_2  and  N2_3 
REMARK       I    between atoms: C1_2  and  N5_23 
REMARK    1  A    between atoms: N2_3  and  C2_4 
REMARK    2  A    between atoms: C2_4  and  C3_5 
REMARK    3  A    between atoms: C3_5  and  C4_6 
REMARK    4  A    between atoms: C4_6  and  C5_7 
REMARK    5  A    between atoms: C5_7  and  C6_8 
REMARK    6  A    between atoms: C6_8  and  C7_9 
REMARK       I    between atoms: C7_9  and  N3_11 
REMARK    7  A    between atoms: N3_11  and  C8_13 
REMARK    8  A    between atoms: C8_13  and  C9_14 
REMARK    9  A    between atoms: C9_14  and  C10_15 
REMARK   10  A    between atoms: C10_15  and  C11_16 
REMARK   11  A    between atoms: C11_16  and  C12_17 
REMARK   12  A    between atoms: C12_17  and  N4_18 
REMARK       I    between atoms: N4_18  and  C13_20 
REMARK   13  A    between atoms: N5_23  and  C14_24 
ROOT
HETATM    1  C4  UNL     1      45.469  18.346  34.154  1.00  0.00     0.003 C 
ENDROOT
BRANCH   1   2
HETATM    2  C3  UNL     1      46.231  19.639  34.259  1.00  0.00     0.033 C 
BRANCH   2   3
HETATM    3  C2  UNL     1      45.390  20.547  35.210  1.00  0.00     0.222 C 
BRANCH   3   4
HETATM    4  N2  UNL     1      45.006  21.662  34.670  1.00  0.00    -0.407 NA
HETATM    5  C1  UNL     1      44.559  22.746  34.374  1.00  0.00     0.340 C 
HETATM    6  N1  UNL     1      43.852  23.479  35.418  1.00  0.00    -0.035 NA
HETATM    7  N5  UNL     1      44.644  23.295  33.167  1.00  0.00    -0.342 NA
BRANCH   7   8
HETATM    8  C14 UNL     1      44.722  23.781  32.095  1.00  0.00     0.207 A 
HETATM    9  N6  UNL     1      45.750  24.674  31.848  1.00  0.00    -0.338 N 
HETATM   10  C15 UNL     1      45.886  25.219  30.644  1.00  0.00     0.111 A 
ATOM     11  H6  UNL     1      46.405  24.914  32.592  1.00  0.00     0.168 HD
HETATM   12  C16 UNL     1      45.013  24.915  29.611  1.00  0.00     0.050 A 
HETATM   13 BR1  UNL     1      45.262  25.731  27.907  1.00  0.00    -0.048 Br
HETATM   14  C17 UNL     1      43.996  24.040  29.832  1.00  0.00     0.079 A 
HETATM   15 CL1  UNL     1      42.881  23.656  28.530  1.00  0.00    -0.081 Cl
HETATM   16  C18 UNL     1      43.846  23.473  31.060  1.00  0.00     0.115 A 
HETATM   17 CL2  UNL     1      42.518  22.357  31.284  1.00  0.00    -0.077 Cl
ENDBRANCH   7   8
ENDBRANCH   3   4
ENDBRANCH   2   3
ENDBRANCH   1   2
BRANCH   1  18
HETATM   18  C5  UNL     1      44.928  17.842  35.422  1.00  0.00     0.009 C 
BRANCH  18  19
HETATM   19  C6  UNL     1      43.957  16.739  35.455  1.00  0.00     0.103 C 
BRANCH  19  20
HETATM   20  C7  UNL     1      44.029  15.915  36.730  1.00  0.00     0.217 C 
HETATM   21  O1  UNL     1      45.102  15.310  36.917  1.00  0.00    -0.274 OA
HETATM   22  N3  UNL     1      42.926  15.925  37.562  1.00  0.00    -0.361 N 
ATOM     23  H3  UNL     1      42.095  16.437  37.263  1.00  0.00     0.162 HD
BRANCH  22  24
HETATM   24  C8  UNL     1      42.892  15.232  38.860  1.00  0.00     0.122 C 
BRANCH  24  25
HETATM   25  C9  UNL     1      42.019  16.062  39.789  1.00  0.00     0.020 C 
BRANCH  25  26
HETATM   26  C10 UNL     1      40.858  16.729  39.117  1.00  0.00     0.003 C 
BRANCH  26  27
HETATM   27  C11 UNL     1      40.938  18.211  39.542  1.00  0.00     0.020 C 
BRANCH  27  28
HETATM   28  C12 UNL     1      41.111  19.032  38.299  1.00  0.00     0.125 C 
BRANCH  28  29
HETATM   29  N4  UNL     1      40.415  20.303  38.558  1.00  0.00    -0.335 N 
HETATM   30  C13 UNL     1      40.894  21.483  37.971  1.00  0.00     0.283 C 
HETATM   31  O2  UNL     1      41.975  21.402  37.228  1.00  0.00    -0.630 OA
HETATM   32  O3  UNL     1      40.397  22.752  38.043  1.00  0.00    -0.630 OA
ATOM     33  H4  UNL     1      39.593  20.326  39.160  1.00  0.00     0.165 HD
ENDBRANCH  28  29
ENDBRANCH  27  28
ENDBRANCH  26  27
ENDBRANCH  25  26
ENDBRANCH  24  25
ENDBRANCH  22  24
ENDBRANCH  19  20
ENDBRANCH  18  19
ENDBRANCH   1  18
TORSDOF 13
ENDMDL
MODEL 3
REMARK VINA RESULT: -6.039038357      2.957      5.701
REMARK  13 active torsions:
REMARK  status: ('A' for Active; 'I' for Inactive)
REMARK       I    between atoms: C1_2  and  N2_3 
REMARK       I    between atoms: C1_2  and  N5_23 
REMARK    1  A    between atoms: N2_3  and  C2_4 
REMARK    2  A    between atoms: C2_4  and  C3_5 
REMARK    3  A    between atoms: C3_5  and  C4_6 
REMARK    4  A    between atoms: C4_6  and  C5_7 
REMARK    5  A    between atoms: C5_7  and  C6_8 
REMARK    6  A    between atoms: C6_8  and  C7_9 
REMARK       I    between atoms: C7_9  and  N3_11 
REMARK    7  A    between atoms: N3_11  and  C8_13 
REMARK    8  A    between atoms: C8_13  and  C9_14 
REMARK    9  A    between atoms: C9_14  and  C10_15 
REMARK   10  A    between atoms: C10_15  and  C11_16 
REMARK   11  A    between atoms: C11_16  and  C12_17 
REMARK   12  A    between atoms: C12_17  and  N4_18 
REMARK       I    between atoms: N4_18  and  C13_20 
REMARK   13  A    between atoms: N5_23  and  C14_24 
ROOT
HETATM    1  C4  UNL     1      43.921  17.001  36.623  1.00  0.00     0.003 C 
ENDROOT
BRANCH   1   2
HETATM    2  C3  UNL     1      43.950  18.149  35.650  1.00  0.00     0.033 C 
BRANCH   2   3
HETATM    3  C2  UNL     1      45.350  18.085  34.966  1.00  0.00     0.222 C 
BRANCH   3   4
HETATM    4  N2  UNL     1      45.760  19.224  34.498  1.00  0.00    -0.407 NA
HETATM    5  C1  UNL     1      46.327  20.247  34.191  1.00  0.00     0.340 C 
HETATM    6  N1  UNL     1      47.636  20.483  34.788  1.00  0.00    -0.035 NA
HETATM    7  N5  UNL     1      45.831  21.171  33.376  1.00  0.00    -0.342 NA
BRANCH   7   8
HETATM    8  C14 UNL     1      45.389  21.991  32.651  1.00  0.00     0.207 A 
HETATM    9  N6  UNL     1      46.174  23.085  32.333  1.00  0.00    -0.338 N 
HETATM   10  C15 UNL     1      45.720  24.013  31.498  1.00  0.00     0.111 A 
ATOM     11  H6  UNL     1      47.104  23.179  32.741  1.00  0.00     0.168 HD
HETATM   12  C16 UNL     1      44.460  23.916  30.927  1.00  0.00     0.050 A 
HETATM   13 BR1  UNL     1      43.868  25.281  29.736  1.00  0.00    -0.048 Br
HETATM   14  C17 UNL     1      43.672  22.849  31.226  1.00  0.00     0.079 A 
HETATM   15 CL1  UNL     1      42.072  22.723  30.511  1.00  0.00    -0.081 Cl
HETATM   16  C18 UNL     1      44.125  21.890  32.079  1.00  0.00     0.115 A 
HETATM   17 CL2  UNL     1      43.066  20.543  32.425  1.00  0.00    -0.077 Cl
ENDBRANCH   7   8
ENDBRANCH   3   4
ENDBRANCH   2   3
ENDBRANCH   1   2
BRANCH   1  18
HETATM   18  C5  UNL     1      44.291  15.699  36.055  1.00  0.00     0.009 C 
BRANCH  18  19
HETATM   19  C6  UNL     1      44.081  14.451  36.801  1.00  0.00     0.103 C 
BRANCH  19  20
HETATM   20  C7  UNL     1      43.174  14.621  38.010  1.00  0.00     0.217 C 
HETATM   21  O1  UNL     1      43.756  14.707  39.109  1.00  0.00    -0.274 OA
HETATM   22  N3  UNL     1      41.812  14.685  37.785  1.00  0.00    -0.361 N 
ATOM     23  H3  UNL     1      41.471  14.561  36.831  1.00  0.00     0.162 HD
BRANCH  22  24
HETATM   24  C8  UNL     1      40.831  14.923  38.856  1.00  0.00     0.122 C 
BRANCH  24  25
HETATM   25  C9  UNL     1      40.444  16.392  38.791  1.00  0.00     0.020 C 
BRANCH  25  26
HETATM   26  C10 UNL     1      41.405  17.318  39.472  1.00  0.00     0.003 C 
BRANCH  26  27
HETATM   27  C11 UNL     1      40.685  18.682  39.532  1.00  0.00     0.020 C 
BRANCH  27  28
HETATM   28  C12 UNL     1      41.009  19.423  38.268  1.00  0.00     0.125 C 
BRANCH  28  29
HETATM   29  N4  UNL     1      40.370  20.742  38.401  1.00  0.00    -0.335 N 
HETATM   30  C13 UNL     1      40.920  21.845  37.732  1.00  0.00     0.283 C 
HETATM   31  O2  UNL     1      42.014  21.652  37.030  1.00  0.00    -0.630 OA
HETATM   32  O3  UNL     1      40.484  23.137  37.685  1.00  0.00    -0.630 OA
ATOM     33  H4  UNL     1      39.535  20.853  38.975  1.00  0.00     0.165 HD
ENDBRANCH  28  29
ENDBRANCH  27  28
ENDBRANCH  26  27
ENDBRANCH  25  26
ENDBRANCH  24  25
ENDBRANCH  22  24
ENDBRANCH  19  20
ENDBRANCH  18  19
ENDBRANCH   1  18
TORSDOF 13
ENDMDL
MODEL 4
REMARK VINA RESULT: -5.970664763      2.410      4.227
REMARK  13 active torsions:
REMARK  status: ('A' for Active; 'I' for Inactive)
REMARK       I    between atoms: C1_2  and  N2_3 
REMARK       I    between atoms: C1_2  and  N5_23 
REMARK    1  A    between atoms: N2_3  and  C2_4 
REMARK    2  A    between atoms: C2_4  and  C3_5 
REMARK    3  A    between atoms: C3_5  and  C4_6 
REMARK    4  A    between atoms: C4_6  and  C5_7 
REMARK    5  A    between atoms: C5_7  and  C6_8 
REMARK    6  A    between atoms: C6_8  and  C7_9 
REMARK       I    between atoms: C7_9  and  N3_11 
REMARK    7  A    between atoms: N3_11  and  C8_13 
REMARK    8  A    between atoms: C8_13  and  C9_14 
REMARK    9  A    between atoms: C9_14  and  C10_15 
REMARK   10  A    between atoms: C10_15  and  C11_16 
REMARK   11  A    between atoms: C11_16  and  C12_17 
REMARK   12  A    between atoms: C12_17  and  N4_18 
REMARK       I    between atoms: N4_18  and  C13_20 
REMARK   13  A    between atoms: N5_23  and  C14_24 
ROOT
HETATM    1  C4  UNL     1      39.043  20.743  37.672  1.00  0.00     0.003 C 
ENDROOT
BRANCH   1   2
HETATM    2  C3  UNL     1      40.021  21.273  36.659  1.00  0.00     0.033 C 
BRANCH   2   3
HETATM    3  C2  UNL     1      41.434  21.047  37.280  1.00  0.00     0.222 C 
BRANCH   3   4
HETATM    4  N2  UNL     1      42.413  21.399  36.504  1.00  0.00    -0.407 NA
HETATM    5  C1  UNL     1      43.228  21.935  35.790  1.00  0.00     0.340 C 
HETATM    6  N1  UNL     1      43.047  23.357  35.529  1.00  0.00    -0.035 NA
HETATM    7  N5  UNL     1      44.253  21.314  35.214  1.00  0.00    -0.342 NA
BRANCH   7   8
HETATM    8  C14 UNL     1      45.162  20.761  34.705  1.00  0.00     0.207 A 
HETATM    9  N6  UNL     1      46.075  20.108  35.514  1.00  0.00    -0.338 N 
HETATM   10  C15 UNL     1      47.095  19.451  34.974  1.00  0.00     0.111 A 
ATOM     11  H6  UNL     1      45.963  20.130  36.528  1.00  0.00     0.168 HD
HETATM   12  C16 UNL     1      47.276  19.402  33.600  1.00  0.00     0.050 A 
HETATM   13 BR1  UNL     1      48.761  18.442  32.888  1.00  0.00    -0.048 Br
HETATM   14  C17 UNL     1      46.392  20.038  32.787  1.00  0.00     0.079 A 
HETATM   15 CL1  UNL     1      46.619  19.986  31.045  1.00  0.00    -0.081 Cl
HETATM   16  C18 UNL     1      45.341  20.713  33.327  1.00  0.00     0.115 A 
HETATM   17 CL2  UNL     1      44.237  21.512  32.230  1.00  0.00    -0.077 Cl
ENDBRANCH   7   8
ENDBRANCH   3   4
ENDBRANCH   2   3
ENDBRANCH   1   2
BRANCH   1  18
HETATM   18  C5  UNL     1      39.014  19.281  37.799  1.00  0.00     0.009 C 
BRANCH  18  19
HETATM   19  C6  UNL     1      39.105  18.625  39.111  1.00  0.00     0.103 C 
BRANCH  19  20
HETATM   20  C7  UNL     1      40.443  17.945  39.350  1.00  0.00     0.217 C 
HETATM   21  O1  UNL     1      41.319  18.656  39.879  1.00  0.00    -0.274 OA
HETATM   22  N3  UNL     1      40.561  16.618  38.983  1.00  0.00    -0.361 N 
ATOM     23  H3  UNL     1      39.770  16.169  38.522  1.00  0.00     0.162 HD
BRANCH  22  24
HETATM   24  C8  UNL     1      41.775  15.822  39.227  1.00  0.00     0.122 C 
BRANCH  24  25
HETATM   25  C9  UNL     1      42.631  15.915  37.974  1.00  0.00     0.020 C 
BRANCH  25  26
HETATM   26  C10 UNL     1      43.928  15.169  38.052  1.00  0.00     0.003 C 
BRANCH  26  27
HETATM   27  C11 UNL     1      44.039  14.404  36.715  1.00  0.00     0.020 C 
BRANCH  27  28
HETATM   28  C12 UNL     1      44.647  15.334  35.708  1.00  0.00     0.125 C 
BRANCH  28  29
HETATM   29  N4  UNL     1      46.031  15.559  36.153  1.00  0.00    -0.335 N 
HETATM   30  C13 UNL     1      47.053  15.674  35.199  1.00  0.00     0.283 C 
HETATM   31  O2  UNL     1      46.724  15.544  33.933  1.00  0.00    -0.630 OA
HETATM   32  O3  UNL     1      48.384  15.913  35.378  1.00  0.00    -0.630 OA
ATOM     33  H4  UNL     1      46.246  15.630  37.147  1.00  0.00     0.165 HD
ENDBRANCH  28  29
ENDBRANCH  27  28
ENDBRANCH  26  27
ENDBRANCH  25  26
ENDBRANCH  24  25
ENDBRANCH  22  24
ENDBRANCH  19  20
ENDBRANCH  18  19
ENDBRANCH   1  18
TORSDOF 13
ENDMDL
MODEL 5
REMARK VINA RESULT: -5.945514521      2.213      3.719
REMARK  13 active torsions:
REMARK  status: ('A' for Active; 'I' for Inactive)
REMARK       I    between atoms: C1_2  and  N2_3 
REMARK       I    between atoms: C1_2  and  N5_23 
REMARK    1  A    between atoms: N2_3  and  C2_4 
REMARK    2  A    between atoms: C2_4  and  C3_5 
REMARK    3  A    between atoms: C3_5  and  C4_6 
REMARK    4  A    between atoms: C4_6  and  C5_7 
REMARK    5  A    between atoms: C5_7  and  C6_8 
REMARK    6  A    between atoms: C6_8  and  C7_9 
REMARK       I    between atoms: C7_9  and  N3_11 
REMARK    7  A    between atoms: N3_11  and  C8_13 
REMARK    8  A    between atoms: C8_13  and  C9_14 
REMARK    9  A    between atoms: C9_14  and  C10_15 
REMARK   10  A    between atoms: C10_15  and  C11_16 
REMARK   11  A    between atoms: C11_16  and  C12_17 
REMARK   12  A    between atoms: C12_17  and  N4_18 
REMARK       I    between atoms: N4_18  and  C13_20 
REMARK   13  A    between atoms: N5_23  and  C14_24 
ROOT
HETATM    1  C4  UNL     1      38.172  19.428  37.710  1.00  0.00     0.003 C 
ENDROOT
BRANCH   1   2
HETATM    2  C3  UNL     1      37.285  20.613  37.981  1.00  0.00     0.033 C 
BRANCH   2   3
HETATM    3  C2  UNL     1      37.748  21.722  36.987  1.00  0.00     0.222 C 
BRANCH   3   4
HETATM    4  N2  UNL     1      39.009  22.016  37.075  1.00  0.00    -0.407 NA
HETATM    5  C1  UNL     1      40.116  22.435  37.322  1.00  0.00     0.340 C 
HETATM    6  N1  UNL     1      40.223  23.447  38.365  1.00  0.00    -0.035 NA
HETATM    7  N5  UNL     1      41.224  22.057  36.695  1.00  0.00    -0.342 NA
BRANCH   7   8
HETATM    8  C14 UNL     1      42.208  21.720  36.137  1.00  0.00     0.207 A 
HETATM    9  N6  UNL     1      43.152  22.681  35.823  1.00  0.00    -0.338 N 
HETATM   10  C15 UNL     1      44.284  22.333  35.220  1.00  0.00     0.111 A 
ATOM     11  H6  UNL     1      42.979  23.659  36.055  1.00  0.00     0.168 HD
HETATM   12  C16 UNL     1      44.550  21.014  34.891  1.00  0.00     0.050 A 
HETATM   13 BR1  UNL     1      46.193  20.580  34.027  1.00  0.00    -0.048 Br
HETATM   14  C17 UNL     1      43.635  20.053  35.189  1.00  0.00     0.079 A 
HETATM   15 CL1  UNL     1      43.963  18.379  34.768  1.00  0.00    -0.081 Cl
HETATM   16  C18 UNL     1      42.472  20.395  35.808  1.00  0.00     0.115 A 
HETATM   17 CL2  UNL     1      41.335  19.116  36.166  1.00  0.00    -0.077 Cl
ENDBRANCH   7   8
ENDBRANCH   3   4
ENDBRANCH   2   3
ENDBRANCH   1   2
BRANCH   1  18
HETATM   18  C5  UNL     1      38.622  18.705  38.906  1.00  0.00     0.009 C 
BRANCH  18  19
HETATM   19  C6  UNL     1      39.994  18.846  39.414  1.00  0.00     0.103 C 
BRANCH  19  20
HETATM   20  C7  UNL     1      40.751  17.529  39.467  1.00  0.00     0.217 C 
HETATM   21  O1  UNL     1      41.908  17.594  39.927  1.00  0.00    -0.274 OA
HETATM   22  N3  UNL     1      40.095  16.395  39.026  1.00  0.00    -0.361 N 
ATOM     23  H3  UNL     1      39.158  16.497  38.636  1.00  0.00     0.162 HD
BRANCH  22  24
HETATM   24  C8  UNL     1      40.686  15.049  39.092  1.00  0.00     0.122 C 
BRANCH  24  25
HETATM   25  C9  UNL     1      41.587  14.894  37.877  1.00  0.00     0.020 C 
BRANCH  25  26
HETATM   26  C10 UNL     1      43.045  14.780  38.197  1.00  0.00     0.003 C 
BRANCH  26  27
HETATM   27  C11 UNL     1      43.739  15.845  37.320  1.00  0.00     0.020 C 
BRANCH  27  28
HETATM   28  C12 UNL     1      44.437  15.129  36.202  1.00  0.00     0.125 C 
BRANCH  28  29
HETATM   29  N4  UNL     1      45.869  15.430  36.365  1.00  0.00    -0.335 N 
HETATM   30  C13 UNL     1      46.709  15.415  35.243  1.00  0.00     0.283 C 
HETATM   31  O2  UNL     1      46.176  15.100  34.084  1.00  0.00    -0.630 OA
HETATM   32  O3  UNL     1      48.043  15.690  35.153  1.00  0.00    -0.630 OA
ATOM     33  H4  UNL     1      46.247  15.647  37.287  1.00  0.00     0.165 HD
ENDBRANCH  28  29
ENDBRANCH  27  28
ENDBRANCH  26  27
ENDBRANCH  25  26
ENDBRANCH  24  25
ENDBRANCH  22  24
ENDBRANCH  19  20
ENDBRANCH  18  19
ENDBRANCH   1  18
TORSDOF 13
ENDMDL
