MODEL 1
REMARK VINA RESULT: -6.454226161      0.000      0.000
REMARK  14 active torsions:
REMARK  status: ('A' for Active; 'I' for Inactive)
REMARK    1  A    between atoms: N1_2  and  C2_3 
REMARK    2  A    between atoms: N1_2  and  C16_25 
REMARK    3  A    between atoms: C2_3  and  C3_4 
REMARK    4  A    between atoms: C3_4  and  C4_5 
REMARK    5  A    between atoms: C4_5  and  C5_6 
REMARK    6  A    between atoms: C5_6  and  C6_7 
REMARK    7  A    between atoms: C6_7  and  N2_8 
REMARK    8  A    between atoms: N2_8  and  C7_10 
REMARK    9  A    between atoms: C7_10  and  N3_12 
REMARK   10  A    between atoms: N3_12  and  C8_14 
REMARK   11  A    between atoms: C8_14  and  C9_15 
REMARK   12  A    between atoms: C9_15  and  C10_16 
REMARK   13  A    between atoms: C16_25  and  C17_26 
REMARK       I    between atoms: C17_26  and  N4_28 
REMARK   14  A    between atoms: N4_28  and  C18_30 
ROOT
HETATM    1  C5  UNL     1      44.349  15.398  37.554  1.00  0.00     0.020 C 
ENDROOT
BRANCH   1   2
HETATM    2  C4  UNL     1      44.258  16.632  36.779  1.00  0.00     0.003 C 
BRANCH   2   3
HETATM    3  C3  UNL     1      44.586  16.744  35.364  1.00  0.00     0.030 C 
BRANCH   3   4
HETATM    4  C2  UNL     1      45.959  16.481  34.937  1.00  0.00     0.272 C 
BRANCH   4   5
HETATM    5  N1  UNL     1      46.486  17.482  33.964  1.00  0.00     0.092 N 
HETATM    6  C1  UNL     1      46.979  16.687  32.817  1.00  0.00     0.310 C 
BRANCH   5   7
HETATM    7  C16 UNL     1      47.570  18.243  34.457  1.00  0.00     0.373 C 
BRANCH   7   8
HETATM    8  C17 UNL     1      47.209  19.670  34.583  1.00  0.00     0.246 C 
HETATM    9  O1  UNL     1      48.110  20.507  34.954  1.00  0.00    -0.272 OA
HETATM   10  N4  UNL     1      45.928  20.179  34.323  1.00  0.00    -0.353 N 
ATOM     11  H4  UNL     1      45.184  19.545  34.030  1.00  0.00     0.163 HD
BRANCH  10  12
HETATM   12  C18 UNL     1      45.644  21.614  34.466  1.00  0.00     0.111 C 
HETATM   13  C19 UNL     1      44.964  22.182  33.252  1.00  0.00     0.148 C 
HETATM   14  N5  UNL     1      43.623  22.520  33.660  1.00  0.00    -0.359 N 
HETATM   15  C20 UNL     1      43.631  22.735  35.059  1.00  0.00     0.219 C 
ATOM     16  H5  UNL     1      42.810  22.591  33.048  1.00  0.00     0.162 HD
HETATM   17  O2  UNL     1      42.893  23.503  35.699  1.00  0.00    -0.274 OA
HETATM   18  C21 UNL     1      44.690  21.865  35.614  1.00  0.00     0.129 C 
ENDBRANCH  10  12
ENDBRANCH   7   8
ENDBRANCH   5   7
ENDBRANCH   4   5
ENDBRANCH   3   4
ENDBRANCH   2   3
ENDBRANCH   1   2
BRANCH   1  19
HETATM   19  C6  UNL     1      43.144  14.554  37.630  1.00  0.00     0.122 C 
BRANCH  19  20
HETATM   20  N2  UNL     1      42.582  14.602  39.013  1.00  0.00    -0.367 N 
ATOM     21  H2  UNL     1      43.009  14.081  39.779  1.00  0.00     0.161 HD
BRANCH  20  22
HETATM   22  C7  UNL     1      41.447  15.388  39.213  1.00  0.00     0.167 C 
HETATM   23  S1  UNL     1      39.949  14.815  39.088  1.00  0.00    -0.041 SA
BRANCH  22  24
HETATM   24  N3  UNL     1      41.629  16.784  39.556  1.00  0.00    -0.367 N 
ATOM     25  H3  UNL     1      42.025  17.028  40.463  1.00  0.00     0.161 HD
BRANCH  24  26
HETATM   26  C8  UNL     1      41.268  17.819  38.651  1.00  0.00     0.127 C 
BRANCH  26  27
HETATM   27  C9  UNL     1      40.633  19.001  39.267  1.00  0.00     0.063 C 
BRANCH  27  28
HETATM   28  C10 UNL     1      39.394  19.486  38.644  1.00  0.00     0.004 A 
HETATM   29  C11 UNL     1      38.166  18.886  38.675  1.00  0.00     0.126 A 
HETATM   30  F1  UNL     1      37.944  17.802  39.439  1.00  0.00    -0.205 F 
HETATM   31  C12 UNL     1      37.090  19.403  37.971  1.00  0.00     0.066 A 
HETATM   32  C13 UNL     1      37.197  20.529  37.219  1.00  0.00     0.038 A 
HETATM   33 CL1  UNL     1      35.861  21.199  36.324  1.00  0.00    -0.084 Cl
HETATM   34  C14 UNL     1      38.416  21.154  37.171  1.00  0.00     0.048 A 
HETATM   35  C15 UNL     1      39.481  20.648  37.862  1.00  0.00     0.045 A 
HETATM   36 CL2  UNL     1      41.060  21.435  37.806  1.00  0.00    -0.084 Cl
ENDBRANCH  27  28
ENDBRANCH  26  27
ENDBRANCH  24  26
ENDBRANCH  22  24
ENDBRANCH  20  22
ENDBRANCH  19  20
ENDBRANCH   1  19
TORSDOF 14
ENDMDL
MODEL 2
REMARK VINA RESULT: -6.443570736      3.113      5.263
REMARK  14 active torsions:
REMARK  status: ('A' for Active; 'I' for Inactive)
REMARK    1  A    between atoms: N1_2  and  C2_3 
REMARK    2  A    between atoms: N1_2  and  C16_25 
REMARK    3  A    between atoms: C2_3  and  C3_4 
REMARK    4  A    between atoms: C3_4  and  C4_5 
REMARK    5  A    between atoms: C4_5  and  C5_6 
REMARK    6  A    between atoms: C5_6  and  C6_7 
REMARK    7  A    between atoms: C6_7  and  N2_8 
REMARK    8  A    between atoms: N2_8  and  C7_10 
REMARK    9  A    between atoms: C7_10  and  N3_12 
REMARK   10  A    between atoms: N3_12  and  C8_14 
REMARK   11  A    between atoms: C8_14  and  C9_15 
REMARK   12  A    between atoms: C9_15  and  C10_16 
REMARK   13  A    between atoms: C16_25  and  C17_26 
REMARK       I    between atoms: C17_26  and  N4_28 
REMARK   14  A    between atoms: N4_28  and  C18_30 
ROOT
HETATM    1  C5  UNL     1      40.609  19.592  38.815  1.00  0.00     0.020 C 
ENDROOT
BRANCH   1   2
HETATM    2  C4  UNL     1      41.317  18.316  38.871  1.00  0.00     0.003 C 
BRANCH   2   3
HETATM    3  C3  UNL     1      42.016  17.711  37.746  1.00  0.00     0.030 C 
BRANCH   3   4
HETATM    4  C2  UNL     1      42.557  16.361  37.897  1.00  0.00     0.272 C 
BRANCH   4   5
HETATM    5  N1  UNL     1      43.099  15.788  36.630  1.00  0.00     0.092 N 
HETATM    6  C1  UNL     1      42.725  14.356  36.661  1.00  0.00     0.310 C 
BRANCH   5   7
HETATM    7  C16 UNL     1      44.507  15.862  36.526  1.00  0.00     0.373 C 
BRANCH   7   8
HETATM    8  C17 UNL     1      44.917  16.884  35.540  1.00  0.00     0.246 C 
HETATM    9  O1  UNL     1      44.022  17.407  34.781  1.00  0.00    -0.272 OA
HETATM   10  N4  UNL     1      46.238  17.327  35.376  1.00  0.00    -0.353 N 
ATOM     11  H4  UNL     1      46.977  16.932  35.958  1.00  0.00     0.163 HD
BRANCH  10  12
HETATM   12  C18 UNL     1      46.570  18.353  34.376  1.00  0.00     0.111 C 
HETATM   13  C19 UNL     1      46.881  19.680  35.007  1.00  0.00     0.148 C 
HETATM   14  N5  UNL     1      48.287  19.913  34.788  1.00  0.00    -0.359 N 
HETATM   15  C20 UNL     1      48.683  19.170  33.651  1.00  0.00     0.219 C 
ATOM     16  H5  UNL     1      48.891  20.509  35.355  1.00  0.00     0.162 HD
HETATM   17  O2  UNL     1      49.583  19.462  32.846  1.00  0.00    -0.274 OA
HETATM   18  C21 UNL     1      47.816  17.973  33.606  1.00  0.00     0.129 C 
ENDBRANCH  10  12
ENDBRANCH   7   8
ENDBRANCH   5   7
ENDBRANCH   4   5
ENDBRANCH   3   4
ENDBRANCH   2   3
ENDBRANCH   1   2
BRANCH   1  19
HETATM   19  C6  UNL     1      40.918  20.491  37.691  1.00  0.00     0.122 C 
BRANCH  19  20
HETATM   20  N2  UNL     1      40.744  21.912  38.118  1.00  0.00    -0.367 N 
ATOM     21  H2  UNL     1      41.319  22.320  38.854  1.00  0.00     0.161 HD
BRANCH  20  22
HETATM   22  C7  UNL     1      39.761  22.656  37.466  1.00  0.00     0.167 C 
HETATM   23  S1  UNL     1      39.695  24.263  37.523  1.00  0.00    -0.041 SA
BRANCH  22  24
HETATM   24  N3  UNL     1      38.757  21.948  36.698  1.00  0.00    -0.367 N 
ATOM     25  H3  UNL     1      38.951  21.704  35.727  1.00  0.00     0.161 HD
BRANCH  24  26
HETATM   26  C8  UNL     1      37.508  21.586  37.272  1.00  0.00     0.127 C 
BRANCH  26  27
HETATM   27  C9  UNL     1      36.855  20.407  36.668  1.00  0.00     0.063 C 
BRANCH  27  28
HETATM   28  C10 UNL     1      37.263  19.091  37.178  1.00  0.00     0.004 A 
HETATM   29  C11 UNL     1      37.042  18.588  38.429  1.00  0.00     0.126 A 
HETATM   30  F1  UNL     1      36.267  19.242  39.312  1.00  0.00    -0.205 F 
HETATM   31  C12 UNL     1      37.556  17.360  38.816  1.00  0.00     0.066 A 
HETATM   32  C13 UNL     1      38.301  16.595  37.977  1.00  0.00     0.038 A 
HETATM   33 CL1  UNL     1      38.958  15.049  38.439  1.00  0.00    -0.084 Cl
HETATM   34  C14 UNL     1      38.536  17.073  36.714  1.00  0.00     0.048 A 
HETATM   35  C15 UNL     1      38.034  18.283  36.327  1.00  0.00     0.045 A 
HETATM   36 CL2  UNL     1      38.334  18.918  34.707  1.00  0.00    -0.084 Cl
ENDBRANCH  27  28
ENDBRANCH  26  27
ENDBRANCH  24  26
ENDBRANCH  22  24
ENDBRANCH  20  22
ENDBRANCH  19  20
ENDBRANCH   1  19
TORSDOF 14
ENDMDL
MODEL 3
REMARK VINA RESULT: -6.209428749      3.710      6.877
REMARK  14 active torsions:
REMARK  status: ('A' for Active; 'I' for Inactive)
REMARK    1  A    between atoms: N1_2  and  C2_3 
REMARK    2  A    between atoms: N1_2  and  C16_25 
REMARK    3  A    between atoms: C2_3  and  C3_4 
REMARK    4  A    between atoms: C3_4  and  C4_5 
REMARK    5  A    between atoms: C4_5  and  C5_6 
REMARK    6  A    between atoms: C5_6  and  C6_7 
REMARK    7  A    between atoms: C6_7  and  N2_8 
REMARK    8  A    between atoms: N2_8  and  C7_10 
REMARK    9  A    between atoms: C7_10  and  N3_12 
REMARK   10  A    between atoms: N3_12  and  C8_14 
REMARK   11  A    between atoms: C8_14  and  C9_15 
REMARK   12  A    between atoms: C9_15  and  C10_16 
REMARK   13  A    between atoms: C16_25  and  C17_26 
REMARK       I    between atoms: C17_26  and  N4_28 
REMARK   14  A    between atoms: N4_28  and  C18_30 
ROOT
HETATM    1  C5  UNL     1      41.095  16.450  38.744  1.00  0.00     0.020 C 
ENDROOT
BRANCH   1   2
HETATM    2  C4  UNL     1      40.930  17.636  39.579  1.00  0.00     0.003 C 
BRANCH   2   3
HETATM    3  C3  UNL     1      40.833  18.997  39.069  1.00  0.00     0.030 C 
BRANCH   3   4
HETATM    4  C2  UNL     1      41.329  19.282  37.723  1.00  0.00     0.272 C 
BRANCH   4   5
HETATM    5  N1  UNL     1      40.642  20.430  37.062  1.00  0.00     0.092 N 
HETATM    6  C1  UNL     1      39.196  20.153  37.206  1.00  0.00     0.310 C 
BRANCH   5   7
HETATM    7  C16 UNL     1      40.923  20.545  35.682  1.00  0.00     0.373 C 
BRANCH   7   8
HETATM    8  C17 UNL     1      41.908  21.616  35.423  1.00  0.00     0.246 C 
HETATM    9  O1  UNL     1      42.030  22.565  36.280  1.00  0.00    -0.272 OA
HETATM   10  N4  UNL     1      42.729  21.665  34.287  1.00  0.00    -0.353 N 
ATOM     11  H4  UNL     1      42.658  20.931  33.582  1.00  0.00     0.163 HD
BRANCH  10  12
HETATM   12  C18 UNL     1      43.691  22.761  34.100  1.00  0.00     0.111 C 
HETATM   13  C19 UNL     1      45.046  22.429  34.660  1.00  0.00     0.148 C 
HETATM   14  N5  UNL     1      45.931  22.303  33.529  1.00  0.00    -0.359 N 
HETATM   15  C20 UNL     1      45.389  23.057  32.461  1.00  0.00     0.219 C 
ATOM     16  H5  UNL     1      46.797  21.763  33.503  1.00  0.00     0.162 HD
HETATM   17  O2  UNL     1      46.022  23.629  31.557  1.00  0.00    -0.274 OA
HETATM   18  C21 UNL     1      43.921  23.033  32.629  1.00  0.00     0.129 C 
ENDBRANCH  10  12
ENDBRANCH   7   8
ENDBRANCH   5   7
ENDBRANCH   4   5
ENDBRANCH   3   4
ENDBRANCH   2   3
ENDBRANCH   1   2
BRANCH   1  19
HETATM   19  C6  UNL     1      41.355  15.171  39.426  1.00  0.00     0.122 C 
BRANCH  19  20
HETATM   20  N2  UNL     1      42.784  14.780  39.239  1.00  0.00    -0.367 N 
ATOM     21  H2  UNL     1      43.418  14.685  40.032  1.00  0.00     0.161 HD
BRANCH  20  22
HETATM   22  C7  UNL     1      43.216  14.551  37.932  1.00  0.00     0.167 C 
HETATM   23  S1  UNL     1      42.472  13.537  36.928  1.00  0.00    -0.041 SA
BRANCH  22  24
HETATM   24  N3  UNL     1      44.384  15.263  37.458  1.00  0.00    -0.367 N 
ATOM     25  H3  UNL     1      45.312  14.926  37.712  1.00  0.00     0.161 HD
BRANCH  24  26
HETATM   26  C8  UNL     1      44.262  16.424  36.647  1.00  0.00     0.127 C 
BRANCH  26  27
HETATM   27  C9  UNL     1      44.762  16.282  35.265  1.00  0.00     0.063 C 
BRANCH  27  28
HETATM   28  C10 UNL     1      45.945  17.076  34.904  1.00  0.00     0.004 A 
HETATM   29  C11 UNL     1      45.999  18.425  34.695  1.00  0.00     0.126 A 
HETATM   30  F1  UNL     1      44.936  19.209  34.947  1.00  0.00    -0.205 F 
HETATM   31  C12 UNL     1      47.164  19.046  34.273  1.00  0.00     0.066 A 
HETATM   32  C13 UNL     1      48.309  18.350  34.048  1.00  0.00     0.038 A 
HETATM   33 CL1  UNL     1      49.786  19.106  33.517  1.00  0.00    -0.084 Cl
HETATM   34  C14 UNL     1      48.285  16.995  34.253  1.00  0.00     0.048 A 
HETATM   35  C15 UNL     1      47.139  16.378  34.668  1.00  0.00     0.045 A 
HETATM   36 CL2  UNL     1      47.088  14.632  34.929  1.00  0.00    -0.084 Cl
ENDBRANCH  27  28
ENDBRANCH  26  27
ENDBRANCH  24  26
ENDBRANCH  22  24
ENDBRANCH  20  22
ENDBRANCH  19  20
ENDBRANCH   1  19
TORSDOF 14
ENDMDL
MODEL 4
REMARK VINA RESULT: -6.121758429      3.101      4.916
REMARK  14 active torsions:
REMARK  status: ('A' for Active; 'I' for Inactive)
REMARK    1  A    between atoms: N1_2  and  C2_3 
REMARK    2  A    between atoms: N1_2  and  C16_25 
REMARK    3  A    between atoms: C2_3  and  C3_4 
REMARK    4  A    between atoms: C3_4  and  C4_5 
REMARK    5  A    between atoms: C4_5  and  C5_6 
REMARK    6  A    between atoms: C5_6  and  C6_7 
REMARK    7  A    between atoms: C6_7  and  N2_8 
REMARK    8  A    between atoms: N2_8  and  C7_10 
REMARK    9  A    between atoms: C7_10  and  N3_12 
REMARK   10  A    between atoms: N3_12  and  C8_14 
REMARK   11  A    between atoms: C8_14  and  C9_15 
REMARK   12  A    between atoms: C9_15  and  C10_16 
REMARK   13  A    between atoms: C16_25  and  C17_26 
REMARK       I    between atoms: C17_26  and  N4_28 
REMARK   14  A    between atoms: N4_28  and  C18_30 
ROOT
HETATM    1  C5  UNL     1      43.276  19.000  35.444  1.00  0.00     0.020 C 
ENDROOT
BRANCH   1   2
HETATM    2  C4  UNL     1      42.095  18.181  35.697  1.00  0.00     0.003 C 
BRANCH   2   3
HETATM    3  C3  UNL     1      42.081  16.990  36.536  1.00  0.00     0.030 C 
BRANCH   3   4
HETATM    4  C2  UNL     1      43.354  16.384  36.920  1.00  0.00     0.272 C 
BRANCH   4   5
HETATM    5  N1  UNL     1      43.815  15.314  35.988  1.00  0.00     0.092 N 
HETATM    6  C1  UNL     1      43.440  14.041  36.642  1.00  0.00     0.310 C 
BRANCH   5   7
HETATM    7  C16 UNL     1      45.214  15.297  35.785  1.00  0.00     0.373 C 
BRANCH   7   8
HETATM    8  C17 UNL     1      45.632  16.364  34.853  1.00  0.00     0.246 C 
HETATM    9  O1  UNL     1      45.056  16.446  33.707  1.00  0.00    -0.272 OA
HETATM   10  N4  UNL     1      46.631  17.306  35.139  1.00  0.00    -0.353 N 
ATOM     11  H4  UNL     1      47.115  17.271  36.037  1.00  0.00     0.163 HD
BRANCH  10  12
HETATM   12  C18 UNL     1      46.991  18.344  34.161  1.00  0.00     0.111 C 
HETATM   13  C19 UNL     1      47.150  19.695  34.800  1.00  0.00     0.148 C 
HETATM   14  N5  UNL     1      48.552  20.020  34.715  1.00  0.00    -0.359 N 
HETATM   15  C20 UNL     1      49.106  19.295  33.632  1.00  0.00     0.219 C 
ATOM     16  H5  UNL     1      49.057  20.660  35.329  1.00  0.00     0.162 HD
HETATM   17  O2  UNL     1      50.060  19.641  32.915  1.00  0.00    -0.274 OA
HETATM   18  C21 UNL     1      48.329  18.043  33.521  1.00  0.00     0.129 C 
ENDBRANCH  10  12
ENDBRANCH   7   8
ENDBRANCH   5   7
ENDBRANCH   4   5
ENDBRANCH   3   4
ENDBRANCH   2   3
ENDBRANCH   1   2
BRANCH   1  19
HETATM   19  C6  UNL     1      43.309  19.774  34.192  1.00  0.00     0.122 C 
BRANCH  19  20
HETATM   20  N2  UNL     1      42.507  21.024  34.350  1.00  0.00    -0.367 N 
ATOM     21  H2  UNL     1      41.669  21.192  33.794  1.00  0.00     0.161 HD
BRANCH  20  22
HETATM   22  C7  UNL     1      42.953  21.953  35.290  1.00  0.00     0.167 C 
HETATM   23  S1  UNL     1      44.387  22.676  35.197  1.00  0.00    -0.041 SA
BRANCH  22  24
HETATM   24  N3  UNL     1      42.080  22.284  36.397  1.00  0.00    -0.367 N 
ATOM     25  H3  UNL     1      42.386  22.972  37.086  1.00  0.00     0.161 HD
BRANCH  24  26
HETATM   26  C8  UNL     1      40.806  21.670  36.543  1.00  0.00     0.127 C 
BRANCH  26  27
HETATM   27  C9  UNL     1      40.382  21.424  37.935  1.00  0.00     0.063 C 
BRANCH  27  28
HETATM   28  C10 UNL     1      39.230  20.532  38.127  1.00  0.00     0.004 A 
HETATM   29  C11 UNL     1      37.925  20.792  37.815  1.00  0.00     0.126 A 
HETATM   30  F1  UNL     1      37.583  21.904  37.139  1.00  0.00    -0.205 F 
HETATM   31  C12 UNL     1      36.914  19.898  38.126  1.00  0.00     0.066 A 
HETATM   32  C13 UNL     1      37.164  18.719  38.754  1.00  0.00     0.038 A 
HETATM   33 CL1  UNL     1      35.911  17.578  39.157  1.00  0.00    -0.084 Cl
HETATM   34  C14 UNL     1      38.465  18.430  39.077  1.00  0.00     0.048 A 
HETATM   35  C15 UNL     1      39.465  19.309  38.774  1.00  0.00     0.045 A 
HETATM   36 CL2  UNL     1      41.144  18.955  39.190  1.00  0.00    -0.084 Cl
ENDBRANCH  27  28
ENDBRANCH  26  27
ENDBRANCH  24  26
ENDBRANCH  22  24
ENDBRANCH  20  22
ENDBRANCH  19  20
ENDBRANCH   1  19
TORSDOF 14
ENDMDL
MODEL 5
REMARK VINA RESULT: -6.120899929      2.641      3.921
REMARK  14 active torsions:
REMARK  status: ('A' for Active; 'I' for Inactive)
REMARK    1  A    between atoms: N1_2  and  C2_3 
REMARK    2  A    between atoms: N1_2  and  C16_25 
REMARK    3  A    between atoms: C2_3  and  C3_4 
REMARK    4  A    between atoms: C3_4  and  C4_5 
REMARK    5  A    between atoms: C4_5  and  C5_6 
REMARK    6  A    between atoms: C5_6  and  C6_7 
REMARK    7  A    between atoms: C6_7  and  N2_8 
REMARK    8  A    between atoms: N2_8  and  C7_10 
REMARK    9  A    between atoms: C7_10  and  N3_12 
REMARK   10  A    between atoms: N3_12  and  C8_14 
REMARK   11  A    between atoms: C8_14  and  C9_15 
REMARK   12  A    between atoms: C9_15  and  C10_16 
REMARK   13  A    between atoms: C16_25  and  C17_26 
REMARK       I    between atoms: C17_26  and  N4_28 
REMARK   14  A    between atoms: N4_28  and  C18_30 
ROOT
HETATM    1  C5  UNL     1      42.808  18.277  36.121  1.00  0.00     0.020 C 
ENDROOT
BRANCH   1   2
HETATM    2  C4  UNL     1      43.563  17.196  35.494  1.00  0.00     0.003 C 
BRANCH   2   3
HETATM    3  C3  UNL     1      44.845  16.700  35.973  1.00  0.00     0.030 C 
BRANCH   3   4
HETATM    4  C2  UNL     1      45.849  16.282  34.996  1.00  0.00     0.272 C 
BRANCH   4   5
HETATM    5  N1  UNL     1      46.286  17.376  34.080  1.00  0.00     0.092 N 
HETATM    6  C1  UNL     1      46.721  16.694  32.841  1.00  0.00     0.310 C 
BRANCH   5   7
HETATM    7  C16 UNL     1      47.382  18.124  34.566  1.00  0.00     0.373 C 
BRANCH   7   8
HETATM    8  C17 UNL     1      47.055  19.563  34.644  1.00  0.00     0.246 C 
HETATM    9  O1  UNL     1      47.995  20.399  34.903  1.00  0.00    -0.272 OA
HETATM   10  N4  UNL     1      45.766  20.084  34.453  1.00  0.00    -0.353 N 
ATOM     11  H4  UNL     1      44.992  19.451  34.250  1.00  0.00     0.163 HD
BRANCH  10  12
HETATM   12  C18 UNL     1      45.517  21.530  34.542  1.00  0.00     0.111 C 
HETATM   13  C19 UNL     1      44.856  22.069  33.306  1.00  0.00     0.148 C 
HETATM   14  N5  UNL     1      43.523  22.455  33.695  1.00  0.00    -0.359 N 
HETATM   15  C20 UNL     1      43.531  22.721  35.086  1.00  0.00     0.219 C 
ATOM     16  H5  UNL     1      42.714  22.524  33.077  1.00  0.00     0.162 HD
HETATM   17  O2  UNL     1      42.811  23.530  35.694  1.00  0.00    -0.274 OA
HETATM   18  C21 UNL     1      44.566  21.846  35.676  1.00  0.00     0.129 C 
ENDBRANCH  10  12
ENDBRANCH   7   8
ENDBRANCH   5   7
ENDBRANCH   4   5
ENDBRANCH   3   4
ENDBRANCH   2   3
ENDBRANCH   1   2
BRANCH   1  19
HETATM   19  C6  UNL     1      41.438  18.517  35.637  1.00  0.00     0.122 C 
BRANCH  19  20
HETATM   20  N2  UNL     1      41.124  19.976  35.713  1.00  0.00    -0.367 N 
ATOM     21  H2  UNL     1      41.542  20.644  35.066  1.00  0.00     0.161 HD
BRANCH  20  22
HETATM   22  C7  UNL     1      40.234  20.384  36.707  1.00  0.00     0.167 C 
HETATM   23  S1  UNL     1      40.536  21.609  37.706  1.00  0.00    -0.041 SA
BRANCH  22  24
HETATM   24  N3  UNL     1      38.978  19.675  36.839  1.00  0.00    -0.367 N 
ATOM     25  H3  UNL     1      38.587  19.195  36.029  1.00  0.00     0.161 HD
BRANCH  24  26
HETATM   26  C8  UNL     1      38.279  19.636  38.076  1.00  0.00     0.127 C 
BRANCH  26  27
HETATM   27  C9  UNL     1      38.170  18.300  38.696  1.00  0.00     0.063 C 
BRANCH  27  28
HETATM   28  C10 UNL     1      39.409  17.519  38.807  1.00  0.00     0.004 A 
HETATM   29  C11 UNL     1      40.552  17.877  39.467  1.00  0.00     0.126 A 
HETATM   30  F1  UNL     1      40.594  18.983  40.230  1.00  0.00    -0.205 F 
HETATM   31  C12 UNL     1      41.689  17.087  39.425  1.00  0.00     0.066 A 
HETATM   32  C13 UNL     1      41.729  15.919  38.732  1.00  0.00     0.038 A 
HETATM   33 CL1  UNL     1      43.145  14.908  38.662  1.00  0.00    -0.084 Cl
HETATM   34  C14 UNL     1      40.596  15.534  38.062  1.00  0.00     0.048 A 
HETATM   35  C15 UNL     1      39.472  16.310  38.099  1.00  0.00     0.045 A 
HETATM   36 CL2  UNL     1      38.007  15.832  37.236  1.00  0.00    -0.084 Cl
ENDBRANCH  27  28
ENDBRANCH  26  27
ENDBRANCH  24  26
ENDBRANCH  22  24
ENDBRANCH  20  22
ENDBRANCH  19  20
ENDBRANCH   1  19
TORSDOF 14
ENDMDL
