MODEL 1
REMARK VINA RESULT: -6.473878499      0.000      0.000
REMARK  11 active torsions:
REMARK  status: ('A' for Active; 'I' for Inactive)
REMARK    1  A    between atoms: C1_4  and  C2_5 
REMARK    2  A    between atoms: C2_5  and  C3_6 
REMARK    3  A    between atoms: C3_6  and  N2_7 
REMARK       I    between atoms: N2_7  and  C4_9 
REMARK       I    between atoms: C4_9  and  N3_11 
REMARK       I    between atoms: N3_11  and  C5_12 
REMARK    4  A    between atoms: N3_11  and  C6_15 
REMARK    5  A    between atoms: C6_15  and  C7_16 
REMARK    6  A    between atoms: C6_15  and  C11_22 
REMARK    7  A    between atoms: C7_16  and  C8_17 
REMARK       I    between atoms: C11_22  and  N4_24 
REMARK    8  A    between atoms: N4_24  and  C12_26 
REMARK    9  A    between atoms: C12_26  and  C13_27 
REMARK   10  A    between atoms: C13_27  and  C14_28 
REMARK   11  A    between atoms: C14_28  and  C15_29 
ROOT
HETATM    1  C6  UNL     1      37.262  18.430  38.278  1.00  0.00     0.114 C 
ENDROOT
BRANCH   1   2
HETATM    2  N3  UNL     1      37.156  19.725  37.638  1.00  0.00    -0.202 N 
HETATM    3  C4  UNL     1      38.189  20.685  37.867  1.00  0.00     0.332 C 
HETATM    4  N2  UNL     1      38.369  21.971  37.410  1.00  0.00    -0.342 N 
HETATM    5  O1  UNL     1      39.127  20.249  38.653  1.00  0.00    -0.246 OA
ATOM      6  H2  UNL     1      37.663  22.362  36.787  1.00  0.00     0.164 HD
HETATM    7  C5  UNL     1      36.064  20.075  36.865  1.00  0.00     0.299 C 
HETATM    8  O2  UNL     1      35.099  19.280  36.717  1.00  0.00    -0.629 OA
HETATM    9  O3  UNL     1      35.941  21.308  36.194  1.00  0.00    -0.629 OA
BRANCH   4  10
HETATM   10  C3  UNL     1      39.514  22.811  37.767  1.00  0.00     0.129 C 
BRANCH  10  11
HETATM   11  C2  UNL     1      39.387  24.225  37.280  1.00  0.00     0.063 C 
BRANCH  11  12
HETATM   12  C1  UNL     1      39.734  25.165  38.372  1.00  0.00     0.054 C 
HETATM   13  N1  UNL     1      40.856  25.751  38.415  1.00  0.00    -0.411 N 
ATOM     14  H12 UNL     1      41.526  25.559  37.671  1.00  0.00     0.155 HD
ATOM     15  H11 UNL     1      41.094  26.398  39.166  1.00  0.00     0.155 HD
ENDBRANCH  11  12
ENDBRANCH  10  11
ENDBRANCH   4  10
ENDBRANCH   1   2
BRANCH   1  16
HETATM   16  C7  UNL     1      36.907  18.311  39.691  1.00  0.00     0.016 C 
BRANCH  16  17
HETATM   17  C8  UNL     1      35.611  18.577  40.296  1.00  0.00     0.043 A 
HETATM   18  C9  UNL     1      35.022  17.836  41.469  1.00  0.00     0.044 A 
HETATM   19  C10 UNL     1      34.460  17.667  40.073  1.00  0.00     0.083 A 
HETATM   20 BR1  UNL     1      32.758  18.515  39.688  1.00  0.00    -0.072 Br
HETATM   21 BR2  UNL     1      34.714  15.917  39.316  1.00  0.00    -0.072 Br
ENDBRANCH  16  17
ENDBRANCH   1  16
BRANCH   1  22
HETATM   22  C11 UNL     1      38.486  17.728  37.879  1.00  0.00     0.268 C 
HETATM   23  O4  UNL     1      38.745  17.396  36.672  1.00  0.00    -0.266 OA
HETATM   24  N4  UNL     1      39.500  17.348  38.810  1.00  0.00    -0.356 N 
ATOM     25  H4  UNL     1      39.372  17.574  39.796  1.00  0.00     0.162 HD
BRANCH  24  26
HETATM   26  C12 UNL     1      40.707  16.653  38.402  1.00  0.00     0.123 C 
BRANCH  26  27
HETATM   27  C13 UNL     1      41.718  16.603  39.522  1.00  0.00     0.021 C 
BRANCH  27  28
HETATM   28  C14 UNL     1      42.467  15.315  39.576  1.00  0.00     0.017 C 
BRANCH  28  29
HETATM   29  C15 UNL     1      42.718  14.854  38.156  1.00  0.00     0.114 C 
HETATM   30 CL1  UNL     1      44.409  15.189  37.692  1.00  0.00    -0.130 Cl
ENDBRANCH  28  29
ENDBRANCH  27  28
ENDBRANCH  26  27
ENDBRANCH  24  26
ENDBRANCH   1  22
TORSDOF 11
ENDMDL
MODEL 2
REMARK VINA RESULT: -6.192171245      3.599      5.480
REMARK  11 active torsions:
REMARK  status: ('A' for Active; 'I' for Inactive)
REMARK    1  A    between atoms: C1_4  and  C2_5 
REMARK    2  A    between atoms: C2_5  and  C3_6 
REMARK    3  A    between atoms: C3_6  and  N2_7 
REMARK       I    between atoms: N2_7  and  C4_9 
REMARK       I    between atoms: C4_9  and  N3_11 
REMARK       I    between atoms: N3_11  and  C5_12 
REMARK    4  A    between atoms: N3_11  and  C6_15 
REMARK    5  A    between atoms: C6_15  and  C7_16 
REMARK    6  A    between atoms: C6_15  and  C11_22 
REMARK    7  A    between atoms: C7_16  and  C8_17 
REMARK       I    between atoms: C11_22  and  N4_24 
REMARK    8  A    between atoms: N4_24  and  C12_26 
REMARK    9  A    between atoms: C12_26  and  C13_27 
REMARK   10  A    between atoms: C13_27  and  C14_28 
REMARK   11  A    between atoms: C14_28  and  C15_29 
ROOT
HETATM    1  C6  UNL     1      38.329  18.717  37.586  1.00  0.00     0.114 C 
ENDROOT
BRANCH   1   2
HETATM    2  N3  UNL     1      38.841  19.745  36.702  1.00  0.00    -0.202 N 
HETATM    3  C4  UNL     1      38.733  21.109  37.109  1.00  0.00     0.332 C 
HETATM    4  N2  UNL     1      39.117  22.284  36.504  1.00  0.00    -0.342 N 
HETATM    5  O1  UNL     1      38.164  21.254  38.268  1.00  0.00    -0.246 OA
ATOM      6  H2  UNL     1      39.572  22.229  35.592  1.00  0.00     0.164 HD
HETATM    7  C5  UNL     1      39.375  19.447  35.462  1.00  0.00     0.299 C 
HETATM    8  O2  UNL     1      39.404  18.260  35.042  1.00  0.00    -0.629 OA
HETATM    9  O3  UNL     1      39.919  20.411  34.590  1.00  0.00    -0.629 OA
BRANCH   4  10
HETATM   10  C3  UNL     1      38.913  23.610  37.091  1.00  0.00     0.129 C 
BRANCH  10  11
HETATM   11  C2  UNL     1      39.827  23.894  38.248  1.00  0.00     0.063 C 
BRANCH  11  12
HETATM   12  C1  UNL     1      39.886  25.354  38.494  1.00  0.00     0.054 C 
HETATM   13  N1  UNL     1      40.978  25.994  38.446  1.00  0.00    -0.411 N 
ATOM     14  H12 UNL     1      41.830  25.475  38.231  1.00  0.00     0.155 HD
ATOM     15  H11 UNL     1      41.019  26.998  38.616  1.00  0.00     0.155 HD
ENDBRANCH  11  12
ENDBRANCH  10  11
ENDBRANCH   4  10
ENDBRANCH   1   2
BRANCH   1  16
HETATM   16  C7  UNL     1      39.131  17.515  37.807  1.00  0.00     0.016 C 
BRANCH  16  17
HETATM   17  C8  UNL     1      40.013  17.243  38.931  1.00  0.00     0.043 A 
HETATM   18  C9  UNL     1      41.016  18.207  39.513  1.00  0.00     0.044 A 
HETATM   19  C10 UNL     1      41.461  16.992  38.726  1.00  0.00     0.083 A 
HETATM   20 BR1  UNL     1      42.226  15.515  39.725  1.00  0.00    -0.072 Br
HETATM   21 BR2  UNL     1      42.307  17.393  37.047  1.00  0.00    -0.072 Br
ENDBRANCH  16  17
ENDBRANCH   1  16
BRANCH   1  22
HETATM   22  C11 UNL     1      36.897  18.483  37.372  1.00  0.00     0.268 C 
HETATM   23  O4  UNL     1      36.431  17.851  36.363  1.00  0.00    -0.266 OA
HETATM   24  N4  UNL     1      35.893  18.947  38.274  1.00  0.00    -0.356 N 
ATOM     25  H4  UNL     1      36.179  19.464  39.105  1.00  0.00     0.162 HD
BRANCH  24  26
HETATM   26  C12 UNL     1      34.479  18.708  38.050  1.00  0.00     0.123 C 
BRANCH  26  27
HETATM   27  C13 UNL     1      33.739  18.522  39.353  1.00  0.00     0.021 C 
BRANCH  27  28
HETATM   28  C14 UNL     1      34.628  18.605  40.546  1.00  0.00     0.017 C 
BRANCH  28  29
HETATM   29  C15 UNL     1      33.917  17.952  41.712  1.00  0.00     0.114 C 
HETATM   30 CL1  UNL     1      35.107  17.302  42.873  1.00  0.00    -0.130 Cl
ENDBRANCH  28  29
ENDBRANCH  27  28
ENDBRANCH  26  27
ENDBRANCH  24  26
ENDBRANCH   1  22
TORSDOF 11
ENDMDL
MODEL 3
REMARK VINA RESULT: -6.156793522      8.066      9.668
REMARK  11 active torsions:
REMARK  status: ('A' for Active; 'I' for Inactive)
REMARK    1  A    between atoms: C1_4  and  C2_5 
REMARK    2  A    between atoms: C2_5  and  C3_6 
REMARK    3  A    between atoms: C3_6  and  N2_7 
REMARK       I    between atoms: N2_7  and  C4_9 
REMARK       I    between atoms: C4_9  and  N3_11 
REMARK       I    between atoms: N3_11  and  C5_12 
REMARK    4  A    between atoms: N3_11  and  C6_15 
REMARK    5  A    between atoms: C6_15  and  C7_16 
REMARK    6  A    between atoms: C6_15  and  C11_22 
REMARK    7  A    between atoms: C7_16  and  C8_17 
REMARK       I    between atoms: C11_22  and  N4_24 
REMARK    8  A    between atoms: N4_24  and  C12_26 
REMARK    9  A    between atoms: C12_26  and  C13_27 
REMARK   10  A    between atoms: C13_27  and  C14_28 
REMARK   11  A    between atoms: C14_28  and  C15_29 
ROOT
HETATM    1  C6  UNL     1      45.122  21.412  34.255  1.00  0.00     0.114 C 
ENDROOT
BRANCH   1   2
HETATM    2  N3  UNL     1      43.865  20.720  34.454  1.00  0.00    -0.202 N 
HETATM    3  C4  UNL     1      43.028  21.127  35.538  1.00  0.00     0.332 C 
HETATM    4  N2  UNL     1      41.804  20.677  35.975  1.00  0.00    -0.342 N 
HETATM    5  O1  UNL     1      43.528  22.106  36.231  1.00  0.00    -0.246 OA
ATOM      6  H2  UNL     1      41.364  19.910  35.465  1.00  0.00     0.164 HD
HETATM    7  C5  UNL     1      43.484  19.650  33.667  1.00  0.00     0.299 C 
HETATM    8  O2  UNL     1      44.241  19.215  32.760  1.00  0.00    -0.629 OA
HETATM    9  O3  UNL     1      42.253  18.976  33.803  1.00  0.00    -0.629 OA
BRANCH   4  10
HETATM   10  C3  UNL     1      41.094  21.232  37.129  1.00  0.00     0.129 C 
BRANCH  10  11
HETATM   11  C2  UNL     1      39.803  21.907  36.764  1.00  0.00     0.063 C 
BRANCH  11  12
HETATM   12  C1  UNL     1      39.911  23.364  37.012  1.00  0.00     0.054 C 
HETATM   13  N1  UNL     1      41.015  23.976  36.915  1.00  0.00    -0.411 N 
ATOM     14  H12 UNL     1      41.842  23.438  36.657  1.00  0.00     0.155 HD
ATOM     15  H11 UNL     1      41.088  24.979  37.086  1.00  0.00     0.155 HD
ENDBRANCH  11  12
ENDBRANCH  10  11
ENDBRANCH   4  10
ENDBRANCH   1   2
BRANCH   1  16
HETATM   16  C7  UNL     1      45.278  22.266  33.078  1.00  0.00     0.016 C 
BRANCH  16  17
HETATM   17  C8  UNL     1      44.271  23.128  32.481  1.00  0.00     0.043 A 
HETATM   18  C9  UNL     1      43.197  22.688  31.518  1.00  0.00     0.044 A 
HETATM   19  C10 UNL     1      44.360  23.540  31.058  1.00  0.00     0.083 A 
HETATM   20 BR1  UNL     1      44.002  25.410  30.681  1.00  0.00    -0.072 Br
HETATM   21 BR2  UNL     1      45.566  22.659  29.846  1.00  0.00    -0.072 Br
ENDBRANCH  16  17
ENDBRANCH   1  16
BRANCH   1  22
HETATM   22  C11 UNL     1      46.269  20.549  34.556  1.00  0.00     0.268 C 
HETATM   23  O4  UNL     1      46.606  20.217  35.745  1.00  0.00    -0.266 OA
HETATM   24  N4  UNL     1      47.116  20.004  33.546  1.00  0.00    -0.356 N 
ATOM     25  H4  UNL     1      46.920  20.221  32.568  1.00  0.00     0.162 HD
BRANCH  24  26
HETATM   26  C12 UNL     1      48.249  19.151  33.858  1.00  0.00     0.123 C 
BRANCH  26  27
HETATM   27  C13 UNL     1      48.741  18.419  32.632  1.00  0.00     0.021 C 
BRANCH  27  28
HETATM   28  C14 UNL     1      49.311  19.329  31.598  1.00  0.00     0.017 C 
BRANCH  28  29
HETATM   29  C15 UNL     1      48.652  19.011  30.273  1.00  0.00     0.114 C 
HETATM   30 CL1  UNL     1      49.827  18.244  29.170  1.00  0.00    -0.130 Cl
ENDBRANCH  28  29
ENDBRANCH  27  28
ENDBRANCH  26  27
ENDBRANCH  24  26
ENDBRANCH   1  22
TORSDOF 11
ENDMDL
MODEL 4
REMARK VINA RESULT: -6.147314727      3.396      5.157
REMARK  11 active torsions:
REMARK  status: ('A' for Active; 'I' for Inactive)
REMARK    1  A    between atoms: C1_4  and  C2_5 
REMARK    2  A    between atoms: C2_5  and  C3_6 
REMARK    3  A    between atoms: C3_6  and  N2_7 
REMARK       I    between atoms: N2_7  and  C4_9 
REMARK       I    between atoms: C4_9  and  N3_11 
REMARK       I    between atoms: N3_11  and  C5_12 
REMARK    4  A    between atoms: N3_11  and  C6_15 
REMARK    5  A    between atoms: C6_15  and  C7_16 
REMARK    6  A    between atoms: C6_15  and  C11_22 
REMARK    7  A    between atoms: C7_16  and  C8_17 
REMARK       I    between atoms: C11_22  and  N4_24 
REMARK    8  A    between atoms: N4_24  and  C12_26 
REMARK    9  A    between atoms: C12_26  and  C13_27 
REMARK   10  A    between atoms: C13_27  and  C14_28 
REMARK   11  A    between atoms: C14_28  and  C15_29 
ROOT
HETATM    1  C6  UNL     1      36.863  19.263  38.387  1.00  0.00     0.114 C 
ENDROOT
BRANCH   1   2
HETATM    2  N3  UNL     1      38.168  19.881  38.263  1.00  0.00    -0.202 N 
HETATM    3  C4  UNL     1      38.246  21.210  37.745  1.00  0.00     0.332 C 
HETATM    4  N2  UNL     1      39.314  22.047  37.514  1.00  0.00    -0.342 N 
HETATM    5  O1  UNL     1      37.086  21.709  37.439  1.00  0.00    -0.246 OA
ATOM      6  H2  UNL     1      40.249  21.706  37.739  1.00  0.00     0.164 HD
HETATM    7  C5  UNL     1      39.332  19.206  38.578  1.00  0.00     0.299 C 
HETATM    8  O2  UNL     1      39.298  18.005  38.955  1.00  0.00    -0.629 OA
HETATM    9  O3  UNL     1      40.616  19.783  38.509  1.00  0.00    -0.629 OA
BRANCH   4  10
HETATM   10  C3  UNL     1      39.188  23.398  36.964  1.00  0.00     0.129 C 
BRANCH  10  11
HETATM   11  C2  UNL     1      40.170  24.371  37.549  1.00  0.00     0.063 C 
BRANCH  11  12
HETATM   12  C1  UNL     1      39.489  25.240  38.537  1.00  0.00     0.054 C 
HETATM   13  N1  UNL     1      39.864  26.431  38.747  1.00  0.00    -0.411 N 
ATOM     14  H12 UNL     1      40.658  26.786  38.213  1.00  0.00     0.155 HD
ATOM     15  H11 UNL     1      39.395  27.028  39.427  1.00  0.00     0.155 HD
ENDBRANCH  11  12
ENDBRANCH  10  11
ENDBRANCH   4  10
ENDBRANCH   1   2
BRANCH   1  16
HETATM   16  C7  UNL     1      36.550  18.516  39.604  1.00  0.00     0.016 C 
BRANCH  16  17
HETATM   17  C8  UNL     1      35.309  18.555  40.362  1.00  0.00     0.043 A 
HETATM   18  C9  UNL     1      34.965  17.665  41.529  1.00  0.00     0.044 A 
HETATM   19  C10 UNL     1      34.273  17.506  40.192  1.00  0.00     0.083 A 
HETATM   20 BR1  UNL     1      32.439  18.126  40.059  1.00  0.00    -0.072 Br
HETATM   21 BR2  UNL     1      34.670  15.863  39.276  1.00  0.00    -0.072 Br
ENDBRANCH  16  17
ENDBRANCH   1  16
BRANCH   1  22
HETATM   22  C11 UNL     1      36.447  18.622  37.135  1.00  0.00     0.268 C 
HETATM   23  O4  UNL     1      36.819  17.449  36.789  1.00  0.00    -0.266 OA
HETATM   24  N4  UNL     1      35.589  19.257  36.187  1.00  0.00    -0.356 N 
ATOM     25  H4  UNL     1      35.248  20.198  36.385  1.00  0.00     0.162 HD
BRANCH  24  26
HETATM   26  C12 UNL     1      35.185  18.611  34.952  1.00  0.00     0.123 C 
BRANCH  26  27
HETATM   27  C13 UNL     1      35.116  19.599  33.812  1.00  0.00     0.021 C 
BRANCH  27  28
HETATM   28  C14 UNL     1      35.095  21.017  34.268  1.00  0.00     0.017 C 
BRANCH  28  29
HETATM   29  C15 UNL     1      34.436  21.852  33.190  1.00  0.00     0.114 C 
HETATM   30 CL1  UNL     1      34.579  23.587  33.582  1.00  0.00    -0.130 Cl
ENDBRANCH  28  29
ENDBRANCH  27  28
ENDBRANCH  26  27
ENDBRANCH  24  26
ENDBRANCH   1  22
TORSDOF 11
ENDMDL
MODEL 5
REMARK VINA RESULT: -6.131866914      7.525      9.592
REMARK  11 active torsions:
REMARK  status: ('A' for Active; 'I' for Inactive)
REMARK    1  A    between atoms: C1_4  and  C2_5 
REMARK    2  A    between atoms: C2_5  and  C3_6 
REMARK    3  A    between atoms: C3_6  and  N2_7 
REMARK       I    between atoms: N2_7  and  C4_9 
REMARK       I    between atoms: C4_9  and  N3_11 
REMARK       I    between atoms: N3_11  and  C5_12 
REMARK    4  A    between atoms: N3_11  and  C6_15 
REMARK    5  A    between atoms: C6_15  and  C7_16 
REMARK    6  A    between atoms: C6_15  and  C11_22 
REMARK    7  A    between atoms: C7_16  and  C8_17 
REMARK       I    between atoms: C11_22  and  N4_24 
REMARK    8  A    between atoms: N4_24  and  C12_26 
REMARK    9  A    between atoms: C12_26  and  C13_27 
REMARK   10  A    between atoms: C13_27  and  C14_28 
REMARK   11  A    between atoms: C14_28  and  C15_29 
ROOT
HETATM    1  C6  UNL     1      43.871  21.803  34.395  1.00  0.00     0.114 C 
ENDROOT
BRANCH   1   2
HETATM    2  N3  UNL     1      43.310  21.930  33.065  1.00  0.00    -0.202 N 
HETATM    3  C4  UNL     1      43.636  23.088  32.295  1.00  0.00     0.332 C 
HETATM    4  N2  UNL     1      43.270  23.486  31.030  1.00  0.00    -0.342 N 
HETATM    5  O1  UNL     1      44.426  23.910  32.918  1.00  0.00    -0.246 OA
ATOM      6  H2  UNL     1      42.652  22.876  30.494  1.00  0.00     0.164 HD
HETATM    7  C5  UNL     1      42.431  20.996  32.547  1.00  0.00     0.299 C 
HETATM    8  O2  UNL     1      42.060  20.011  33.237  1.00  0.00    -0.629 OA
HETATM    9  O3  UNL     1      41.895  21.062  31.246  1.00  0.00    -0.629 OA
BRANCH   4  10
HETATM   10  C3  UNL     1      43.715  24.733  30.405  1.00  0.00     0.129 C 
BRANCH  10  11
HETATM   11  C2  UNL     1      44.939  24.567  29.553  1.00  0.00     0.063 C 
BRANCH  11  12
HETATM   12  C1  UNL     1      46.018  25.456  30.044  1.00  0.00     0.054 C 
HETATM   13  N1  UNL     1      46.320  25.521  31.272  1.00  0.00    -0.411 N 
ATOM     14  H12 UNL     1      45.797  24.939  31.927  1.00  0.00     0.155 HD
ATOM     15  H11 UNL     1      47.062  26.133  31.610  1.00  0.00     0.155 HD
ENDBRANCH  11  12
ENDBRANCH  10  11
ENDBRANCH   4  10
ENDBRANCH   1   2
BRANCH   1  16
HETATM   16  C7  UNL     1      44.689  20.632  34.706  1.00  0.00     0.016 C 
BRANCH  16  17
HETATM   17  C8  UNL     1      45.982  20.289  34.135  1.00  0.00     0.043 A 
HETATM   18  C9  UNL     1      46.259  20.043  32.673  1.00  0.00     0.044 A 
HETATM   19  C10 UNL     1      46.274  18.908  33.675  1.00  0.00     0.083 A 
HETATM   20 BR1  UNL     1      48.004  18.185  34.176  1.00  0.00    -0.072 Br
HETATM   21 BR2  UNL     1      44.863  17.621  33.447  1.00  0.00    -0.072 Br
ENDBRANCH  16  17
ENDBRANCH   1  16
BRANCH   1  22
HETATM   22  C11 UNL     1      42.902  22.182  35.429  1.00  0.00     0.268 C 
HETATM   23  O4  UNL     1      42.719  23.388  35.813  1.00  0.00    -0.266 OA
HETATM   24  N4  UNL     1      42.077  21.232  36.103  1.00  0.00    -0.356 N 
ATOM     25  H4  UNL     1      42.161  20.245  35.858  1.00  0.00     0.162 HD
BRANCH  24  26
HETATM   26  C12 UNL     1      41.123  21.620  37.125  1.00  0.00     0.123 C 
BRANCH  26  27
HETATM   27  C13 UNL     1      39.719  21.683  36.572  1.00  0.00     0.021 C 
BRANCH  27  28
HETATM   28  C14 UNL     1      38.863  22.689  37.263  1.00  0.00     0.017 C 
BRANCH  28  29
HETATM   29  C15 UNL     1      39.494  24.053  37.079  1.00  0.00     0.114 C 
HETATM   30 CL1  UNL     1      39.524  24.931  38.633  1.00  0.00    -0.130 Cl
ENDBRANCH  28  29
ENDBRANCH  27  28
ENDBRANCH  26  27
ENDBRANCH  24  26
ENDBRANCH   1  22
TORSDOF 11
ENDMDL
