MODEL 1
REMARK VINA RESULT: -6.651218265      0.000      0.000
REMARK  14 active torsions:
REMARK  status: ('A' for Active; 'I' for Inactive)
REMARK    1  A    between atoms: C2_7  and  N3_8 
REMARK    2  A    between atoms: N3_8  and  C3_10 
REMARK    3  A    between atoms: C3_10  and  C4_11 
REMARK    4  A    between atoms: C11_22  and  C12_23 
REMARK       I    between atoms: C12_23  and  N5_25 
REMARK    5  A    between atoms: N5_25  and  C13_27 
REMARK    6  A    between atoms: C13_27  and  C14_28 
REMARK    7  A    between atoms: C14_28  and  C15_29 
REMARK    8  A    between atoms: C15_29  and  S1_30 
REMARK    9  A    between atoms: S1_30  and  C16_31 
REMARK   10  A    between atoms: S1_30  and  C18_34 
REMARK   11  A    between atoms: C16_31  and  C17_32 
REMARK   12  A    between atoms: C18_34  and  C19_35 
REMARK   13  A    between atoms: C19_35  and  C20_36 
REMARK   14  A    between atoms: C20_36  and  O2_37 
ROOT
HETATM    1  N1  UNL     1      40.525  22.801  38.392  1.00  0.00    -0.384 N 
ATOM      2  H11 UNL     1      41.507  23.028  38.242  1.00  0.00     0.157 HD
ATOM      3  H12 UNL     1      40.035  23.166  39.210  1.00  0.00     0.157 HD
HETATM    4  C1  UNL     1      39.940  22.102  37.505  1.00  0.00     0.132 A 
HETATM    5  N2  UNL     1      38.606  21.793  37.709  1.00  0.00    -0.176 N 
ATOM      6  H2  UNL     1      38.121  22.162  38.527  1.00  0.00     0.186 HD
HETATM    7  C2  UNL     1      37.946  21.017  36.847  1.00  0.00     0.679 A 
HETATM    8  N4  UNL     1      38.572  20.524  35.769  1.00  0.00    -0.201 N 
ATOM      9  H4  UNL     1      38.053  19.930  35.122  1.00  0.00     0.183 HD
HETATM   10  C10 UNL     1      39.858  20.790  35.519  1.00  0.00     0.127 A 
HETATM   11  C11 UNL     1      40.596  21.612  36.409  1.00  0.00     0.091 A 
ENDROOT
BRANCH  11  12
HETATM   12  C12 UNL     1      41.962  21.938  36.041  1.00  0.00     0.256 C 
HETATM   13  O1  UNL     1      42.234  23.196  35.960  1.00  0.00    -0.267 OA
HETATM   14  N5  UNL     1      43.021  21.077  35.769  1.00  0.00    -0.357 N 
ATOM     15  H5  UNL     1      42.851  20.074  35.841  1.00  0.00     0.162 HD
BRANCH  14  16
HETATM   16  C13 UNL     1      44.349  21.512  35.390  1.00  0.00     0.123 C 
BRANCH  16  17
HETATM   17  C14 UNL     1      44.813  21.008  34.059  1.00  0.00     0.029 C 
BRANCH  17  18
HETATM   18  C15 UNL     1      44.018  19.742  33.766  1.00  0.00     0.065 C 
BRANCH  18  19
HETATM   19  S1  UNL     1      45.068  18.277  33.935  1.00  0.00    -0.219 SA
BRANCH  19  20
HETATM   20  C16 UNL     1      44.679  17.599  35.500  1.00  0.00     0.078 C 
BRANCH  20  21
HETATM   21  C17 UNL     1      44.940  16.093  35.586  1.00  0.00     0.124 C 
HETATM   22 CL3  UNL     1      44.659  15.574  37.257  1.00  0.00    -0.130 Cl
ENDBRANCH  20  21
ENDBRANCH  19  20
BRANCH  19  23
HETATM   23  C18 UNL     1      46.698  18.785  33.661  1.00  0.00     0.065 C 
BRANCH  23  24
HETATM   24  C19 UNL     1      47.751  18.403  34.618  1.00  0.00     0.035 C 
BRANCH  24  25
HETATM   25  C20 UNL     1      48.447  17.112  34.486  1.00  0.00     0.165 C 
BRANCH  25  26
HETATM   26  O2  UNL     1      48.843  16.653  35.741  1.00  0.00    -0.401 OA
ATOM     27  H2  UNL     1      49.729  16.313  35.698  1.00  0.00     0.209 HD
ENDBRANCH  25  26
ENDBRANCH  24  25
ENDBRANCH  23  24
ENDBRANCH  19  23
ENDBRANCH  18  19
ENDBRANCH  17  18
ENDBRANCH  16  17
ENDBRANCH  14  16
ENDBRANCH  11  12
BRANCH   7  28
HETATM   28  N3  UNL     1      36.708  20.756  37.071  1.00  0.00    -0.222 N 
ATOM     29  H3  UNL     1      36.091  21.498  37.402  1.00  0.00     0.178 HD
BRANCH  28  30
HETATM   30  C3  UNL     1      36.176  19.430  36.861  1.00  0.00     0.176 C 
BRANCH  30  31
HETATM   31  C4  UNL     1      35.607  18.946  38.141  1.00  0.00    -0.038 A 
HETATM   32  C5  UNL     1      36.528  18.666  39.156  1.00  0.00     0.010 A 
HETATM   33  C6  UNL     1      36.091  18.212  40.383  1.00  0.00     0.026 A 
HETATM   34  C7  UNL     1      34.729  18.033  40.604  1.00  0.00     0.055 A 
HETATM   35 CL1  UNL     1      34.220  17.452  42.184  1.00  0.00    -0.083 Cl
HETATM   36  C8  UNL     1      33.810  18.304  39.616  1.00  0.00     0.056 A 
HETATM   37 CL2  UNL     1      32.120  18.060  39.954  1.00  0.00    -0.083 Cl
HETATM   38  C9  UNL     1      34.286  18.757  38.400  1.00  0.00     0.034 A 
ENDBRANCH  30  31
ENDBRANCH  28  30
ENDBRANCH   7  28
TORSDOF 14
ENDMDL
MODEL 2
REMARK VINA RESULT: -6.405503980      3.359      9.592
REMARK  14 active torsions:
REMARK  status: ('A' for Active; 'I' for Inactive)
REMARK    1  A    between atoms: C2_7  and  N3_8 
REMARK    2  A    between atoms: N3_8  and  C3_10 
REMARK    3  A    between atoms: C3_10  and  C4_11 
REMARK    4  A    between atoms: C11_22  and  C12_23 
REMARK       I    between atoms: C12_23  and  N5_25 
REMARK    5  A    between atoms: N5_25  and  C13_27 
REMARK    6  A    between atoms: C13_27  and  C14_28 
REMARK    7  A    between atoms: C14_28  and  C15_29 
REMARK    8  A    between atoms: C15_29  and  S1_30 
REMARK    9  A    between atoms: S1_30  and  C16_31 
REMARK   10  A    between atoms: S1_30  and  C18_34 
REMARK   11  A    between atoms: C16_31  and  C17_32 
REMARK   12  A    between atoms: C18_34  and  C19_35 
REMARK   13  A    between atoms: C19_35  and  C20_36 
REMARK   14  A    between atoms: C20_36  and  O2_37 
ROOT
HETATM    1  N1  UNL     1      39.389  23.786  37.474  1.00  0.00    -0.384 N 
ATOM      2  H11 UNL     1      38.397  23.649  37.670  1.00  0.00     0.157 HD
ATOM      3  H12 UNL     1      39.855  24.643  37.776  1.00  0.00     0.157 HD
HETATM    4  C1  UNL     1      40.012  22.839  36.899  1.00  0.00     0.132 A 
HETATM    5  N2  UNL     1      41.358  23.026  36.634  1.00  0.00    -0.176 N 
ATOM      6  H2  UNL     1      41.819  23.884  36.939  1.00  0.00     0.186 HD
HETATM    7  C2  UNL     1      42.060  22.097  35.982  1.00  0.00     0.679 A 
HETATM    8  N4  UNL     1      41.466  20.967  35.575  1.00  0.00    -0.201 N 
ATOM      9  H4  UNL     1      42.018  20.268  35.076  1.00  0.00     0.183 HD
HETATM   10  C10 UNL     1      40.172  20.730  35.804  1.00  0.00     0.127 A 
HETATM   11  C11 UNL     1      39.388  21.691  36.495  1.00  0.00     0.091 A 
ENDROOT
BRANCH  11  12
HETATM   12  C12 UNL     1      38.011  21.342  36.792  1.00  0.00     0.256 C 
HETATM   13  O1  UNL     1      37.667  21.433  38.031  1.00  0.00    -0.267 OA
HETATM   14  N5  UNL     1      37.009  20.927  35.920  1.00  0.00    -0.357 N 
ATOM     15  H5  UNL     1      37.237  20.860  34.929  1.00  0.00     0.162 HD
BRANCH  14  16
HETATM   16  C13 UNL     1      35.663  20.584  36.329  1.00  0.00     0.123 C 
BRANCH  16  17
HETATM   17  C14 UNL     1      35.372  19.115  36.344  1.00  0.00     0.029 C 
BRANCH  17  18
HETATM   18  C15 UNL     1      35.133  18.728  37.798  1.00  0.00     0.065 C 
BRANCH  18  19
HETATM   19  S1  UNL     1      36.171  17.318  38.260  1.00  0.00    -0.219 SA
BRANCH  19  20
HETATM   20  C16 UNL     1      35.666  16.873  39.875  1.00  0.00     0.078 C 
BRANCH  20  21
HETATM   21  C17 UNL     1      35.208  18.070  40.714  1.00  0.00     0.124 C 
HETATM   22 CL3  UNL     1      34.989  17.525  42.385  1.00  0.00    -0.130 Cl
ENDBRANCH  20  21
ENDBRANCH  19  20
BRANCH  19  23
HETATM   23  C18 UNL     1      37.815  17.803  38.035  1.00  0.00     0.065 C 
BRANCH  23  24
HETATM   24  C19 UNL     1      38.589  18.310  39.182  1.00  0.00     0.035 C 
BRANCH  24  25
HETATM   25  C20 UNL     1      40.007  18.673  39.023  1.00  0.00     0.165 C 
BRANCH  25  26
HETATM   26  O2  UNL     1      40.191  20.021  39.326  1.00  0.00    -0.401 OA
ATOM     27  H2  UNL     1      41.113  20.243  39.276  1.00  0.00     0.209 HD
ENDBRANCH  25  26
ENDBRANCH  24  25
ENDBRANCH  23  24
ENDBRANCH  19  23
ENDBRANCH  18  19
ENDBRANCH  17  18
ENDBRANCH  16  17
ENDBRANCH  14  16
ENDBRANCH  11  12
BRANCH   7  28
HETATM   28  N3  UNL     1      43.309  22.308  35.758  1.00  0.00    -0.222 N 
ATOM     29  H3  UNL     1      43.988  22.130  36.498  1.00  0.00     0.178 HD
BRANCH  28  30
HETATM   30  C3  UNL     1      43.765  22.791  34.477  1.00  0.00     0.176 C 
BRANCH  30  31
HETATM   31  C4  UNL     1      44.717  21.805  33.915  1.00  0.00    -0.038 A 
HETATM   32  C5  UNL     1      44.757  21.716  32.519  1.00  0.00     0.010 A 
HETATM   33  C6  UNL     1      45.616  20.828  31.906  1.00  0.00     0.026 A 
HETATM   34  C7  UNL     1      46.440  20.020  32.683  1.00  0.00     0.055 A 
HETATM   35 CL1  UNL     1      47.517  18.902  31.856  1.00  0.00    -0.083 Cl
HETATM   36  C8  UNL     1      46.412  20.095  34.058  1.00  0.00     0.056 A 
HETATM   37 CL2  UNL     1      47.468  19.059  34.975  1.00  0.00    -0.083 Cl
HETATM   38  C9  UNL     1      45.540  20.998  34.636  1.00  0.00     0.034 A 
ENDBRANCH  30  31
ENDBRANCH  28  30
ENDBRANCH   7  28
TORSDOF 14
ENDMDL
MODEL 3
REMARK VINA RESULT: -6.402348841      2.316      3.185
REMARK  14 active torsions:
REMARK  status: ('A' for Active; 'I' for Inactive)
REMARK    1  A    between atoms: C2_7  and  N3_8 
REMARK    2  A    between atoms: N3_8  and  C3_10 
REMARK    3  A    between atoms: C3_10  and  C4_11 
REMARK    4  A    between atoms: C11_22  and  C12_23 
REMARK       I    between atoms: C12_23  and  N5_25 
REMARK    5  A    between atoms: N5_25  and  C13_27 
REMARK    6  A    between atoms: C13_27  and  C14_28 
REMARK    7  A    between atoms: C14_28  and  C15_29 
REMARK    8  A    between atoms: C15_29  and  S1_30 
REMARK    9  A    between atoms: S1_30  and  C16_31 
REMARK   10  A    between atoms: S1_30  and  C18_34 
REMARK   11  A    between atoms: C16_31  and  C17_32 
REMARK   12  A    between atoms: C18_34  and  C19_35 
REMARK   13  A    between atoms: C19_35  and  C20_36 
REMARK   14  A    between atoms: C20_36  and  O2_37 
ROOT
HETATM    1  N1  UNL     1      38.394  22.104  36.866  1.00  0.00    -0.384 N 
ATOM      2  H11 UNL     1      39.288  22.414  36.485  1.00  0.00     0.157 HD
ATOM      3  H12 UNL     1      37.549  22.649  36.694  1.00  0.00     0.157 HD
HETATM    4  C1  UNL     1      38.377  21.004  37.504  1.00  0.00     0.132 A 
HETATM    5  N2  UNL     1      37.164  20.583  38.022  1.00  0.00    -0.176 N 
ATOM      6  H2  UNL     1      36.322  21.131  37.845  1.00  0.00     0.186 HD
HETATM    7  C2  UNL     1      37.084  19.469  38.751  1.00  0.00     0.679 A 
HETATM    8  N4  UNL     1      38.183  18.740  38.991  1.00  0.00    -0.201 N 
ATOM      9  H4  UNL     1      38.104  17.892  39.552  1.00  0.00     0.183 HD
HETATM   10  C10 UNL     1      39.380  19.096  38.516  1.00  0.00     0.127 A 
HETATM   11  C11 UNL     1      39.510  20.273  37.735  1.00  0.00     0.091 A 
ENDROOT
BRANCH  11  12
HETATM   12  C12 UNL     1      40.817  20.563  37.173  1.00  0.00     0.256 C 
HETATM   13  O1  UNL     1      41.405  21.611  37.637  1.00  0.00    -0.267 OA
HETATM   14  N5  UNL     1      41.524  19.858  36.203  1.00  0.00    -0.357 N 
ATOM     15  H5  UNL     1      41.100  19.011  35.825  1.00  0.00     0.162 HD
BRANCH  14  16
HETATM   16  C13 UNL     1      42.824  20.248  35.697  1.00  0.00     0.123 C 
BRANCH  16  17
HETATM   17  C14 UNL     1      43.399  19.317  34.676  1.00  0.00     0.029 C 
BRANCH  17  18
HETATM   18  C15 UNL     1      44.734  18.831  35.224  1.00  0.00     0.065 C 
BRANCH  18  19
HETATM   19  S1  UNL     1      46.044  20.027  34.863  1.00  0.00    -0.219 SA
BRANCH  19  20
HETATM   20  C16 UNL     1      45.556  20.826  33.385  1.00  0.00     0.078 C 
BRANCH  20  21
HETATM   21  C17 UNL     1      45.225  22.308  33.582  1.00  0.00     0.124 C 
HETATM   22 CL3  UNL     1      43.687  22.646  32.771  1.00  0.00    -0.130 Cl
ENDBRANCH  20  21
ENDBRANCH  19  20
BRANCH  19  23
HETATM   23  C18 UNL     1      47.538  19.158  34.853  1.00  0.00     0.065 C 
BRANCH  23  24
HETATM   24  C19 UNL     1      47.677  17.957  34.010  1.00  0.00     0.035 C 
BRANCH  24  25
HETATM   25  C20 UNL     1      47.921  16.640  34.622  1.00  0.00     0.165 C 
BRANCH  25  26
HETATM   26  O2  UNL     1      48.827  16.764  35.675  1.00  0.00    -0.401 OA
ATOM     27  H2  UNL     1      49.696  16.942  35.337  1.00  0.00     0.209 HD
ENDBRANCH  25  26
ENDBRANCH  24  25
ENDBRANCH  23  24
ENDBRANCH  19  23
ENDBRANCH  18  19
ENDBRANCH  17  18
ENDBRANCH  16  17
ENDBRANCH  14  16
ENDBRANCH  11  12
BRANCH   7  28
HETATM   28  N3  UNL     1      35.938  19.110  39.211  1.00  0.00    -0.222 N 
ATOM     29  H3  UNL     1      35.089  19.419  38.738  1.00  0.00     0.178 HD
BRANCH  28  30
HETATM   30  C3  UNL     1      35.834  18.278  40.386  1.00  0.00     0.176 C 
BRANCH  30  31
HETATM   31  C4  UNL     1      34.400  18.023  40.655  1.00  0.00    -0.038 A 
HETATM   32  C5  UNL     1      34.119  17.041  41.611  1.00  0.00     0.010 A 
HETATM   33  C6  UNL     1      32.812  16.737  41.930  1.00  0.00     0.026 A 
HETATM   34  C7  UNL     1      31.774  17.412  41.294  1.00  0.00     0.055 A 
HETATM   35 CL1  UNL     1      30.124  16.990  41.733  1.00  0.00    -0.083 Cl
HETATM   36  C8  UNL     1      32.034  18.382  40.351  1.00  0.00     0.056 A 
HETATM   37 CL2  UNL     1      30.693  19.192  39.591  1.00  0.00    -0.083 Cl
HETATM   38  C9  UNL     1      33.356  18.659  40.059  1.00  0.00     0.034 A 
ENDBRANCH  30  31
ENDBRANCH  28  30
ENDBRANCH   7  28
TORSDOF 14
ENDMDL
MODEL 4
REMARK VINA RESULT: -6.399836832      5.274     10.566
REMARK  14 active torsions:
REMARK  status: ('A' for Active; 'I' for Inactive)
REMARK    1  A    between atoms: C2_7  and  N3_8 
REMARK    2  A    between atoms: N3_8  and  C3_10 
REMARK    3  A    between atoms: C3_10  and  C4_11 
REMARK    4  A    between atoms: C11_22  and  C12_23 
REMARK       I    between atoms: C12_23  and  N5_25 
REMARK    5  A    between atoms: N5_25  and  C13_27 
REMARK    6  A    between atoms: C13_27  and  C14_28 
REMARK    7  A    between atoms: C14_28  and  C15_29 
REMARK    8  A    between atoms: C15_29  and  S1_30 
REMARK    9  A    between atoms: S1_30  and  C16_31 
REMARK   10  A    between atoms: S1_30  and  C18_34 
REMARK   11  A    between atoms: C16_31  and  C17_32 
REMARK   12  A    between atoms: C18_34  and  C19_35 
REMARK   13  A    between atoms: C19_35  and  C20_36 
REMARK   14  A    between atoms: C20_36  and  O2_37 
ROOT
HETATM    1  N1  UNL     1      43.738  14.679  39.083  1.00  0.00    -0.384 N 
ATOM      2  H11 UNL     1      43.041  15.034  39.737  1.00  0.00     0.157 HD
ATOM      3  H12 UNL     1      44.303  13.866  39.331  1.00  0.00     0.157 HD
HETATM    4  C1  UNL     1      43.827  15.250  37.951  1.00  0.00     0.132 A 
HETATM    5  N2  UNL     1      44.773  14.768  37.062  1.00  0.00    -0.176 N 
ATOM      6  H2  UNL     1      45.334  13.954  37.315  1.00  0.00     0.186 HD
HETATM    7  C2  UNL     1      44.960  15.356  35.879  1.00  0.00     0.679 A 
HETATM    8  N4  UNL     1      44.229  16.427  35.536  1.00  0.00    -0.201 N 
ATOM      9  H4  UNL     1      44.387  16.865  34.629  1.00  0.00     0.183 HD
HETATM   10  C10 UNL     1      43.301  16.935  36.351  1.00  0.00     0.127 A 
HETATM   11  C11 UNL     1      43.069  16.340  37.618  1.00  0.00     0.091 A 
ENDROOT
BRANCH  11  12
HETATM   12  C12 UNL     1      41.989  16.880  38.423  1.00  0.00     0.256 C 
HETATM   13  O1  UNL     1      41.271  16.012  39.051  1.00  0.00    -0.267 OA
HETATM   14  N5  UNL     1      41.625  18.210  38.615  1.00  0.00    -0.357 N 
ATOM     15  H5  UNL     1      42.180  18.928  38.150  1.00  0.00     0.162 HD
BRANCH  14  16
HETATM   16  C13 UNL     1      40.509  18.640  39.432  1.00  0.00     0.123 C 
BRANCH  16  17
HETATM   17  C14 UNL     1      39.664  19.712  38.816  1.00  0.00     0.029 C 
BRANCH  17  18
HETATM   18  C15 UNL     1      39.930  19.676  37.317  1.00  0.00     0.065 C 
BRANCH  18  19
HETATM   19  S1  UNL     1      40.389  21.320  36.713  1.00  0.00    -0.219 SA
BRANCH  19  20
HETATM   20  C16 UNL     1      42.066  21.190  36.229  1.00  0.00     0.078 C 
BRANCH  20  21
HETATM   21  C17 UNL     1      42.574  22.426  35.481  1.00  0.00     0.124 C 
HETATM   22 CL3  UNL     1      44.345  22.390  35.486  1.00  0.00    -0.130 Cl
ENDBRANCH  20  21
ENDBRANCH  19  20
BRANCH  19  23
HETATM   23  C18 UNL     1      39.997  22.449  37.962  1.00  0.00     0.065 C 
BRANCH  23  24
HETATM   24  C19 UNL     1      39.552  23.807  37.604  1.00  0.00     0.035 C 
BRANCH  24  25
HETATM   25  C20 UNL     1      39.772  24.931  38.529  1.00  0.00     0.165 C 
BRANCH  25  26
HETATM   26  O2  UNL     1      40.526  24.509  39.623  1.00  0.00    -0.401 OA
ATOM     27  H2  UNL     1      41.302  24.050  39.325  1.00  0.00     0.209 HD
ENDBRANCH  25  26
ENDBRANCH  24  25
ENDBRANCH  23  24
ENDBRANCH  19  23
ENDBRANCH  18  19
ENDBRANCH  17  18
ENDBRANCH  16  17
ENDBRANCH  14  16
ENDBRANCH  11  12
BRANCH   7  28
HETATM   28  N3  UNL     1      45.846  14.875  35.082  1.00  0.00    -0.222 N 
ATOM     29  H3  UNL     1      45.555  14.270  34.315  1.00  0.00     0.178 HD
BRANCH  28  30
HETATM   30  C3  UNL     1      47.247  15.179  35.254  1.00  0.00     0.176 C 
BRANCH  30  31
HETATM   31  C4  UNL     1      47.642  16.170  34.226  1.00  0.00    -0.038 A 
HETATM   32  C5  UNL     1      48.594  17.117  34.620  1.00  0.00     0.010 A 
HETATM   33  C6  UNL     1      49.025  18.078  33.729  1.00  0.00     0.026 A 
HETATM   34  C7  UNL     1      48.506  18.101  32.438  1.00  0.00     0.055 A 
HETATM   35 CL1  UNL     1      49.086  19.345  31.338  1.00  0.00    -0.083 Cl
HETATM   36  C8  UNL     1      47.569  17.176  32.035  1.00  0.00     0.056 A 
HETATM   37 CL2  UNL     1      46.959  17.256  30.406  1.00  0.00    -0.083 Cl
HETATM   38  C9  UNL     1      47.163  16.229  32.955  1.00  0.00     0.034 A 
ENDBRANCH  30  31
ENDBRANCH  28  30
ENDBRANCH   7  28
TORSDOF 14
ENDMDL
MODEL 5
REMARK VINA RESULT: -6.385171276      4.003      9.415
REMARK  14 active torsions:
REMARK  status: ('A' for Active; 'I' for Inactive)
REMARK    1  A    between atoms: C2_7  and  N3_8 
REMARK    2  A    between atoms: N3_8  and  C3_10 
REMARK    3  A    between atoms: C3_10  and  C4_11 
REMARK    4  A    between atoms: C11_22  and  C12_23 
REMARK       I    between atoms: C12_23  and  N5_25 
REMARK    5  A    between atoms: N5_25  and  C13_27 
REMARK    6  A    between atoms: C13_27  and  C14_28 
REMARK    7  A    between atoms: C14_28  and  C15_29 
REMARK    8  A    between atoms: C15_29  and  S1_30 
REMARK    9  A    between atoms: S1_30  and  C16_31 
REMARK   10  A    between atoms: S1_30  and  C18_34 
REMARK   11  A    between atoms: C16_31  and  C17_32 
REMARK   12  A    between atoms: C18_34  and  C19_35 
REMARK   13  A    between atoms: C19_35  and  C20_36 
REMARK   14  A    between atoms: C20_36  and  O2_37 
ROOT
HETATM    1  N1  UNL     1      39.418  23.760  37.300  1.00  0.00    -0.384 N 
ATOM      2  H11 UNL     1      38.428  23.634  37.509  1.00  0.00     0.157 HD
ATOM      3  H12 UNL     1      39.881  24.639  37.532  1.00  0.00     0.157 HD
HETATM    4  C1  UNL     1      40.044  22.773  36.798  1.00  0.00     0.132 A 
HETATM    5  N2  UNL     1      41.388  22.945  36.514  1.00  0.00    -0.176 N 
ATOM      6  H2  UNL     1      41.846  23.825  36.750  1.00  0.00     0.186 HD
HETATM    7  C2  UNL     1      42.092  21.971  35.934  1.00  0.00     0.679 A 
HETATM    8  N4  UNL     1      41.502  20.810  35.618  1.00  0.00    -0.201 N 
ATOM      9  H4  UNL     1      42.054  20.077  35.173  1.00  0.00     0.183 HD
HETATM   10  C10 UNL     1      40.209  20.587  35.870  1.00  0.00     0.127 A 
HETATM   11  C11 UNL     1      39.423  21.594  36.487  1.00  0.00     0.091 A 
ENDROOT
BRANCH  11  12
HETATM   12  C12 UNL     1      38.049  21.264  36.815  1.00  0.00     0.256 C 
HETATM   13  O1  UNL     1      37.723  21.398  38.056  1.00  0.00    -0.267 OA
HETATM   14  N5  UNL     1      37.031  20.827  35.972  1.00  0.00    -0.357 N 
ATOM     15  H5  UNL     1      37.244  20.726  34.980  1.00  0.00     0.162 HD
BRANCH  14  16
HETATM   16  C13 UNL     1      35.689  20.506  36.412  1.00  0.00     0.123 C 
BRANCH  16  17
HETATM   17  C14 UNL     1      35.347  19.049  36.352  1.00  0.00     0.029 C 
BRANCH  17  18
HETATM   18  C15 UNL     1      35.025  18.613  37.775  1.00  0.00     0.065 C 
BRANCH  18  19
HETATM   19  S1  UNL     1      36.099  17.246  38.280  1.00  0.00    -0.219 SA
BRANCH  19  20
HETATM   20  C16 UNL     1      35.605  16.838  39.908  1.00  0.00     0.078 C 
BRANCH  20  21
HETATM   21  C17 UNL     1      35.109  18.046  40.708  1.00  0.00     0.124 C 
HETATM   22 CL3  UNL     1      34.976  17.570  42.409  1.00  0.00    -0.130 Cl
ENDBRANCH  20  21
ENDBRANCH  19  20
BRANCH  19  23
HETATM   23  C18 UNL     1      37.731  17.765  38.040  1.00  0.00     0.065 C 
BRANCH  23  24
HETATM   24  C19 UNL     1      38.517  18.252  39.187  1.00  0.00     0.035 C 
BRANCH  24  25
HETATM   25  C20 UNL     1      39.952  18.546  39.037  1.00  0.00     0.165 C 
BRANCH  25  26
HETATM   26  O2  UNL     1      40.206  19.872  39.388  1.00  0.00    -0.401 OA
ATOM     27  H2  UNL     1      40.013  20.445  38.656  1.00  0.00     0.209 HD
ENDBRANCH  25  26
ENDBRANCH  24  25
ENDBRANCH  23  24
ENDBRANCH  19  23
ENDBRANCH  18  19
ENDBRANCH  17  18
ENDBRANCH  16  17
ENDBRANCH  14  16
ENDBRANCH  11  12
BRANCH   7  28
HETATM   28  N3  UNL     1      43.338  22.169  35.690  1.00  0.00    -0.222 N 
ATOM     29  H3  UNL     1      43.848  22.873  36.223  1.00  0.00     0.178 HD
BRANCH  28  30
HETATM   30  C3  UNL     1      44.028  21.411  34.673  1.00  0.00     0.176 C 
BRANCH  30  31
HETATM   31  C4  UNL     1      43.807  22.072  33.365  1.00  0.00    -0.038 A 
HETATM   32  C5  UNL     1      44.623  23.174  33.089  1.00  0.00     0.010 A 
HETATM   33  C6  UNL     1      44.492  23.851  31.894  1.00  0.00     0.026 A 
HETATM   34  C7  UNL     1      43.544  23.432  30.967  1.00  0.00     0.055 A 
HETATM   35 CL1  UNL     1      43.413  24.327  29.458  1.00  0.00    -0.083 Cl
HETATM   36  C8  UNL     1      42.734  22.349  31.223  1.00  0.00     0.056 A 
HETATM   37 CL2  UNL     1      41.567  21.873  30.023  1.00  0.00    -0.083 Cl
HETATM   38  C9  UNL     1      42.895  21.696  32.430  1.00  0.00     0.034 A 
ENDBRANCH  30  31
ENDBRANCH  28  30
ENDBRANCH   7  28
TORSDOF 14
ENDMDL
