MODEL 1
REMARK VINA RESULT: -6.394016654      0.000      0.000
REMARK  10 active torsions:
REMARK  status: ('A' for Active; 'I' for Inactive)
REMARK    1  A    between atoms: C2_2  and  N1_5 
REMARK    2  A    between atoms: N1_5  and  C5_7 
REMARK    3  A    between atoms: C5_7  and  O1_8 
REMARK    4  A    between atoms: C5_7  and  C6_10 
REMARK    5  A    between atoms: C6_10  and  C7_11 
REMARK    6  A    between atoms: C7_11  and  C8_12 
REMARK    7  A    between atoms: C8_12  and  N2_13 
REMARK       I    between atoms: C9_15  and  N4_17 
REMARK    8  A    between atoms: N4_17  and  C10_18 
REMARK    9  A    between atoms: N4_17  and  C12_22 
REMARK   10  A    between atoms: C10_18  and  C11_19 
ROOT
HETATM    1  N2  UNL     1      42.033  21.053  34.769  1.00  0.00    -0.344 N 
ATOM      2  H2  UNL     1      41.040  21.024  34.538  1.00  0.00     0.167 HD
HETATM    3  C9  UNL     1      42.234  21.662  35.848  1.00  0.00     0.194 C 
HETATM    4  N3  UNL     1      43.483  21.901  36.483  1.00  0.00    -0.063 NA
HETATM    5  N4  UNL     1      41.090  22.182  36.581  1.00  0.00    -0.316 N 
ENDROOT
BRANCH   1   6
HETATM    6  C8  UNL     1      42.796  20.408  33.804  1.00  0.00     0.064 C 
BRANCH   6   7
HETATM    7  C7  UNL     1      43.575  21.253  32.830  1.00  0.00     0.049 C 
BRANCH   7   8
HETATM    8  C6  UNL     1      45.030  21.325  33.205  1.00  0.00     0.058 C 
BRANCH   8   9
HETATM    9  C5  UNL     1      45.534  22.787  33.069  1.00  0.00     0.214 C 
BRANCH   9  10
HETATM   10  N1  UNL     1      44.727  23.474  32.153  1.00  0.00    -0.389 N 
ATOM     11  H1  UNL     1      43.718  23.467  32.304  1.00  0.00     0.156 HD
BRANCH  10  12
HETATM   12  C2  UNL     1      45.213  24.162  31.057  1.00  0.00     0.017 C 
HETATM   13  C1  UNL     1      44.274  25.254  30.609  1.00  0.00     0.037 C 
HETATM   14  C3  UNL     1      45.307  23.166  29.882  1.00  0.00     0.037 C 
HETATM   15  C4  UNL     1      46.579  24.788  31.213  1.00  0.00     0.037 C 
ENDBRANCH  10  12
ENDBRANCH   9  10
BRANCH   9  16
HETATM   16  O1  UNL     1      45.367  23.312  34.346  1.00  0.00    -0.377 OA
ATOM     17  H1  UNL     1      45.700  22.706  34.997  1.00  0.00     0.212 HD
ENDBRANCH   9  16
ENDBRANCH   8   9
ENDBRANCH   7   8
ENDBRANCH   6   7
ENDBRANCH   1   6
BRANCH   5  18
HETATM   18  C10 UNL     1      40.789  23.555  36.731  1.00  0.00     0.203 C 
BRANCH  18  19
HETATM   19  C11 UNL     1      40.144  23.966  38.017  1.00  0.00     0.371 C 
HETATM   20  F1  UNL     1      41.055  23.680  39.049  1.00  0.00    -0.213 F 
HETATM   21  F2  UNL     1      39.955  25.344  38.099  1.00  0.00    -0.213 F 
ENDBRANCH  18  19
ENDBRANCH   5  18
BRANCH   5  22
HETATM   22  C12 UNL     1      40.275  21.140  37.155  1.00  0.00     0.041 A 
HETATM   23  C13 UNL     1      40.786  20.417  38.202  1.00  0.00     0.075 A 
HETATM   24  C14 UNL     1      40.033  19.417  38.796  1.00  0.00     0.158 A 
HETATM   25  F3  UNL     1      40.578  18.727  39.822  1.00  0.00    -0.203 F 
HETATM   26  C15 UNL     1      38.767  19.145  38.339  1.00  0.00     0.172 A 
HETATM   27  F4  UNL     1      38.022  18.184  38.902  1.00  0.00    -0.201 F 
HETATM   28  C16 UNL     1      38.249  19.892  37.265  1.00  0.00     0.054 A 
HETATM   29 BR1  UNL     1      36.496  19.501  36.642  1.00  0.00    -0.048 Br
HETATM   30  C17 UNL     1      39.001  20.882  36.681  1.00  0.00     0.052 A 
ENDBRANCH   5  22
TORSDOF 10
ENDMDL
MODEL 2
REMARK VINA RESULT: -6.110119103      1.545      1.853
REMARK  10 active torsions:
REMARK  status: ('A' for Active; 'I' for Inactive)
REMARK    1  A    between atoms: C2_2  and  N1_5 
REMARK    2  A    between atoms: N1_5  and  C5_7 
REMARK    3  A    between atoms: C5_7  and  O1_8 
REMARK    4  A    between atoms: C5_7  and  C6_10 
REMARK    5  A    between atoms: C6_10  and  C7_11 
REMARK    6  A    between atoms: C7_11  and  C8_12 
REMARK    7  A    between atoms: C8_12  and  N2_13 
REMARK       I    between atoms: C9_15  and  N4_17 
REMARK    8  A    between atoms: N4_17  and  C10_18 
REMARK    9  A    between atoms: N4_17  and  C12_22 
REMARK   10  A    between atoms: C10_18  and  C11_19 
ROOT
HETATM    1  N2  UNL     1      42.126  20.790  34.756  1.00  0.00    -0.344 N 
ATOM      2  H2  UNL     1      41.172  20.444  34.646  1.00  0.00     0.167 HD
HETATM    3  C9  UNL     1      42.241  21.494  35.789  1.00  0.00     0.194 C 
HETATM    4  N3  UNL     1      43.413  22.142  36.265  1.00  0.00    -0.063 NA
HETATM    5  N4  UNL     1      41.076  21.681  36.641  1.00  0.00    -0.316 N 
ENDROOT
BRANCH   1   6
HETATM    6  C8  UNL     1      42.945  20.354  33.723  1.00  0.00     0.064 C 
BRANCH   6   7
HETATM    7  C7  UNL     1      43.595  21.389  32.844  1.00  0.00     0.049 C 
BRANCH   7   8
HETATM    8  C6  UNL     1      45.085  21.425  33.045  1.00  0.00     0.058 C 
BRANCH   8   9
HETATM    9  C5  UNL     1      45.587  22.892  32.986  1.00  0.00     0.214 C 
BRANCH   9  10
HETATM   10  N1  UNL     1      44.793  23.620  32.091  1.00  0.00    -0.389 N 
ATOM     11  H1  UNL     1      43.787  23.651  32.261  1.00  0.00     0.156 HD
BRANCH  10  12
HETATM   12  C2  UNL     1      45.286  24.299  30.993  1.00  0.00     0.017 C 
HETATM   13  C1  UNL     1      44.427  25.481  30.622  1.00  0.00     0.037 C 
HETATM   14  C3  UNL     1      45.240  23.338  29.787  1.00  0.00     0.037 C 
HETATM   15  C4  UNL     1      46.707  24.801  31.101  1.00  0.00     0.037 C 
ENDBRANCH  10  12
ENDBRANCH   9  10
BRANCH   9  16
HETATM   16  O1  UNL     1      45.399  23.357  34.284  1.00  0.00    -0.377 OA
ATOM     17  H1  UNL     1      44.868  22.744  34.779  1.00  0.00     0.212 HD
ENDBRANCH   9  16
ENDBRANCH   8   9
ENDBRANCH   7   8
ENDBRANCH   6   7
ENDBRANCH   1   6
BRANCH   5  18
HETATM   18  C10 UNL     1      40.381  22.903  36.793  1.00  0.00     0.203 C 
BRANCH  18  19
HETATM   19  C11 UNL     1      40.778  23.765  37.950  1.00  0.00     0.371 C 
HETATM   20  F1  UNL     1      41.396  24.911  37.420  1.00  0.00    -0.213 F 
HETATM   21  F2  UNL     1      39.677  24.258  38.646  1.00  0.00    -0.213 F 
ENDBRANCH  18  19
ENDBRANCH   5  18
BRANCH   5  22
HETATM   22  C12 UNL     1      40.691  20.477  37.332  1.00  0.00     0.041 A 
HETATM   23  C13 UNL     1      39.406  20.377  37.800  1.00  0.00     0.075 A 
HETATM   24  C14 UNL     1      38.987  19.232  38.457  1.00  0.00     0.158 A 
HETATM   25  F3  UNL     1      37.713  19.179  38.905  1.00  0.00    -0.203 F 
HETATM   26  C15 UNL     1      39.857  18.186  38.643  1.00  0.00     0.172 A 
HETATM   27  F4  UNL     1      39.470  17.069  39.273  1.00  0.00    -0.201 F 
HETATM   28  C16 UNL     1      41.174  18.295  38.159  1.00  0.00     0.054 A 
HETATM   29 BR1  UNL     1      42.368  16.840  38.426  1.00  0.00    -0.048 Br
HETATM   30  C17 UNL     1      41.583  19.433  37.509  1.00  0.00     0.052 A 
ENDBRANCH   5  22
TORSDOF 10
ENDMDL
MODEL 3
REMARK VINA RESULT: -6.011157215      1.253      1.729
REMARK  10 active torsions:
REMARK  status: ('A' for Active; 'I' for Inactive)
REMARK    1  A    between atoms: C2_2  and  N1_5 
REMARK    2  A    between atoms: N1_5  and  C5_7 
REMARK    3  A    between atoms: C5_7  and  O1_8 
REMARK    4  A    between atoms: C5_7  and  C6_10 
REMARK    5  A    between atoms: C6_10  and  C7_11 
REMARK    6  A    between atoms: C7_11  and  C8_12 
REMARK    7  A    between atoms: C8_12  and  N2_13 
REMARK       I    between atoms: C9_15  and  N4_17 
REMARK    8  A    between atoms: N4_17  and  C10_18 
REMARK    9  A    between atoms: N4_17  and  C12_22 
REMARK   10  A    between atoms: C10_18  and  C11_19 
ROOT
HETATM    1  N2  UNL     1      41.948  21.334  34.650  1.00  0.00    -0.344 N 
ATOM      2  H2  UNL     1      40.972  21.496  34.402  1.00  0.00     0.167 HD
HETATM    3  C9  UNL     1      42.214  21.802  35.784  1.00  0.00     0.194 C 
HETATM    4  N3  UNL     1      43.465  21.767  36.459  1.00  0.00    -0.063 NA
HETATM    5  N4  UNL     1      41.151  22.442  36.544  1.00  0.00    -0.316 N 
ENDROOT
BRANCH   1   6
HETATM    6  C8  UNL     1      42.622  20.656  33.643  1.00  0.00     0.064 C 
BRANCH   6   7
HETATM    7  C7  UNL     1      43.468  21.457  32.688  1.00  0.00     0.049 C 
BRANCH   7   8
HETATM    8  C6  UNL     1      44.919  21.431  33.084  1.00  0.00     0.058 C 
BRANCH   8   9
HETATM    9  C5  UNL     1      45.503  22.867  33.030  1.00  0.00     0.214 C 
BRANCH   9  10
HETATM   10  N1  UNL     1      44.745  23.646  32.147  1.00  0.00    -0.389 N 
ATOM     11  H1  UNL     1      43.743  23.726  32.320  1.00  0.00     0.156 HD
BRANCH  10  12
HETATM   12  C2  UNL     1      45.270  24.312  31.056  1.00  0.00     0.017 C 
HETATM   13  C1  UNL     1      44.395  25.459  30.615  1.00  0.00     0.037 C 
HETATM   14  C3  UNL     1      45.307  23.321  29.874  1.00  0.00     0.037 C 
HETATM   15  C4  UNL     1      46.669  24.858  31.216  1.00  0.00     0.037 C 
ENDBRANCH  10  12
ENDBRANCH   9  10
BRANCH   9  16
HETATM   16  O1  UNL     1      45.352  23.332  34.333  1.00  0.00    -0.377 OA
ATOM     17  H1  UNL     1      44.559  22.979  34.718  1.00  0.00     0.212 HD
ENDBRANCH   9  16
ENDBRANCH   8   9
ENDBRANCH   7   8
ENDBRANCH   6   7
ENDBRANCH   1   6
BRANCH   5  18
HETATM   18  C10 UNL     1      41.081  23.828  36.816  1.00  0.00     0.203 C 
BRANCH  18  19
HETATM   19  C11 UNL     1      40.229  24.245  37.972  1.00  0.00     0.371 C 
HETATM   20  F1  UNL     1      40.991  24.057  39.139  1.00  0.00    -0.213 F 
HETATM   21  F2  UNL     1      39.950  25.610  37.960  1.00  0.00    -0.213 F 
ENDBRANCH  18  19
ENDBRANCH   5  18
BRANCH   5  22
HETATM   22  C12 UNL     1      40.155  21.509  37.006  1.00  0.00     0.041 A 
HETATM   23  C13 UNL     1      38.859  21.682  36.592  1.00  0.00     0.075 A 
HETATM   24  C14 UNL     1      37.871  20.800  36.998  1.00  0.00     0.158 A 
HETATM   25  F3  UNL     1      36.607  21.012  36.569  1.00  0.00    -0.203 F 
HETATM   26  C15 UNL     1      38.183  19.744  37.817  1.00  0.00     0.172 A 
HETATM   27  F4  UNL     1      37.243  18.879  38.218  1.00  0.00    -0.201 F 
HETATM   28  C16 UNL     1      39.516  19.571  38.236  1.00  0.00     0.054 A 
HETATM   29 BR1  UNL     1      39.933  18.106  39.374  1.00  0.00    -0.048 Br
HETATM   30  C17 UNL     1      40.491  20.449  37.831  1.00  0.00     0.052 A 
ENDBRANCH   5  22
TORSDOF 10
ENDMDL
MODEL 4
REMARK VINA RESULT: -6.005438837      2.431      3.126
REMARK  10 active torsions:
REMARK  status: ('A' for Active; 'I' for Inactive)
REMARK    1  A    between atoms: C2_2  and  N1_5 
REMARK    2  A    between atoms: N1_5  and  C5_7 
REMARK    3  A    between atoms: C5_7  and  O1_8 
REMARK    4  A    between atoms: C5_7  and  C6_10 
REMARK    5  A    between atoms: C6_10  and  C7_11 
REMARK    6  A    between atoms: C7_11  and  C8_12 
REMARK    7  A    between atoms: C8_12  and  N2_13 
REMARK       I    between atoms: C9_15  and  N4_17 
REMARK    8  A    between atoms: N4_17  and  C10_18 
REMARK    9  A    between atoms: N4_17  and  C12_22 
REMARK   10  A    between atoms: C10_18  and  C11_19 
ROOT
HETATM    1  N2  UNL     1      42.766  21.832  35.537  1.00  0.00    -0.344 N 
ATOM      2  H2  UNL     1      42.800  20.931  35.060  1.00  0.00     0.167 HD
HETATM    3  C9  UNL     1      41.719  21.950  36.218  1.00  0.00     0.194 C 
HETATM    4  N3  UNL     1      41.327  23.061  37.013  1.00  0.00    -0.063 NA
HETATM    5  N4  UNL     1      40.776  20.842  36.248  1.00  0.00    -0.316 N 
ENDROOT
BRANCH   1   6
HETATM    6  C8  UNL     1      43.892  22.596  35.258  1.00  0.00     0.064 C 
BRANCH   6   7
HETATM    7  C7  UNL     1      44.472  22.529  33.869  1.00  0.00     0.049 C 
BRANCH   7   8
HETATM    8  C6  UNL     1      45.587  21.522  33.787  1.00  0.00     0.058 C 
BRANCH   8   9
HETATM    9  C5  UNL     1      46.274  21.613  32.399  1.00  0.00     0.214 C 
BRANCH   9  10
HETATM   10  N1  UNL     1      46.751  22.915  32.200  1.00  0.00    -0.389 N 
ATOM     11  H1  UNL     1      47.148  23.406  33.001  1.00  0.00     0.156 HD
BRANCH  10  12
HETATM   12  C2  UNL     1      46.718  23.574  30.986  1.00  0.00     0.017 C 
HETATM   13  C1  UNL     1      46.709  25.073  31.153  1.00  0.00     0.037 C 
HETATM   14  C3  UNL     1      45.389  23.212  30.290  1.00  0.00     0.037 C 
HETATM   15  C4  UNL     1      47.827  23.243  30.015  1.00  0.00     0.037 C 
ENDBRANCH  10  12
ENDBRANCH   9  10
BRANCH   9  16
HETATM   16  O1  UNL     1      47.336  20.721  32.499  1.00  0.00    -0.377 OA
ATOM     17  H1  UNL     1      47.488  20.491  33.408  1.00  0.00     0.212 HD
ENDBRANCH   9  16
ENDBRANCH   8   9
ENDBRANCH   7   8
ENDBRANCH   6   7
ENDBRANCH   1   6
BRANCH   5  18
HETATM   18  C10 UNL     1      39.495  20.862  35.650  1.00  0.00     0.203 C 
BRANCH  18  19
HETATM   19  C11 UNL     1      38.321  20.933  36.574  1.00  0.00     0.371 C 
HETATM   20  F1  UNL     1      38.030  19.618  36.979  1.00  0.00    -0.213 F 
HETATM   21  F2  UNL     1      38.620  21.599  37.761  1.00  0.00    -0.213 F 
ENDBRANCH  18  19
ENDBRANCH   5  18
BRANCH   5  22
HETATM   22  C12 UNL     1      41.282  19.697  36.963  1.00  0.00     0.041 A 
HETATM   23  C13 UNL     1      41.297  19.741  38.333  1.00  0.00     0.075 A 
HETATM   24  C14 UNL     1      41.761  18.657  39.063  1.00  0.00     0.158 A 
HETATM   25  F3  UNL     1      41.761  18.746  40.411  1.00  0.00    -0.203 F 
HETATM   26  C15 UNL     1      42.207  17.532  38.417  1.00  0.00     0.172 A 
HETATM   27  F4  UNL     1      42.655  16.473  39.104  1.00  0.00    -0.201 F 
HETATM   28  C16 UNL     1      42.187  17.494  37.010  1.00  0.00     0.054 A 
HETATM   29 BR1  UNL     1      42.811  15.929  36.129  1.00  0.00    -0.048 Br
HETATM   30  C17 UNL     1      41.727  18.571  36.292  1.00  0.00     0.052 A 
ENDBRANCH   5  22
TORSDOF 10
ENDMDL
MODEL 5
REMARK VINA RESULT: -5.922014064      4.011      8.637
REMARK  10 active torsions:
REMARK  status: ('A' for Active; 'I' for Inactive)
REMARK    1  A    between atoms: C2_2  and  N1_5 
REMARK    2  A    between atoms: N1_5  and  C5_7 
REMARK    3  A    between atoms: C5_7  and  O1_8 
REMARK    4  A    between atoms: C5_7  and  C6_10 
REMARK    5  A    between atoms: C6_10  and  C7_11 
REMARK    6  A    between atoms: C7_11  and  C8_12 
REMARK    7  A    between atoms: C8_12  and  N2_13 
REMARK       I    between atoms: C9_15  and  N4_17 
REMARK    8  A    between atoms: N4_17  and  C10_18 
REMARK    9  A    between atoms: N4_17  and  C12_22 
REMARK   10  A    between atoms: C10_18  and  C11_19 
ROOT
HETATM    1  N2  UNL     1      40.788  20.543  38.234  1.00  0.00    -0.344 N 
ATOM      2  H2  UNL     1      41.712  20.861  38.527  1.00  0.00     0.167 HD
HETATM    3  C9  UNL     1      40.358  21.217  37.266  1.00  0.00     0.194 C 
HETATM    4  N3  UNL     1      39.115  21.064  36.594  1.00  0.00    -0.063 NA
HETATM    5  N4  UNL     1      41.199  22.271  36.719  1.00  0.00    -0.316 N 
ENDROOT
BRANCH   1   6
HETATM    6  C8  UNL     1      40.347  19.481  39.013  1.00  0.00     0.064 C 
BRANCH   6   7
HETATM    7  C7  UNL     1      39.276  18.583  38.452  1.00  0.00     0.049 C 
BRANCH   7   8
HETATM    8  C6  UNL     1      38.194  18.319  39.464  1.00  0.00     0.058 C 
BRANCH   8   9
HETATM    9  C5  UNL     1      36.805  18.587  38.827  1.00  0.00     0.214 C 
BRANCH   9  10
HETATM   10  N1  UNL     1      35.878  18.875  39.835  1.00  0.00    -0.389 N 
ATOM     11  H1  UNL     1      35.950  19.775  40.309  1.00  0.00     0.156 HD
BRANCH  10  12
HETATM   12  C2  UNL     1      34.870  18.014  40.229  1.00  0.00     0.017 C 
HETATM   13  C1  UNL     1      34.881  16.728  39.441  1.00  0.00     0.037 C 
HETATM   14  C3  UNL     1      33.522  18.697  39.920  1.00  0.00     0.037 C 
HETATM   15  C4  UNL     1      34.847  17.636  41.692  1.00  0.00     0.037 C 
ENDBRANCH  10  12
ENDBRANCH   9  10
BRANCH   9  16
HETATM   16  O1  UNL     1      37.018  19.711  38.035  1.00  0.00    -0.377 OA
ATOM     17  H1  UNL     1      37.932  19.969  38.069  1.00  0.00     0.212 HD
ENDBRANCH   9  16
ENDBRANCH   8   9
ENDBRANCH   7   8
ENDBRANCH   6   7
ENDBRANCH   1   6
BRANCH   5  18
HETATM   18  C10 UNL     1      40.929  23.654  36.833  1.00  0.00     0.203 C 
BRANCH  18  19
HETATM   19  C11 UNL     1      40.164  24.093  38.042  1.00  0.00     0.371 C 
HETATM   20  F1  UNL     1      41.019  23.951  39.149  1.00  0.00    -0.213 F 
HETATM   21  F2  UNL     1      39.862  25.453  38.013  1.00  0.00    -0.213 F 
ENDBRANCH  18  19
ENDBRANCH   5  18
BRANCH   5  22
HETATM   22  C12 UNL     1      42.358  21.759  36.032  1.00  0.00     0.041 A 
HETATM   23  C13 UNL     1      43.312  22.651  35.613  1.00  0.00     0.075 A 
HETATM   24  C14 UNL     1      44.451  22.203  34.962  1.00  0.00     0.158 A 
HETATM   25  F3  UNL     1      45.363  23.119  34.564  1.00  0.00    -0.203 F 
HETATM   26  C15 UNL     1      44.633  20.862  34.735  1.00  0.00     0.172 A 
HETATM   27  F4  UNL     1      45.728  20.410  34.110  1.00  0.00    -0.201 F 
HETATM   28  C16 UNL     1      43.650  19.953  35.169  1.00  0.00     0.054 A 
HETATM   29 BR1  UNL     1      43.913  18.099  34.842  1.00  0.00    -0.048 Br
HETATM   30  C17 UNL     1      42.523  20.403  35.812  1.00  0.00     0.052 A 
ENDBRANCH   5  22
TORSDOF 10
ENDMDL
