MODEL 1
REMARK VINA RESULT: -6.628240545      0.000      0.000
REMARK  11 active torsions:
REMARK  status: ('A' for Active; 'I' for Inactive)
REMARK    1  A    between atoms: N1_1  and  C1_5 
REMARK    2  A    between atoms: C1_5  and  C2_6 
REMARK    3  A    between atoms: C2_6  and  C3_7 
REMARK    4  A    between atoms: C3_7  and  C4_8 
REMARK    5  A    between atoms: C6_10  and  C7_11 
REMARK    6  A    between atoms: C7_11  and  O1_12 
REMARK    7  A    between atoms: C7_11  and  N2_14 
REMARK    8  A    between atoms: N2_14  and  C8_15 
REMARK    9  A    between atoms: C9_18  and  C10_19 
REMARK   10  A    between atoms: C10_19  and  C11_20 
REMARK   11  A    between atoms: C19_34  and  C20_35 
ROOT
HETATM    1  C8  UNL     1      43.315  20.335  35.546  1.00  0.00     0.199 A 
HETATM    2  N3  UNL     1      43.343  18.957  35.541  1.00  0.00    -0.332 N 
ATOM      3  H3  UNL     1      42.671  18.459  36.125  1.00  0.00     0.168 HD
HETATM    4  C9  UNL     1      44.204  18.236  34.811  1.00  0.00     0.038 A 
HETATM    5  C17 UNL     1      45.085  18.934  34.041  1.00  0.00     0.058 A 
HETATM    6 CL1  UNL     1      46.261  18.100  33.035  1.00  0.00    -0.082 Cl
HETATM    7  C18 UNL     1      45.118  20.314  33.992  1.00  0.00     0.049 A 
HETATM    8  C19 UNL     1      44.233  21.043  34.746  1.00  0.00     0.100 A 
ENDROOT
BRANCH   1   9
HETATM    9  N2  UNL     1      42.518  20.920  36.223  1.00  0.00    -0.365 NA
BRANCH   9  10
HETATM   10  C7  UNL     1      41.611  21.515  36.967  1.00  0.00     0.197 C 
BRANCH  10  11
HETATM   11  C6  UNL     1      40.182  21.794  36.580  1.00  0.00     0.080 A 
HETATM   12  C4  UNL     1      39.121  20.715  36.684  1.00  0.00    -0.001 A 
HETATM   13  C5  UNL     1      39.209  21.818  37.681  1.00  0.00     0.020 A 
BRANCH  12  14
HETATM   14  C3  UNL     1      39.461  19.310  37.025  1.00  0.00     0.007 C 
BRANCH  14  15
HETATM   15  C2  UNL     1      39.018  19.076  38.482  1.00  0.00     0.027 C 
BRANCH  15  16
HETATM   16  C1  UNL     1      40.133  18.338  39.188  1.00  0.00     0.229 C 
BRANCH  16  17
HETATM   17  N1  UNL     1      41.082  19.320  39.676  1.00  0.00    -0.079 N 
ATOM     18  H13 UNL     1      40.696  20.264  39.702  1.00  0.00     0.274 HD
ATOM     19  H12 UNL     1      41.273  19.223  40.674  1.00  0.00     0.274 HD
ATOM     20  H11 UNL     1      41.926  19.255  39.106  1.00  0.00     0.274 HD
ENDBRANCH  16  17
ENDBRANCH  15  16
ENDBRANCH  14  15
ENDBRANCH  12  14
ENDBRANCH  10  11
BRANCH  10  21
HETATM   21  O1  UNL     1      41.961  21.913  38.158  1.00  0.00    -0.339 OA
ATOM     22  H1  UNL     1      42.223  22.823  38.227  1.00  0.00     0.220 HD
ENDBRANCH  10  21
ENDBRANCH   9  10
ENDBRANCH   1   9
BRANCH   8  23
HETATM   23  C20 UNL     1      44.249  22.500  34.711  1.00  0.00     0.214 C 
HETATM   24  O2  UNL     1      44.233  23.276  35.672  1.00  0.00    -0.644 OA
HETATM   25  O3  UNL     1      44.291  23.116  33.444  1.00  0.00    -0.644 OA
ENDBRANCH   8  23
BRANCH   4  26
HETATM   26  C10 UNL     1      44.129  16.748  34.867  1.00  0.00     0.104 C 
BRANCH  26  27
HETATM   27  C11 UNL     1      43.374  16.163  35.961  1.00  0.00     0.031 A 
HETATM   28  C12 UNL     1      44.003  15.729  37.111  1.00  0.00     0.167 A 
HETATM   29  F1  UNL     1      45.372  15.770  37.246  1.00  0.00    -0.202 F 
HETATM   30  C13 UNL     1      43.279  15.233  38.173  1.00  0.00     0.197 A 
HETATM   31  F2  UNL     1      43.903  14.808  39.300  1.00  0.00    -0.199 F 
HETATM   32  C14 UNL     1      41.886  15.162  38.105  1.00  0.00     0.199 A 
HETATM   33  F3  UNL     1      41.228  14.666  39.176  1.00  0.00    -0.199 F 
HETATM   34  C15 UNL     1      41.257  15.594  36.966  1.00  0.00     0.197 A 
HETATM   35  F4  UNL     1      39.922  15.536  36.873  1.00  0.00    -0.199 F 
HETATM   36  C16 UNL     1      41.987  16.088  35.910  1.00  0.00     0.167 A 
HETATM   37  F5  UNL     1      41.285  16.569  34.819  1.00  0.00    -0.202 F 
ENDBRANCH  26  27
ENDBRANCH   4  26
TORSDOF 11
ENDMDL
MODEL 2
REMARK VINA RESULT: -6.627724361      2.392      5.100
REMARK  11 active torsions:
REMARK  status: ('A' for Active; 'I' for Inactive)
REMARK    1  A    between atoms: N1_1  and  C1_5 
REMARK    2  A    between atoms: C1_5  and  C2_6 
REMARK    3  A    between atoms: C2_6  and  C3_7 
REMARK    4  A    between atoms: C3_7  and  C4_8 
REMARK    5  A    between atoms: C6_10  and  C7_11 
REMARK    6  A    between atoms: C7_11  and  O1_12 
REMARK    7  A    between atoms: C7_11  and  N2_14 
REMARK    8  A    between atoms: N2_14  and  C8_15 
REMARK    9  A    between atoms: C9_18  and  C10_19 
REMARK   10  A    between atoms: C10_19  and  C11_20 
REMARK   11  A    between atoms: C19_34  and  C20_35 
ROOT
HETATM    1  C8  UNL     1      41.360  21.335  36.407  1.00  0.00     0.199 A 
HETATM    2  N3  UNL     1      41.211  19.979  36.207  1.00  0.00    -0.332 N 
ATOM      3  H3  UNL     1      41.883  19.503  35.607  1.00  0.00     0.168 HD
HETATM    4  C9  UNL     1      40.230  19.252  36.760  1.00  0.00     0.038 A 
HETATM    5  C17 UNL     1      39.350  19.921  37.558  1.00  0.00     0.058 A 
HETATM    6 CL1  UNL     1      38.024  19.076  38.343  1.00  0.00    -0.082 Cl
HETATM    7  C18 UNL     1      39.435  21.276  37.806  1.00  0.00     0.049 A 
HETATM    8  C19 UNL     1      40.443  22.012  37.234  1.00  0.00     0.100 A 
ENDROOT
BRANCH   1   9
HETATM    9  N2  UNL     1      42.261  21.926  35.883  1.00  0.00    -0.365 NA
BRANCH   9  10
HETATM   10  C7  UNL     1      43.258  22.530  35.275  1.00  0.00     0.197 C 
BRANCH  10  11
HETATM   11  C6  UNL     1      43.877  22.129  33.961  1.00  0.00     0.080 A 
HETATM   12  C4  UNL     1      44.546  20.779  33.793  1.00  0.00    -0.001 A 
HETATM   13  C5  UNL     1      43.196  21.053  33.229  1.00  0.00     0.020 A 
BRANCH  12  14
HETATM   14  C3  UNL     1      44.754  19.857  34.940  1.00  0.00     0.007 C 
BRANCH  14  15
HETATM   15  C2  UNL     1      46.095  19.136  34.704  1.00  0.00     0.027 C 
BRANCH  15  16
HETATM   16  C1  UNL     1      46.968  20.047  33.873  1.00  0.00     0.229 C 
BRANCH  16  17
HETATM   17  N1  UNL     1      48.145  20.377  34.653  1.00  0.00    -0.079 N 
ATOM     18  H13 UNL     1      47.942  20.489  35.646  1.00  0.00     0.274 HD
ATOM     19  H12 UNL     1      48.797  19.596  34.734  1.00  0.00     0.274 HD
ATOM     20  H11 UNL     1      48.574  21.207  34.243  1.00  0.00     0.274 HD
ENDBRANCH  16  17
ENDBRANCH  15  16
ENDBRANCH  14  15
ENDBRANCH  12  14
ENDBRANCH  10  11
BRANCH  10  21
HETATM   21  O1  UNL     1      43.778  23.579  35.847  1.00  0.00    -0.339 OA
ATOM     22  H1  UNL     1      44.725  23.641  35.810  1.00  0.00     0.220 HD
ENDBRANCH  10  21
ENDBRANCH   9  10
ENDBRANCH   1   9
BRANCH   8  23
HETATM   23  C20 UNL     1      40.552  23.444  37.481  1.00  0.00     0.214 C 
HETATM   24  O2  UNL     1      40.156  24.364  36.759  1.00  0.00    -0.644 OA
HETATM   25  O3  UNL     1      41.177  23.848  38.678  1.00  0.00    -0.644 OA
ENDBRANCH   8  23
BRANCH   4  26
HETATM   26  C10 UNL     1      40.177  17.787  36.492  1.00  0.00     0.104 C 
BRANCH  26  27
HETATM   27  C11 UNL     1      41.398  17.030  36.708  1.00  0.00     0.031 A 
HETATM   28  C12 UNL     1      42.343  16.897  35.710  1.00  0.00     0.167 A 
HETATM   29  F1  UNL     1      42.143  17.417  34.451  1.00  0.00    -0.202 F 
HETATM   30  C13 UNL     1      43.528  16.233  35.937  1.00  0.00     0.197 A 
HETATM   31  F2  UNL     1      44.452  16.106  34.951  1.00  0.00    -0.199 F 
HETATM   32  C14 UNL     1      43.797  15.680  37.190  1.00  0.00     0.199 A 
HETATM   33  F3  UNL     1      44.975  15.039  37.355  1.00  0.00    -0.199 F 
HETATM   34  C15 UNL     1      42.863  15.811  38.185  1.00  0.00     0.197 A 
HETATM   35  F4  UNL     1      43.095  15.289  39.397  1.00  0.00    -0.199 F 
HETATM   36  C16 UNL     1      41.682  16.475  37.950  1.00  0.00     0.167 A 
HETATM   37  F5  UNL     1      40.814  16.630  39.017  1.00  0.00    -0.202 F 
ENDBRANCH  26  27
ENDBRANCH   4  26
TORSDOF 11
ENDMDL
MODEL 3
REMARK VINA RESULT: -6.616500014      2.386      5.001
REMARK  11 active torsions:
REMARK  status: ('A' for Active; 'I' for Inactive)
REMARK    1  A    between atoms: N1_1  and  C1_5 
REMARK    2  A    between atoms: C1_5  and  C2_6 
REMARK    3  A    between atoms: C2_6  and  C3_7 
REMARK    4  A    between atoms: C3_7  and  C4_8 
REMARK    5  A    between atoms: C6_10  and  C7_11 
REMARK    6  A    between atoms: C7_11  and  O1_12 
REMARK    7  A    between atoms: C7_11  and  N2_14 
REMARK    8  A    between atoms: N2_14  and  C8_15 
REMARK    9  A    between atoms: C9_18  and  C10_19 
REMARK   10  A    between atoms: C10_19  and  C11_20 
REMARK   11  A    between atoms: C19_34  and  C20_35 
ROOT
HETATM    1  C8  UNL     1      41.445  21.393  36.451  1.00  0.00     0.199 A 
HETATM    2  N3  UNL     1      41.316  20.033  36.274  1.00  0.00    -0.332 N 
ATOM      3  H3  UNL     1      41.991  19.558  35.675  1.00  0.00     0.168 HD
HETATM    4  C9  UNL     1      40.351  19.299  36.845  1.00  0.00     0.038 A 
HETATM    5  C17 UNL     1      39.468  19.966  37.641  1.00  0.00     0.058 A 
HETATM    6 CL1  UNL     1      38.162  19.112  38.450  1.00  0.00    -0.082 Cl
HETATM    7  C18 UNL     1      39.532  21.326  37.867  1.00  0.00     0.049 A 
HETATM    8  C19 UNL     1      40.523  22.069  37.275  1.00  0.00     0.100 A 
ENDROOT
BRANCH   1   9
HETATM    9  N2  UNL     1      42.331  21.990  35.910  1.00  0.00    -0.365 NA
BRANCH   9  10
HETATM   10  C7  UNL     1      43.315  22.601  35.285  1.00  0.00     0.197 C 
BRANCH  10  11
HETATM   11  C6  UNL     1      43.922  22.196  33.967  1.00  0.00     0.080 A 
HETATM   12  C4  UNL     1      44.591  20.845  33.798  1.00  0.00    -0.001 A 
HETATM   13  C5  UNL     1      43.236  21.117  33.245  1.00  0.00     0.020 A 
BRANCH  12  14
HETATM   14  C3  UNL     1      44.810  19.927  34.946  1.00  0.00     0.007 C 
BRANCH  14  15
HETATM   15  C2  UNL     1      46.085  19.118  34.642  1.00  0.00     0.027 C 
BRANCH  15  16
HETATM   16  C1  UNL     1      46.998  19.992  33.813  1.00  0.00     0.229 C 
BRANCH  16  17
HETATM   17  N1  UNL     1      48.123  20.380  34.642  1.00  0.00    -0.079 N 
ATOM     18  H13 UNL     1      47.865  21.045  35.371  1.00  0.00     0.274 HD
ATOM     19  H12 UNL     1      48.443  19.626  35.251  1.00  0.00     0.274 HD
ATOM     20  H11 UNL     1      48.860  20.732  34.031  1.00  0.00     0.274 HD
ENDBRANCH  16  17
ENDBRANCH  15  16
ENDBRANCH  14  15
ENDBRANCH  12  14
ENDBRANCH  10  11
BRANCH  10  21
HETATM   21  O1  UNL     1      43.830  23.660  35.842  1.00  0.00    -0.339 OA
ATOM     22  H1  UNL     1      43.614  23.790  36.758  1.00  0.00     0.220 HD
ENDBRANCH  10  21
ENDBRANCH   9  10
ENDBRANCH   1   9
BRANCH   8  23
HETATM   23  C20 UNL     1      40.612  23.506  37.499  1.00  0.00     0.214 C 
HETATM   24  O2  UNL     1      40.224  24.409  36.751  1.00  0.00    -0.644 OA
HETATM   25  O3  UNL     1      41.203  23.938  38.704  1.00  0.00    -0.644 OA
ENDBRANCH   8  23
BRANCH   4  26
HETATM   26  C10 UNL     1      40.320  17.829  36.601  1.00  0.00     0.104 C 
BRANCH  26  27
HETATM   27  C11 UNL     1      41.551  17.094  36.830  1.00  0.00     0.031 A 
HETATM   28  C12 UNL     1      41.781  16.438  38.023  1.00  0.00     0.167 A 
HETATM   29  F1  UNL     1      40.887  16.505  39.069  1.00  0.00    -0.202 F 
HETATM   30  C13 UNL     1      42.921  15.690  38.216  1.00  0.00     0.197 A 
HETATM   31  F2  UNL     1      43.140  15.048  39.391  1.00  0.00    -0.199 F 
HETATM   32  C14 UNL     1      43.871  15.578  37.198  1.00  0.00     0.199 A 
HETATM   33  F3  UNL     1      44.970  14.832  37.443  1.00  0.00    -0.199 F 
HETATM   34  C15 UNL     1      43.647  16.225  36.011  1.00  0.00     0.197 A 
HETATM   35  F4  UNL     1      44.542  16.137  35.019  1.00  0.00    -0.199 F 
HETATM   36  C16 UNL     1      42.506  16.972  35.827  1.00  0.00     0.167 A 
HETATM   37  F5  UNL     1      42.311  17.542  34.581  1.00  0.00    -0.202 F 
ENDBRANCH  26  27
ENDBRANCH   4  26
TORSDOF 11
ENDMDL
MODEL 4
REMARK VINA RESULT: -6.559779450      0.142      1.890
REMARK  11 active torsions:
REMARK  status: ('A' for Active; 'I' for Inactive)
REMARK    1  A    between atoms: N1_1  and  C1_5 
REMARK    2  A    between atoms: C1_5  and  C2_6 
REMARK    3  A    between atoms: C2_6  and  C3_7 
REMARK    4  A    between atoms: C3_7  and  C4_8 
REMARK    5  A    between atoms: C6_10  and  C7_11 
REMARK    6  A    between atoms: C7_11  and  O1_12 
REMARK    7  A    between atoms: C7_11  and  N2_14 
REMARK    8  A    between atoms: N2_14  and  C8_15 
REMARK    9  A    between atoms: C9_18  and  C10_19 
REMARK   10  A    between atoms: C10_19  and  C11_20 
REMARK   11  A    between atoms: C19_34  and  C20_35 
ROOT
HETATM    1  C8  UNL     1      43.258  20.319  35.574  1.00  0.00     0.199 A 
HETATM    2  N3  UNL     1      43.269  18.941  35.607  1.00  0.00    -0.332 N 
ATOM      3  H3  UNL     1      42.589  18.467  36.200  1.00  0.00     0.168 HD
HETATM    4  C9  UNL     1      44.125  18.190  34.900  1.00  0.00     0.038 A 
HETATM    5  C17 UNL     1      45.018  18.856  34.116  1.00  0.00     0.058 A 
HETATM    6 CL1  UNL     1      46.188  17.981  33.139  1.00  0.00    -0.082 Cl
HETATM    7  C18 UNL     1      45.069  20.233  34.031  1.00  0.00     0.049 A 
HETATM    8  C19 UNL     1      44.189  20.994  34.760  1.00  0.00     0.100 A 
ENDROOT
BRANCH   1   9
HETATM    9  N2  UNL     1      42.466  20.931  36.231  1.00  0.00    -0.365 NA
BRANCH   9  10
HETATM   10  C7  UNL     1      41.565  21.557  36.957  1.00  0.00     0.197 C 
BRANCH  10  11
HETATM   11  C6  UNL     1      40.142  21.850  36.556  1.00  0.00     0.080 A 
HETATM   12  C4  UNL     1      39.077  20.773  36.618  1.00  0.00    -0.001 A 
HETATM   13  C5  UNL     1      39.153  21.851  37.642  1.00  0.00     0.020 A 
BRANCH  12  14
HETATM   14  C3  UNL     1      39.406  19.358  36.929  1.00  0.00     0.007 C 
BRANCH  14  15
HETATM   15  C2  UNL     1      39.072  19.131  38.416  1.00  0.00     0.027 C 
BRANCH  15  16
HETATM   16  C1  UNL     1      40.219  18.362  39.032  1.00  0.00     0.229 C 
BRANCH  16  17
HETATM   17  N1  UNL     1      41.115  19.315  39.657  1.00  0.00    -0.079 N 
ATOM     18  H13 UNL     1      42.094  19.037  39.594  1.00  0.00     0.274 HD
ATOM     19  H12 UNL     1      41.187  20.190  39.137  1.00  0.00     0.274 HD
ATOM     20  H11 UNL     1      40.808  19.454  40.620  1.00  0.00     0.274 HD
ENDBRANCH  16  17
ENDBRANCH  15  16
ENDBRANCH  14  15
ENDBRANCH  12  14
ENDBRANCH  10  11
BRANCH  10  21
HETATM   21  O1  UNL     1      41.914  21.974  38.141  1.00  0.00    -0.339 OA
ATOM     22  H1  UNL     1      42.849  22.029  38.299  1.00  0.00     0.220 HD
ENDBRANCH  10  21
ENDBRANCH   9  10
ENDBRANCH   1   9
BRANCH   8  23
HETATM   23  C20 UNL     1      44.224  22.449  34.686  1.00  0.00     0.214 C 
HETATM   24  O2  UNL     1      44.182  23.251  35.625  1.00  0.00    -0.644 OA
HETATM   25  O3  UNL     1      44.318  23.029  33.405  1.00  0.00    -0.644 OA
ENDBRANCH   8  23
BRANCH   4  26
HETATM   26  C10 UNL     1      44.032  16.705  34.995  1.00  0.00     0.104 C 
BRANCH  26  27
HETATM   27  C11 UNL     1      43.278  16.159  36.110  1.00  0.00     0.031 A 
HETATM   28  C12 UNL     1      41.905  16.024  36.047  1.00  0.00     0.167 A 
HETATM   29  F1  UNL     1      41.185  16.458  34.956  1.00  0.00    -0.202 F 
HETATM   30  C13 UNL     1      41.199  15.448  37.080  1.00  0.00     0.197 A 
HETATM   31  F2  UNL     1      39.850  15.319  37.011  1.00  0.00    -0.199 F 
HETATM   32  C14 UNL     1      41.864  14.986  38.218  1.00  0.00     0.199 A 
HETATM   33  F3  UNL     1      41.121  14.432  39.200  1.00  0.00    -0.199 F 
HETATM   34  C15 UNL     1      43.227  15.117  38.284  1.00  0.00     0.197 A 
HETATM   35  F4  UNL     1      43.891  14.683  39.364  1.00  0.00    -0.199 F 
HETATM   36  C16 UNL     1      43.925  15.693  37.248  1.00  0.00     0.167 A 
HETATM   37  F5  UNL     1      45.305  15.731  37.352  1.00  0.00    -0.202 F 
ENDBRANCH  26  27
ENDBRANCH   4  26
TORSDOF 11
ENDMDL
MODEL 5
REMARK VINA RESULT: -6.364819982      4.744      7.504
REMARK  11 active torsions:
REMARK  status: ('A' for Active; 'I' for Inactive)
REMARK    1  A    between atoms: N1_1  and  C1_5 
REMARK    2  A    between atoms: C1_5  and  C2_6 
REMARK    3  A    between atoms: C2_6  and  C3_7 
REMARK    4  A    between atoms: C3_7  and  C4_8 
REMARK    5  A    between atoms: C6_10  and  C7_11 
REMARK    6  A    between atoms: C7_11  and  O1_12 
REMARK    7  A    between atoms: C7_11  and  N2_14 
REMARK    8  A    between atoms: N2_14  and  C8_15 
REMARK    9  A    between atoms: C9_18  and  C10_19 
REMARK   10  A    between atoms: C10_19  and  C11_20 
REMARK   11  A    between atoms: C19_34  and  C20_35 
ROOT
HETATM    1  C8  UNL     1      38.969  18.609  38.349  1.00  0.00     0.199 A 
HETATM    2  N3  UNL     1      37.754  17.960  38.288  1.00  0.00    -0.332 N 
ATOM      3  H3  UNL     1      36.923  18.513  38.080  1.00  0.00     0.168 HD
HETATM    4  C9  UNL     1      37.607  16.644  38.489  1.00  0.00     0.038 A 
HETATM    5  C17 UNL     1      38.739  15.937  38.763  1.00  0.00     0.058 A 
HETATM    6 CL1  UNL     1      38.675  14.203  39.040  1.00  0.00    -0.082 Cl
HETATM    7  C18 UNL     1      39.991  16.516  38.840  1.00  0.00     0.049 A 
HETATM    8  C19 UNL     1      40.131  17.866  38.634  1.00  0.00     0.100 A 
ENDROOT
BRANCH   1   9
HETATM    9  N2  UNL     1      39.032  19.790  38.159  1.00  0.00    -0.365 NA
BRANCH   9  10
HETATM   10  C7  UNL     1      39.047  21.087  37.937  1.00  0.00     0.197 C 
BRANCH  10  11
HETATM   11  C6  UNL     1      40.236  22.002  38.074  1.00  0.00     0.080 A 
HETATM   12  C4  UNL     1      41.259  22.123  36.962  1.00  0.00    -0.001 A 
HETATM   13  C5  UNL     1      40.243  23.184  37.202  1.00  0.00     0.020 A 
BRANCH  12  14
HETATM   14  C3  UNL     1      41.224  21.248  35.762  1.00  0.00     0.007 C 
BRANCH  14  15
HETATM   15  C2  UNL     1      42.677  21.082  35.279  1.00  0.00     0.027 C 
BRANCH  15  16
HETATM   16  C1  UNL     1      43.323  22.448  35.289  1.00  0.00     0.229 C 
BRANCH  16  17
HETATM   17  N1  UNL     1      44.704  22.289  35.704  1.00  0.00    -0.079 N 
ATOM     18  H13 UNL     1      45.146  23.175  35.951  1.00  0.00     0.274 HD
ATOM     19  H12 UNL     1      44.793  21.834  36.613  1.00  0.00     0.274 HD
ATOM     20  H11 UNL     1      45.202  21.794  34.964  1.00  0.00     0.274 HD
ENDBRANCH  16  17
ENDBRANCH  15  16
ENDBRANCH  14  15
ENDBRANCH  12  14
ENDBRANCH  10  11
BRANCH  10  21
HETATM   21  O1  UNL     1      37.937  21.656  37.561  1.00  0.00    -0.339 OA
ATOM     22  H1  UNL     1      37.262  21.723  38.227  1.00  0.00     0.220 HD
ENDBRANCH  10  21
ENDBRANCH   9  10
ENDBRANCH   1   9
BRANCH   8  23
HETATM   23  C20 UNL     1      41.442  18.498  38.711  1.00  0.00     0.214 C 
HETATM   24  O2  UNL     1      42.253  18.661  37.795  1.00  0.00    -0.644 OA
HETATM   25  O3  UNL     1      41.849  18.991  39.968  1.00  0.00    -0.644 OA
ENDBRANCH   8  23
BRANCH   4  26
HETATM   26  C10 UNL     1      36.247  16.044  38.377  1.00  0.00     0.104 C 
BRANCH  26  27
HETATM   27  C11 UNL     1      35.270  16.427  39.381  1.00  0.00     0.031 A 
HETATM   28  C12 UNL     1      34.527  17.584  39.251  1.00  0.00     0.167 A 
HETATM   29  F1  UNL     1      34.722  18.454  38.202  1.00  0.00    -0.202 F 
HETATM   30  C13 UNL     1      33.557  17.913  40.171  1.00  0.00     0.197 A 
HETATM   31  F2  UNL     1      32.830  19.051  40.037  1.00  0.00    -0.199 F 
HETATM   32  C14 UNL     1      33.305  17.076  41.261  1.00  0.00     0.199 A 
HETATM   33  F3  UNL     1      32.343  17.450  42.133  1.00  0.00    -0.199 F 
HETATM   34  C15 UNL     1      34.039  15.926  41.394  1.00  0.00     0.197 A 
HETATM   35  F4  UNL     1      33.820  15.106  42.430  1.00  0.00    -0.199 F 
HETATM   36  C16 UNL     1      35.006  15.604  40.470  1.00  0.00     0.167 A 
HETATM   37  F5  UNL     1      35.662  14.396  40.628  1.00  0.00    -0.202 F 
ENDBRANCH  26  27
ENDBRANCH   4  26
TORSDOF 11
ENDMDL
