MODEL 1
REMARK VINA RESULT: -6.996368480      0.000      0.000
REMARK  11 active torsions:
REMARK  status: ('A' for Active; 'I' for Inactive)
REMARK    1  A    between atoms: C3_3  and  N1_4 
REMARK    2  A    between atoms: N1_4  and  C4_5 
REMARK    3  A    between atoms: C5_8  and  N3_9 
REMARK    4  A    between atoms: N3_9  and  C6_11 
REMARK    5  A    between atoms: C6_11  and  C7_12 
REMARK    6  A    between atoms: C7_12  and  C8_13 
REMARK    7  A    between atoms: C11_18  and  N5_19 
REMARK    8  A    between atoms: N5_19  and  C12_20 
REMARK    9  A    between atoms: C12_20  and  C13_21 
REMARK   10  A    between atoms: C13_21  and  N6_22 
REMARK   11  A    between atoms: C19_33  and  C20_34 
ROOT
HETATM    1  C4  UNL     1      36.982  19.045  37.510  1.00  0.00     0.277 A 
HETATM    2  N2  UNL     1      37.868  20.026  37.845  1.00  0.00    -0.149 N 
ATOM      3  H2  UNL     1      38.385  19.947  38.721  1.00  0.00     0.188 HD
HETATM    4  C5  UNL     1      38.085  21.105  37.048  1.00  0.00     0.685 A 
HETATM    5  N4  UNL     1      37.418  21.206  35.920  1.00  0.00    -0.149 N 
ATOM      6  H4  UNL     1      37.586  22.019  35.327  1.00  0.00     0.188 HD
HETATM    7  C11 UNL     1      36.510  20.272  35.506  1.00  0.00     0.276 A 
HETATM    8  N7  UNL     1      36.331  19.207  36.345  1.00  0.00    -0.275 N 
ATOM      9  H7  UNL     1      35.661  18.489  36.068  1.00  0.00     0.174 HD
ENDROOT
BRANCH   1  10
HETATM   10  N1  UNL     1      36.805  18.120  38.211  1.00  0.00    -0.367 NA
BRANCH  10  11
HETATM   11  C3  UNL     1      36.607  17.074  38.993  1.00  0.00     0.159 A 
HETATM   12  C2  UNL     1      35.923  17.248  40.219  1.00  0.00     0.000 A 
HETATM   13  C1  UNL     1      35.493  18.629  40.552  1.00  0.00     0.052 C 
HETATM   14  C19 UNL     1      35.655  16.245  41.096  1.00  0.00     0.099 A 
HETATM   15  C18 UNL     1      36.084  14.979  40.758  1.00  0.00     0.173 A 
HETATM   16  C17 UNL     1      36.755  14.734  39.581  1.00  0.00     0.197 A 
HETATM   17  F3  UNL     1      35.837  13.956  41.604  1.00  0.00    -0.202 F 
HETATM   18  C16 UNL     1      37.009  15.763  38.720  1.00  0.00     0.199 A 
HETATM   19  F2  UNL     1      37.147  13.458  39.312  1.00  0.00    -0.199 F 
HETATM   20  F1  UNL     1      37.666  15.559  37.554  1.00  0.00    -0.199 F 
BRANCH  14  21
HETATM   21  C20 UNL     1      34.918  16.429  42.386  1.00  0.00     0.421 C 
HETATM   22  F4  UNL     1      33.913  17.371  42.222  1.00  0.00    -0.166 F 
HETATM   23  F5  UNL     1      35.796  17.032  43.310  1.00  0.00    -0.166 F 
HETATM   24  F6  UNL     1      34.438  15.273  42.916  1.00  0.00    -0.166 F 
ENDBRANCH  14  21
ENDBRANCH  10  11
ENDBRANCH   1  10
BRANCH   4  25
HETATM   25  N3  UNL     1      38.932  21.999  37.421  1.00  0.00    -0.226 N 
ATOM     26  H3  UNL     1      38.636  22.641  38.155  1.00  0.00     0.177 HD
BRANCH  25  27
HETATM   27  C6  UNL     1      40.249  22.170  36.897  1.00  0.00     0.138 C 
BRANCH  27  28
HETATM   28  C7  UNL     1      40.650  23.647  36.976  1.00  0.00     0.025 C 
BRANCH  28  29
HETATM   29  C8  UNL     1      40.024  24.251  38.204  1.00  0.00    -0.013 A 
HETATM   30  C9  UNL     1      40.220  25.681  38.506  1.00  0.00     0.005 A 
HETATM   31  C10 UNL     1      41.009  24.719  39.302  1.00  0.00     0.005 A 
ENDBRANCH  28  29
ENDBRANCH  27  28
ENDBRANCH  25  27
ENDBRANCH   4  25
BRANCH   7  32
HETATM   32  N5  UNL     1      35.928  20.388  34.502  1.00  0.00    -0.386 NA
BRANCH  32  33
HETATM   33  C12 UNL     1      35.276  20.505  33.355  1.00  0.00     0.189 C 
BRANCH  33  34
HETATM   34  C13 UNL     1      35.655  21.729  32.499  1.00  0.00     0.330 C 
BRANCH  34  35
HETATM   35  N6  UNL     1      34.654  22.736  32.478  1.00  0.00     0.085 N 
HETATM   36  C14 UNL     1      35.007  23.991  33.050  1.00  0.00     0.309 C 
HETATM   37  C15 UNL     1      34.006  22.848  31.212  1.00  0.00     0.309 C 
ENDBRANCH  34  35
ENDBRANCH  33  34
ENDBRANCH  32  33
ENDBRANCH   7  32
TORSDOF 11
ENDMDL
MODEL 2
REMARK VINA RESULT: -6.981182319      1.102      2.484
REMARK  11 active torsions:
REMARK  status: ('A' for Active; 'I' for Inactive)
REMARK    1  A    between atoms: C3_3  and  N1_4 
REMARK    2  A    between atoms: N1_4  and  C4_5 
REMARK    3  A    between atoms: C5_8  and  N3_9 
REMARK    4  A    between atoms: N3_9  and  C6_11 
REMARK    5  A    between atoms: C6_11  and  C7_12 
REMARK    6  A    between atoms: C7_12  and  C8_13 
REMARK    7  A    between atoms: C11_18  and  N5_19 
REMARK    8  A    between atoms: N5_19  and  C12_20 
REMARK    9  A    between atoms: C12_20  and  C13_21 
REMARK   10  A    between atoms: C13_21  and  N6_22 
REMARK   11  A    between atoms: C19_33  and  C20_34 
ROOT
HETATM    1  C4  UNL     1      36.515  19.441  37.941  1.00  0.00     0.277 A 
HETATM    2  N2  UNL     1      37.656  20.128  38.231  1.00  0.00    -0.149 N 
ATOM      3  H2  UNL     1      38.104  19.983  39.137  1.00  0.00     0.188 HD
HETATM    4  C5  UNL     1      38.216  21.001  37.353  1.00  0.00     0.685 A 
HETATM    5  N4  UNL     1      37.637  21.189  36.188  1.00  0.00    -0.149 N 
ATOM      6  H4  UNL     1      38.062  21.846  35.533  1.00  0.00     0.188 HD
HETATM    7  C11 UNL     1      36.492  20.544  35.814  1.00  0.00     0.276 A 
HETATM    8  N7  UNL     1      35.971  19.677  36.734  1.00  0.00    -0.275 N 
ATOM      9  H7  UNL     1      35.116  19.177  36.490  1.00  0.00     0.174 HD
ENDROOT
BRANCH   1  10
HETATM   10  N1  UNL     1      36.043  18.692  38.713  1.00  0.00    -0.367 NA
BRANCH  10  11
HETATM   11  C3  UNL     1      35.519  17.844  39.579  1.00  0.00     0.159 A 
HETATM   12  C2  UNL     1      36.166  16.608  39.814  1.00  0.00     0.000 A 
HETATM   13  C1  UNL     1      37.400  16.343  39.033  1.00  0.00     0.052 C 
HETATM   14  C19 UNL     1      35.725  15.666  40.688  1.00  0.00     0.099 A 
HETATM   15  C18 UNL     1      34.567  15.942  41.385  1.00  0.00     0.173 A 
HETATM   16  C17 UNL     1      33.884  17.125  41.208  1.00  0.00     0.197 A 
HETATM   17  F3  UNL     1      34.097  15.031  42.261  1.00  0.00    -0.202 F 
HETATM   18  C16 UNL     1      34.353  18.053  40.323  1.00  0.00     0.199 A 
HETATM   19  F2  UNL     1      32.748  17.330  41.931  1.00  0.00    -0.199 F 
HETATM   20  F1  UNL     1      33.707  19.225  40.123  1.00  0.00    -0.199 F 
BRANCH  14  21
HETATM   21  C20 UNL     1      36.420  14.365  40.946  1.00  0.00     0.421 C 
HETATM   22  F4  UNL     1      35.578  13.311  40.622  1.00  0.00    -0.166 F 
HETATM   23  F5  UNL     1      36.600  14.234  42.338  1.00  0.00    -0.166 F 
HETATM   24  F6  UNL     1      37.625  14.252  40.328  1.00  0.00    -0.166 F 
ENDBRANCH  14  21
ENDBRANCH  10  11
ENDBRANCH   1  10
BRANCH   4  25
HETATM   25  N3  UNL     1      39.292  21.622  37.687  1.00  0.00    -0.226 N 
ATOM     26  H3  UNL     1      39.347  21.975  38.642  1.00  0.00     0.177 HD
BRANCH  25  27
HETATM   27  C6  UNL     1      40.415  21.861  36.838  1.00  0.00     0.138 C 
BRANCH  27  28
HETATM   28  C7  UNL     1      40.870  23.317  36.980  1.00  0.00     0.025 C 
BRANCH  28  29
HETATM   29  C8  UNL     1      40.110  23.952  38.113  1.00  0.00    -0.013 A 
HETATM   30  C9  UNL     1      40.102  25.419  38.267  1.00  0.00     0.005 A 
HETATM   31  C10 UNL     1      40.969  24.658  39.189  1.00  0.00     0.005 A 
ENDBRANCH  28  29
ENDBRANCH  27  28
ENDBRANCH  25  27
ENDBRANCH   4  25
BRANCH   7  32
HETATM   32  N5  UNL     1      35.995  20.732  34.775  1.00  0.00    -0.386 NA
BRANCH  32  33
HETATM   33  C12 UNL     1      35.422  20.930  33.597  1.00  0.00     0.189 C 
BRANCH  33  34
HETATM   34  C13 UNL     1      35.011  22.385  33.296  1.00  0.00     0.330 C 
BRANCH  34  35
HETATM   35  N6  UNL     1      35.367  22.814  31.991  1.00  0.00     0.085 N 
HETATM   36  C14 UNL     1      36.444  22.121  31.369  1.00  0.00     0.309 C 
HETATM   37  C15 UNL     1      34.238  22.995  31.138  1.00  0.00     0.309 C 
ENDBRANCH  34  35
ENDBRANCH  33  34
ENDBRANCH  32  33
ENDBRANCH   7  32
TORSDOF 11
ENDMDL
MODEL 3
REMARK VINA RESULT: -6.980623329      1.000      1.277
REMARK  11 active torsions:
REMARK  status: ('A' for Active; 'I' for Inactive)
REMARK    1  A    between atoms: C3_3  and  N1_4 
REMARK    2  A    between atoms: N1_4  and  C4_5 
REMARK    3  A    between atoms: C5_8  and  N3_9 
REMARK    4  A    between atoms: N3_9  and  C6_11 
REMARK    5  A    between atoms: C6_11  and  C7_12 
REMARK    6  A    between atoms: C7_12  and  C8_13 
REMARK    7  A    between atoms: C11_18  and  N5_19 
REMARK    8  A    between atoms: N5_19  and  C12_20 
REMARK    9  A    between atoms: C12_20  and  C13_21 
REMARK   10  A    between atoms: C13_21  and  N6_22 
REMARK   11  A    between atoms: C19_33  and  C20_34 
ROOT
HETATM    1  C4  UNL     1      36.612  19.058  37.351  1.00  0.00     0.277 A 
HETATM    2  N2  UNL     1      37.605  19.858  37.832  1.00  0.00    -0.149 N 
ATOM      3  H2  UNL     1      38.073  19.598  38.700  1.00  0.00     0.188 HD
HETATM    4  C5  UNL     1      37.992  20.992  37.190  1.00  0.00     0.685 A 
HETATM    5  N4  UNL     1      37.388  21.328  36.072  1.00  0.00    -0.149 N 
ATOM      6  H4  UNL     1      37.683  22.180  35.596  1.00  0.00     0.188 HD
HETATM    7  C11 UNL     1      36.381  20.586  35.520  1.00  0.00     0.276 A 
HETATM    8  N7  UNL     1      36.032  19.455  36.205  1.00  0.00    -0.275 N 
ATOM      9  H7  UNL     1      35.285  18.876  35.822  1.00  0.00     0.174 HD
ENDROOT
BRANCH   1  10
HETATM   10  N1  UNL     1      36.288  18.083  37.920  1.00  0.00    -0.367 NA
BRANCH  10  11
HETATM   11  C3  UNL     1      35.925  16.990  38.566  1.00  0.00     0.159 A 
HETATM   12  C2  UNL     1      35.819  17.024  39.977  1.00  0.00     0.000 A 
HETATM   13  C1  UNL     1      36.154  18.310  40.638  1.00  0.00     0.052 C 
HETATM   14  C19 UNL     1      35.446  15.966  40.743  1.00  0.00     0.099 A 
HETATM   15  C18 UNL     1      35.156  14.785  40.093  1.00  0.00     0.173 A 
HETATM   16  C17 UNL     1      35.238  14.677  38.722  1.00  0.00     0.197 A 
HETATM   17  F3  UNL     1      34.783  13.712  40.820  1.00  0.00    -0.202 F 
HETATM   18  C16 UNL     1      35.615  15.759  37.979  1.00  0.00     0.199 A 
HETATM   19  F2  UNL     1      34.935  13.480  38.148  1.00  0.00    -0.199 F 
HETATM   20  F1  UNL     1      35.706  15.689  36.630  1.00  0.00    -0.199 F 
BRANCH  14  21
HETATM   21  C20 UNL     1      35.319  16.010  42.234  1.00  0.00     0.421 C 
HETATM   22  F4  UNL     1      35.981  14.926  42.793  1.00  0.00    -0.166 F 
HETATM   23  F5  UNL     1      33.968  15.785  42.566  1.00  0.00    -0.166 F 
HETATM   24  F6  UNL     1      35.725  17.183  42.788  1.00  0.00    -0.166 F 
ENDBRANCH  14  21
ENDBRANCH  10  11
ENDBRANCH   1  10
BRANCH   4  25
HETATM   25  N3  UNL     1      38.934  21.708  37.696  1.00  0.00    -0.226 N 
ATOM     26  H3  UNL     1      38.723  22.212  38.556  1.00  0.00     0.177 HD
BRANCH  25  27
HETATM   27  C6  UNL     1      40.248  21.858  37.158  1.00  0.00     0.138 C 
BRANCH  27  28
HETATM   28  C7  UNL     1      40.592  23.346  37.039  1.00  0.00     0.025 C 
BRANCH  28  29
HETATM   29  C8  UNL     1      39.984  24.077  38.205  1.00  0.00    -0.013 A 
HETATM   30  C9  UNL     1      40.177  25.532  38.348  1.00  0.00     0.005 A 
HETATM   31  C10 UNL     1      40.984  24.665  39.229  1.00  0.00     0.005 A 
ENDBRANCH  28  29
ENDBRANCH  27  28
ENDBRANCH  25  27
ENDBRANCH   4  25
BRANCH   7  32
HETATM   32  N5  UNL     1      35.857  20.908  34.528  1.00  0.00    -0.386 NA
BRANCH  32  33
HETATM   33  C12 UNL     1      35.279  21.276  33.395  1.00  0.00     0.189 C 
BRANCH  33  34
HETATM   34  C13 UNL     1      34.843  22.753  33.322  1.00  0.00     0.330 C 
BRANCH  34  35
HETATM   35  N6  UNL     1      34.819  23.270  32.000  1.00  0.00     0.085 N 
HETATM   36  C14 UNL     1      35.951  22.982  31.188  1.00  0.00     0.309 C 
HETATM   37  C15 UNL     1      33.573  23.050  31.341  1.00  0.00     0.309 C 
ENDBRANCH  34  35
ENDBRANCH  33  34
ENDBRANCH  32  33
ENDBRANCH   7  32
TORSDOF 11
ENDMDL
MODEL 4
REMARK VINA RESULT: -6.884607279      1.083      1.320
REMARK  11 active torsions:
REMARK  status: ('A' for Active; 'I' for Inactive)
REMARK    1  A    between atoms: C3_3  and  N1_4 
REMARK    2  A    between atoms: N1_4  and  C4_5 
REMARK    3  A    between atoms: C5_8  and  N3_9 
REMARK    4  A    between atoms: N3_9  and  C6_11 
REMARK    5  A    between atoms: C6_11  and  C7_12 
REMARK    6  A    between atoms: C7_12  and  C8_13 
REMARK    7  A    between atoms: C11_18  and  N5_19 
REMARK    8  A    between atoms: N5_19  and  C12_20 
REMARK    9  A    between atoms: C12_20  and  C13_21 
REMARK   10  A    between atoms: C13_21  and  N6_22 
REMARK   11  A    between atoms: C19_33  and  C20_34 
ROOT
HETATM    1  C4  UNL     1      36.762  19.228  37.678  1.00  0.00     0.277 A 
HETATM    2  N2  UNL     1      37.784  20.050  38.051  1.00  0.00    -0.149 N 
ATOM      3  H2  UNL     1      38.271  19.865  38.929  1.00  0.00     0.188 HD
HETATM    4  C5  UNL     1      38.174  21.107  37.292  1.00  0.00     0.685 A 
HETATM    5  N4  UNL     1      37.545  21.345  36.162  1.00  0.00    -0.149 N 
ATOM      6  H4  UNL     1      37.843  22.140  35.597  1.00  0.00     0.188 HD
HETATM    7  C11 UNL     1      36.511  20.575  35.711  1.00  0.00     0.276 A 
HETATM    8  N7  UNL     1      36.159  19.524  36.513  1.00  0.00    -0.275 N 
ATOM      9  H7  UNL     1      35.391  18.927  36.208  1.00  0.00     0.174 HD
ENDROOT
BRANCH   1  10
HETATM   10  N1  UNL     1      36.436  18.320  38.347  1.00  0.00    -0.367 NA
BRANCH  10  11
HETATM   11  C3  UNL     1      36.073  17.303  39.107  1.00  0.00     0.159 A 
HETATM   12  C2  UNL     1      34.807  17.329  39.738  1.00  0.00     0.000 A 
HETATM   13  C1  UNL     1      33.975  18.537  39.511  1.00  0.00     0.052 C 
HETATM   14  C19 UNL     1      34.326  16.337  40.532  1.00  0.00     0.099 A 
HETATM   15  C18 UNL     1      35.134  15.238  40.730  1.00  0.00     0.173 A 
HETATM   16  C17 UNL     1      36.379  15.143  40.148  1.00  0.00     0.197 A 
HETATM   17  F3  UNL     1      34.692  14.232  41.513  1.00  0.00    -0.202 F 
HETATM   18  C16 UNL     1      36.835  16.156  39.354  1.00  0.00     0.199 A 
HETATM   19  F2  UNL     1      37.122  14.027  40.387  1.00  0.00    -0.199 F 
HETATM   20  F1  UNL     1      38.052  16.097  38.766  1.00  0.00    -0.199 F 
BRANCH  14  21
HETATM   21  C20 UNL     1      32.980  16.360  41.186  1.00  0.00     0.421 C 
HETATM   22  F4  UNL     1      32.810  17.557  41.868  1.00  0.00    -0.166 F 
HETATM   23  F5  UNL     1      32.972  15.389  42.208  1.00  0.00    -0.166 F 
HETATM   24  F6  UNL     1      31.949  16.119  40.334  1.00  0.00    -0.166 F 
ENDBRANCH  14  21
ENDBRANCH  10  11
ENDBRANCH   1  10
BRANCH   4  25
HETATM   25  N3  UNL     1      39.143  21.848  37.700  1.00  0.00    -0.226 N 
ATOM     26  H3  UNL     1      39.029  22.305  38.605  1.00  0.00     0.177 HD
BRANCH  25  27
HETATM   27  C6  UNL     1      40.364  22.087  37.000  1.00  0.00     0.138 C 
BRANCH  27  28
HETATM   28  C7  UNL     1      40.689  23.584  37.020  1.00  0.00     0.025 C 
BRANCH  28  29
HETATM   29  C8  UNL     1      40.057  24.198  38.240  1.00  0.00    -0.013 A 
HETATM   30  C9  UNL     1      40.162  25.650  38.475  1.00  0.00     0.005 A 
HETATM   31  C10 UNL     1      41.037  24.780  39.287  1.00  0.00     0.005 A 
ENDBRANCH  28  29
ENDBRANCH  27  28
ENDBRANCH  25  27
ENDBRANCH   4  25
BRANCH   7  32
HETATM   32  N5  UNL     1      35.965  20.810  34.707  1.00  0.00    -0.386 NA
BRANCH  32  33
HETATM   33  C12 UNL     1      35.362  21.074  33.558  1.00  0.00     0.189 C 
BRANCH  33  34
HETATM   34  C13 UNL     1      34.997  22.553  33.325  1.00  0.00     0.330 C 
BRANCH  34  35
HETATM   35  N6  UNL     1      35.167  22.971  31.979  1.00  0.00     0.085 N 
HETATM   36  C14 UNL     1      36.291  22.438  31.288  1.00  0.00     0.309 C 
HETATM   37  C15 UNL     1      33.958  22.921  31.224  1.00  0.00     0.309 C 
ENDBRANCH  34  35
ENDBRANCH  33  34
ENDBRANCH  32  33
ENDBRANCH   7  32
TORSDOF 11
ENDMDL
MODEL 5
REMARK VINA RESULT: -6.705106511      1.051      4.661
REMARK  11 active torsions:
REMARK  status: ('A' for Active; 'I' for Inactive)
REMARK    1  A    between atoms: C3_3  and  N1_4 
REMARK    2  A    between atoms: N1_4  and  C4_5 
REMARK    3  A    between atoms: C5_8  and  N3_9 
REMARK    4  A    between atoms: N3_9  and  C6_11 
REMARK    5  A    between atoms: C6_11  and  C7_12 
REMARK    6  A    between atoms: C7_12  and  C8_13 
REMARK    7  A    between atoms: C11_18  and  N5_19 
REMARK    8  A    between atoms: N5_19  and  C12_20 
REMARK    9  A    between atoms: C12_20  and  C13_21 
REMARK   10  A    between atoms: C13_21  and  N6_22 
REMARK   11  A    between atoms: C19_33  and  C20_34 
ROOT
HETATM    1  C4  UNL     1      36.852  19.094  37.641  1.00  0.00     0.277 A 
HETATM    2  N2  UNL     1      36.071  19.387  36.563  1.00  0.00    -0.149 N 
ATOM      3  H2  UNL     1      35.317  18.746  36.310  1.00  0.00     0.188 HD
HETATM    4  C5  UNL     1      36.263  20.504  35.813  1.00  0.00     0.685 A 
HETATM    5  N4  UNL     1      37.235  21.327  36.138  1.00  0.00    -0.149 N 
ATOM      6  H4  UNL     1      37.374  22.164  35.571  1.00  0.00     0.188 HD
HETATM    7  C11 UNL     1      38.067  21.113  37.201  1.00  0.00     0.276 A 
HETATM    8  N7  UNL     1      37.829  19.975  37.921  1.00  0.00    -0.275 N 
ATOM      9  H7  UNL     1      38.430  19.782  38.722  1.00  0.00     0.174 HD
ENDROOT
BRANCH   1  10
HETATM   10  N1  UNL     1      36.674  18.123  38.276  1.00  0.00    -0.367 NA
BRANCH  10  11
HETATM   11  C3  UNL     1      36.475  17.026  38.984  1.00  0.00     0.159 A 
HETATM   12  C2  UNL     1      35.830  17.121  40.239  1.00  0.00     0.000 A 
HETATM   13  C1  UNL     1      35.438  18.481  40.686  1.00  0.00     0.052 C 
HETATM   14  C19 UNL     1      35.565  16.061  41.047  1.00  0.00     0.099 A 
HETATM   15  C18 UNL     1      35.957  14.815  40.605  1.00  0.00     0.173 A 
HETATM   16  C17 UNL     1      36.590  14.646  39.393  1.00  0.00     0.197 A 
HETATM   17  F3  UNL     1      35.713  13.738  41.379  1.00  0.00    -0.202 F 
HETATM   18  C16 UNL     1      36.842  15.731  38.603  1.00  0.00     0.199 A 
HETATM   19  F2  UNL     1      36.948  13.386  39.020  1.00  0.00    -0.199 F 
HETATM   20  F1  UNL     1      37.462  15.603  37.407  1.00  0.00    -0.199 F 
BRANCH  14  21
HETATM   21  C20 UNL     1      34.868  16.162  42.368  1.00  0.00     0.421 C 
HETATM   22  F4  UNL     1      33.760  16.989  42.252  1.00  0.00    -0.166 F 
HETATM   23  F5  UNL     1      35.713  16.858  43.257  1.00  0.00    -0.166 F 
HETATM   24  F6  UNL     1      34.541  14.960  42.912  1.00  0.00    -0.166 F 
ENDBRANCH  14  21
ENDBRANCH  10  11
ENDBRANCH   1  10
BRANCH   4  25
HETATM   25  N3  UNL     1      35.494  20.723  34.806  1.00  0.00    -0.226 N 
ATOM     26  H3  UNL     1      34.623  21.221  34.987  1.00  0.00     0.177 HD
BRANCH  25  27
HETATM   27  C6  UNL     1      35.752  20.330  33.458  1.00  0.00     0.138 C 
BRANCH  27  28
HETATM   28  C7  UNL     1      35.850  21.572  32.566  1.00  0.00     0.025 C 
BRANCH  28  29
HETATM   29  C8  UNL     1      34.796  22.557  32.994  1.00  0.00    -0.013 A 
HETATM   30  C9  UNL     1      33.963  23.235  31.983  1.00  0.00     0.005 A 
HETATM   31  C10 UNL     1      35.048  24.031  32.592  1.00  0.00     0.005 A 
ENDBRANCH  28  29
ENDBRANCH  27  28
ENDBRANCH  25  27
ENDBRANCH   4  25
BRANCH   7  32
HETATM   32  N5  UNL     1      38.926  21.857  37.466  1.00  0.00    -0.386 NA
BRANCH  32  33
HETATM   33  C12 UNL     1      39.900  22.708  37.750  1.00  0.00     0.189 C 
BRANCH  33  34
HETATM   34  C13 UNL     1      41.318  22.104  37.787  1.00  0.00     0.330 C 
BRANCH  34  35
HETATM   35  N6  UNL     1      41.644  21.358  36.623  1.00  0.00     0.085 N 
HETATM   36  C14 UNL     1      42.648  21.912  35.779  1.00  0.00     0.309 C 
HETATM   37  C15 UNL     1      41.824  19.968  36.887  1.00  0.00     0.309 C 
ENDBRANCH  34  35
ENDBRANCH  33  34
ENDBRANCH  32  33
ENDBRANCH   7  32
TORSDOF 11
ENDMDL
