MODEL 1
REMARK VINA RESULT: -5.809249699      0.000      0.000
REMARK  8 active torsions:
REMARK  status: ('A' for Active; 'I' for Inactive)
REMARK    1  A    between atoms: C1_2  and  C2_3 
REMARK       I    between atoms: C1_2  and  N2_23 
REMARK    2  A    between atoms: C2_3  and  C3_4 
REMARK    3  A    between atoms: C3_4  and  C4_5 
REMARK    4  A    between atoms: C3_4  and  C5_8 
REMARK    5  A    between atoms: C3_4  and  N1_10 
REMARK    6  A    between atoms: C4_5  and  O2_6 
REMARK       I    between atoms: N1_10  and  C6_12 
REMARK    7  A    between atoms: C6_12  and  C7_14 
REMARK    8  A    between atoms: N2_23  and  C13_25 
ROOT
HETATM    1  C3  UNL     1      38.961  20.567  36.904  1.00  0.00     0.088 C 
ENDROOT
BRANCH   1   2
HETATM    2  C2  UNL     1      38.627  20.183  38.316  1.00  0.00     0.138 C 
BRANCH   2   3
HETATM    3  C1  UNL     1      37.936  18.959  38.585  1.00  0.00     0.220 C 
HETATM    4  O1  UNL     1      38.179  17.789  38.182  1.00  0.00    -0.274 OA
HETATM    5  N2  UNL     1      36.780  19.018  39.442  1.00  0.00    -0.356 N 
ATOM      6  H2  UNL     1      36.510  19.929  39.813  1.00  0.00     0.162 HD
BRANCH   5   7
HETATM    7  C13 UNL     1      35.987  17.887  39.806  1.00  0.00     0.090 C 
HETATM    8  C14 UNL     1      34.973  18.241  40.882  1.00  0.00     0.067 C 
HETATM    9  C15 UNL     1      33.872  17.594  40.068  1.00  0.00     0.117 C 
HETATM   10 CL4  UNL     1      32.524  18.699  39.781  1.00  0.00    -0.102 Cl
HETATM   11 CL5  UNL     1      33.394  16.005  40.657  1.00  0.00    -0.102 Cl
HETATM   12  C16 UNL     1      34.818  17.595  38.887  1.00  0.00     0.067 C 
ENDBRANCH   5   7
ENDBRANCH   2   3
ENDBRANCH   1   2
BRANCH   1  13
HETATM   13  C4  UNL     1      39.643  21.904  36.828  1.00  0.00     0.198 C 
BRANCH  13  14
HETATM   14  O2  UNL     1      39.531  22.630  38.011  1.00  0.00    -0.398 OA
ATOM     15  H2  UNL     1      40.160  23.339  38.065  1.00  0.00     0.209 HD
ENDBRANCH  13  14
ENDBRANCH   1  13
BRANCH   1  16
HETATM   16  C5  UNL     1      37.819  20.521  35.955  1.00  0.00     0.255 C 
HETATM   17  F1  UNL     1      36.733  21.229  36.391  1.00  0.00    -0.253 F 
ENDBRANCH   1  16
BRANCH   1  18
HETATM   18  N1  UNL     1      40.006  19.585  36.523  1.00  0.00    -0.343 N 
HETATM   19  C6  UNL     1      41.305  19.531  37.005  1.00  0.00     0.255 C 
HETATM   20  O3  UNL     1      41.652  20.406  37.872  1.00  0.00    -0.268 OA
ATOM     21  H1  UNL     1      39.742  18.877  35.838  1.00  0.00     0.163 HD
BRANCH  19  22
HETATM   22  C7  UNL     1      42.357  18.599  36.660  1.00  0.00     0.075 A 
HETATM   23  C8  UNL     1      42.510  17.434  37.431  1.00  0.00     0.053 A 
HETATM   24 CL1  UNL     1      41.410  17.150  38.740  1.00  0.00    -0.083 Cl
HETATM   25  C9  UNL     1      43.484  16.506  37.206  1.00  0.00     0.048 A 
HETATM   26  C10 UNL     1      44.370  16.679  36.191  1.00  0.00     0.037 A 
HETATM   27 CL2  UNL     1      45.629  15.483  35.892  1.00  0.00    -0.084 Cl
HETATM   28  C11 UNL     1      44.275  17.799  35.400  1.00  0.00     0.048 A 
HETATM   29  C12 UNL     1      43.270  18.744  35.646  1.00  0.00     0.053 A 
HETATM   30 CL3  UNL     1      43.295  20.150  34.594  1.00  0.00    -0.083 Cl
ENDBRANCH  19  22
ENDBRANCH   1  18
TORSDOF 8
ENDMDL
MODEL 2
REMARK VINA RESULT: -5.784376490      2.587      3.169
REMARK  8 active torsions:
REMARK  status: ('A' for Active; 'I' for Inactive)
REMARK    1  A    between atoms: C1_2  and  C2_3 
REMARK       I    between atoms: C1_2  and  N2_23 
REMARK    2  A    between atoms: C2_3  and  C3_4 
REMARK    3  A    between atoms: C3_4  and  C4_5 
REMARK    4  A    between atoms: C3_4  and  C5_8 
REMARK    5  A    between atoms: C3_4  and  N1_10 
REMARK    6  A    between atoms: C4_5  and  O2_6 
REMARK       I    between atoms: N1_10  and  C6_12 
REMARK    7  A    between atoms: C6_12  and  C7_14 
REMARK    8  A    between atoms: N2_23  and  C13_25 
ROOT
HETATM    1  C3  UNL     1      37.930  19.770  36.191  1.00  0.00     0.088 C 
ENDROOT
BRANCH   1   2
HETATM    2  C2  UNL     1      38.052  20.060  37.659  1.00  0.00     0.138 C 
BRANCH   2   3
HETATM    3  C1  UNL     1      37.676  19.070  38.622  1.00  0.00     0.220 C 
HETATM    4  O1  UNL     1      38.392  18.246  39.254  1.00  0.00    -0.274 OA
HETATM    5  N2  UNL     1      36.280  18.957  38.956  1.00  0.00    -0.356 N 
ATOM      6  H2  UNL     1      35.627  19.586  38.489  1.00  0.00     0.162 HD
BRANCH   5   7
HETATM    7  C13 UNL     1      35.748  18.023  39.897  1.00  0.00     0.090 C 
HETATM    8  C14 UNL     1      34.664  18.654  40.756  1.00  0.00     0.067 C 
HETATM    9  C15 UNL     1      33.745  17.484  40.466  1.00  0.00     0.117 C 
HETATM   10 CL4  UNL     1      32.193  18.010  39.807  1.00  0.00    -0.102 Cl
HETATM   11 CL5  UNL     1      33.617  16.337  41.795  1.00  0.00    -0.102 Cl
HETATM   12  C16 UNL     1      34.687  17.089  39.350  1.00  0.00     0.067 C 
ENDBRANCH   5   7
ENDBRANCH   2   3
ENDBRANCH   1   2
BRANCH   1  13
HETATM   13  C4  UNL     1      36.791  20.522  35.560  1.00  0.00     0.198 C 
BRANCH  13  14
HETATM   14  O2  UNL     1      35.800  20.862  36.477  1.00  0.00    -0.398 OA
ATOM     15  H2  UNL     1      35.418  21.714  36.302  1.00  0.00     0.209 HD
ENDBRANCH  13  14
ENDBRANCH   1  13
BRANCH   1  16
HETATM   16  C5  UNL     1      37.846  18.329  35.842  1.00  0.00     0.255 C 
HETATM   17  F1  UNL     1      36.559  17.875  35.744  1.00  0.00    -0.253 F 
ENDBRANCH   1  16
BRANCH   1  18
HETATM   18  N1  UNL     1      39.154  20.384  35.620  1.00  0.00    -0.343 N 
HETATM   19  C6  UNL     1      40.464  20.029  35.902  1.00  0.00     0.255 C 
HETATM   20  O3  UNL     1      40.655  19.072  36.730  1.00  0.00    -0.268 OA
ATOM     21  H1  UNL     1      39.018  21.143  34.953  1.00  0.00     0.163 HD
BRANCH  19  22
HETATM   22  C7  UNL     1      41.686  20.599  35.375  1.00  0.00     0.075 A 
HETATM   23  C8  UNL     1      42.110  21.851  35.852  1.00  0.00     0.053 A 
HETATM   24 CL1  UNL     1      41.168  22.640  37.075  1.00  0.00    -0.083 Cl
HETATM   25  C9  UNL     1      43.231  22.487  35.404  1.00  0.00     0.048 A 
HETATM   26  C10 UNL     1      44.005  21.910  34.448  1.00  0.00     0.037 A 
HETATM   27 CL2  UNL     1      45.456  22.722  33.866  1.00  0.00    -0.084 Cl
HETATM   28  C11 UNL     1      43.645  20.686  33.939  1.00  0.00     0.048 A 
HETATM   29  C12 UNL     1      42.489  20.047  34.410  1.00  0.00     0.053 A 
HETATM   30 CL3  UNL     1      42.118  18.514  33.637  1.00  0.00    -0.083 Cl
ENDBRANCH  19  22
ENDBRANCH   1  18
TORSDOF 8
ENDMDL
MODEL 3
REMARK VINA RESULT: -5.771148314      3.271      7.666
REMARK  8 active torsions:
REMARK  status: ('A' for Active; 'I' for Inactive)
REMARK    1  A    between atoms: C1_2  and  C2_3 
REMARK       I    between atoms: C1_2  and  N2_23 
REMARK    2  A    between atoms: C2_3  and  C3_4 
REMARK    3  A    between atoms: C3_4  and  C4_5 
REMARK    4  A    between atoms: C3_4  and  C5_8 
REMARK    5  A    between atoms: C3_4  and  N1_10 
REMARK    6  A    between atoms: C4_5  and  O2_6 
REMARK       I    between atoms: N1_10  and  C6_12 
REMARK    7  A    between atoms: C6_12  and  C7_14 
REMARK    8  A    between atoms: N2_23  and  C13_25 
ROOT
HETATM    1  C3  UNL     1      40.064  20.479  36.950  1.00  0.00     0.088 C 
ENDROOT
BRANCH   1   2
HETATM    2  C2  UNL     1      41.540  20.714  37.085  1.00  0.00     0.138 C 
BRANCH   2   3
HETATM    3  C1  UNL     1      42.188  21.705  36.280  1.00  0.00     0.220 C 
HETATM    4  O1  UNL     1      42.164  22.963  36.374  1.00  0.00    -0.274 OA
HETATM    5  N2  UNL     1      43.003  21.249  35.185  1.00  0.00    -0.356 N 
ATOM      6  H2  UNL     1      43.078  20.243  35.035  1.00  0.00     0.162 HD
BRANCH   5   7
HETATM    7  C13 UNL     1      43.714  22.110  34.294  1.00  0.00     0.090 C 
HETATM    8  C14 UNL     1      45.195  22.164  34.634  1.00  0.00     0.067 C 
HETATM    9  C15 UNL     1      45.544  21.896  33.185  1.00  0.00     0.117 C 
HETATM   10 CL4  UNL     1      46.613  20.500  33.009  1.00  0.00    -0.102 Cl
HETATM   11 CL5  UNL     1      46.070  23.328  32.305  1.00  0.00    -0.102 Cl
HETATM   12  C16 UNL     1      44.103  21.489  32.968  1.00  0.00     0.067 C 
ENDBRANCH   5   7
ENDBRANCH   2   3
ENDBRANCH   1   2
BRANCH   1  13
HETATM   13  C4  UNL     1      39.575  20.744  35.554  1.00  0.00     0.198 C 
BRANCH  13  14
HETATM   14  O2  UNL     1      38.197  20.935  35.497  1.00  0.00    -0.398 OA
ATOM     15  H2  UNL     1      37.947  21.839  35.650  1.00  0.00     0.209 HD
ENDBRANCH  13  14
ENDBRANCH   1  13
BRANCH   1  16
HETATM   16  C5  UNL     1      39.221  21.205  37.934  1.00  0.00     0.255 C 
HETATM   17  F1  UNL     1      39.447  22.555  37.938  1.00  0.00    -0.253 F 
ENDBRANCH   1  16
BRANCH   1  18
HETATM   18  N1  UNL     1      39.936  19.011  37.126  1.00  0.00    -0.343 N 
HETATM   19  C6  UNL     1      40.097  18.303  38.307  1.00  0.00     0.255 C 
HETATM   20  O3  UNL     1      40.376  18.968  39.364  1.00  0.00    -0.268 OA
ATOM     21  H1  UNL     1      39.707  18.468  36.293  1.00  0.00     0.163 HD
BRANCH  19  22
HETATM   22  C7  UNL     1      39.987  16.876  38.524  1.00  0.00     0.075 A 
HETATM   23  C8  UNL     1      38.729  16.331  38.832  1.00  0.00     0.053 A 
HETATM   24 CL1  UNL     1      37.358  17.389  38.903  1.00  0.00    -0.083 Cl
HETATM   25  C9  UNL     1      38.523  15.006  39.079  1.00  0.00     0.048 A 
HETATM   26  C10 UNL     1      39.565  14.134  39.033  1.00  0.00     0.037 A 
HETATM   27 CL2  UNL     1      39.307  12.419  39.349  1.00  0.00    -0.084 Cl
HETATM   28  C11 UNL     1      40.822  14.603  38.739  1.00  0.00     0.048 A 
HETATM   29  C12 UNL     1      41.016  15.969  38.489  1.00  0.00     0.053 A 
HETATM   30 CL3  UNL     1      42.679  16.440  38.177  1.00  0.00    -0.083 Cl
ENDBRANCH  19  22
ENDBRANCH   1  18
TORSDOF 8
ENDMDL
MODEL 4
REMARK VINA RESULT: -5.724994727      2.278      3.036
REMARK  8 active torsions:
REMARK  status: ('A' for Active; 'I' for Inactive)
REMARK    1  A    between atoms: C1_2  and  C2_3 
REMARK       I    between atoms: C1_2  and  N2_23 
REMARK    2  A    between atoms: C2_3  and  C3_4 
REMARK    3  A    between atoms: C3_4  and  C4_5 
REMARK    4  A    between atoms: C3_4  and  C5_8 
REMARK    5  A    between atoms: C3_4  and  N1_10 
REMARK    6  A    between atoms: C4_5  and  O2_6 
REMARK       I    between atoms: N1_10  and  C6_12 
REMARK    7  A    between atoms: C6_12  and  C7_14 
REMARK    8  A    between atoms: N2_23  and  C13_25 
ROOT
HETATM    1  C3  UNL     1      37.999  19.690  36.297  1.00  0.00     0.088 C 
ENDROOT
BRANCH   1   2
HETATM    2  C2  UNL     1      38.019  20.019  37.762  1.00  0.00     0.138 C 
BRANCH   2   3
HETATM    3  C1  UNL     1      37.610  19.042  38.725  1.00  0.00     0.220 C 
HETATM    4  O1  UNL     1      38.304  18.235  39.402  1.00  0.00    -0.274 OA
HETATM    5  N2  UNL     1      36.202  18.924  39.000  1.00  0.00    -0.356 N 
ATOM      6  H2  UNL     1      35.565  19.539  38.494  1.00  0.00     0.162 HD
BRANCH   5   7
HETATM    7  C13 UNL     1      35.636  18.001  39.933  1.00  0.00     0.090 C 
HETATM    8  C14 UNL     1      34.557  18.657  40.781  1.00  0.00     0.067 C 
HETATM    9  C15 UNL     1      33.614  17.511  40.478  1.00  0.00     0.117 C 
HETATM   10 CL4  UNL     1      32.083  18.075  39.802  1.00  0.00    -0.102 Cl
HETATM   11 CL5  UNL     1      33.442  16.365  41.804  1.00  0.00    -0.102 Cl
HETATM   12  C16 UNL     1      34.558  17.095  39.373  1.00  0.00     0.067 C 
ENDBRANCH   5   7
ENDBRANCH   2   3
ENDBRANCH   1   2
BRANCH   1  13
HETATM   13  C4  UNL     1      36.883  20.393  35.576  1.00  0.00     0.198 C 
BRANCH  13  14
HETATM   14  O2  UNL     1      35.829  20.730  36.421  1.00  0.00    -0.398 OA
ATOM     15  H2  UNL     1      36.023  21.485  36.964  1.00  0.00     0.209 HD
ENDBRANCH  13  14
ENDBRANCH   1  13
BRANCH   1  16
HETATM   16  C5  UNL     1      37.977  18.239  35.982  1.00  0.00     0.255 C 
HETATM   17  F1  UNL     1      36.712  17.749  35.802  1.00  0.00    -0.253 F 
ENDBRANCH   1  16
BRANCH   1  18
HETATM   18  N1  UNL     1      39.240  20.324  35.789  1.00  0.00    -0.343 N 
HETATM   19  C6  UNL     1      40.523  20.144  36.283  1.00  0.00     0.255 C 
HETATM   20  O3  UNL     1      40.670  19.346  37.273  1.00  0.00    -0.268 OA
ATOM     21  H1  UNL     1      39.139  20.957  34.996  1.00  0.00     0.163 HD
BRANCH  19  22
HETATM   22  C7  UNL     1      41.758  20.743  35.825  1.00  0.00     0.075 A 
HETATM   23  C8  UNL     1      42.706  19.932  35.178  1.00  0.00     0.053 A 
HETATM   24 CL1  UNL     1      42.337  18.257  34.927  1.00  0.00    -0.083 Cl
HETATM   25  C9  UNL     1      43.910  20.392  34.731  1.00  0.00     0.048 A 
HETATM   26  C10 UNL     1      44.246  21.697  34.900  1.00  0.00     0.037 A 
HETATM   27 CL2  UNL     1      45.798  22.301  34.324  1.00  0.00    -0.084 Cl
HETATM   28  C11 UNL     1      43.363  22.543  35.527  1.00  0.00     0.048 A 
HETATM   29  C12 UNL     1      42.131  22.054  35.981  1.00  0.00     0.053 A 
HETATM   30 CL3  UNL     1      41.122  23.228  36.810  1.00  0.00    -0.083 Cl
ENDBRANCH  19  22
ENDBRANCH   1  18
TORSDOF 8
ENDMDL
MODEL 5
REMARK VINA RESULT: -5.678630670      0.269      1.751
REMARK  8 active torsions:
REMARK  status: ('A' for Active; 'I' for Inactive)
REMARK    1  A    between atoms: C1_2  and  C2_3 
REMARK       I    between atoms: C1_2  and  N2_23 
REMARK    2  A    between atoms: C2_3  and  C3_4 
REMARK    3  A    between atoms: C3_4  and  C4_5 
REMARK    4  A    between atoms: C3_4  and  C5_8 
REMARK    5  A    between atoms: C3_4  and  N1_10 
REMARK    6  A    between atoms: C4_5  and  O2_6 
REMARK       I    between atoms: N1_10  and  C6_12 
REMARK    7  A    between atoms: C6_12  and  C7_14 
REMARK    8  A    between atoms: N2_23  and  C13_25 
ROOT
HETATM    1  C3  UNL     1      39.131  20.509  36.870  1.00  0.00     0.088 C 
ENDROOT
BRANCH   1   2
HETATM    2  C2  UNL     1      38.820  20.187  38.303  1.00  0.00     0.138 C 
BRANCH   2   3
HETATM    3  C1  UNL     1      38.161  18.962  38.638  1.00  0.00     0.220 C 
HETATM    4  O1  UNL     1      38.485  17.771  38.374  1.00  0.00    -0.274 OA
HETATM    5  N2  UNL     1      36.937  19.045  39.393  1.00  0.00    -0.356 N 
ATOM      6  H2  UNL     1      36.600  19.973  39.650  1.00  0.00     0.162 HD
BRANCH   5   7
HETATM    7  C13 UNL     1      36.165  17.917  39.805  1.00  0.00     0.090 C 
HETATM    8  C14 UNL     1      35.149  18.296  40.871  1.00  0.00     0.067 C 
HETATM    9  C15 UNL     1      34.056  17.599  40.088  1.00  0.00     0.117 C 
HETATM   10 CL4  UNL     1      32.689  18.670  39.763  1.00  0.00    -0.102 Cl
HETATM   11 CL5  UNL     1      33.606  16.027  40.742  1.00  0.00    -0.102 Cl
HETATM   12  C16 UNL     1      34.997  17.569  38.904  1.00  0.00     0.067 C 
ENDBRANCH   5   7
ENDBRANCH   2   3
ENDBRANCH   1   2
BRANCH   1  13
HETATM   13  C4  UNL     1      39.813  21.841  36.727  1.00  0.00     0.198 C 
BRANCH  13  14
HETATM   14  O2  UNL     1      39.743  22.606  37.888  1.00  0.00    -0.398 OA
ATOM     15  H2  UNL     1      40.599  22.785  38.259  1.00  0.00     0.209 HD
ENDBRANCH  13  14
ENDBRANCH   1  13
BRANCH   1  16
HETATM   16  C5  UNL     1      37.973  20.425  35.944  1.00  0.00     0.255 C 
HETATM   17  F1  UNL     1      36.888  21.138  36.377  1.00  0.00    -0.253 F 
ENDBRANCH   1  16
BRANCH   1  18
HETATM   18  N1  UNL     1      40.169  19.511  36.514  1.00  0.00    -0.343 N 
HETATM   19  C6  UNL     1      41.458  19.443  37.019  1.00  0.00     0.255 C 
HETATM   20  O3  UNL     1      41.802  20.318  37.887  1.00  0.00    -0.268 OA
ATOM     21  H1  UNL     1      39.907  18.802  35.829  1.00  0.00     0.163 HD
BRANCH  19  22
HETATM   22  C7  UNL     1      42.503  18.494  36.699  1.00  0.00     0.075 A 
HETATM   23  C8  UNL     1      43.378  18.780  35.637  1.00  0.00     0.053 A 
HETATM   24 CL1  UNL     1      43.187  20.274  34.780  1.00  0.00    -0.083 Cl
HETATM   25  C9  UNL     1      44.377  17.942  35.239  1.00  0.00     0.048 A 
HETATM   26  C10 UNL     1      44.571  16.759  35.880  1.00  0.00     0.037 A 
HETATM   27 CL2  UNL     1      45.862  15.672  35.374  1.00  0.00    -0.084 Cl
HETATM   28  C11 UNL     1      43.749  16.419  36.927  1.00  0.00     0.048 A 
HETATM   29  C12 UNL     1      42.725  17.291  37.322  1.00  0.00     0.053 A 
HETATM   30 CL3  UNL     1      41.717  16.710  38.637  1.00  0.00    -0.083 Cl
ENDBRANCH  19  22
ENDBRANCH   1  18
TORSDOF 8
ENDMDL
