MODEL 1
REMARK VINA RESULT: -5.975299509      0.000      0.000
REMARK  8 active torsions:
REMARK  status: ('A' for Active; 'I' for Inactive)
REMARK       I    between atoms: C1_2  and  N1_3 
REMARK       I    between atoms: C1_2  and  N2_21 
REMARK    1  A    between atoms: N1_3  and  C2_5 
REMARK    2  A    between atoms: C2_5  and  C3_6 
REMARK    3  A    between atoms: C3_6  and  C4_7 
REMARK    4  A    between atoms: C4_7  and  C5_8 
REMARK    5  A    between atoms: C5_8  and  C6_9 
REMARK    6  A    between atoms: C8_11  and  O2_12 
REMARK    7  A    between atoms: C8_11  and  C9_14 
REMARK    8  A    between atoms: N2_21  and  C11_23 
ROOT
HETATM    1  C3  UNL     1      39.735  21.184  36.933  1.00  0.00     0.020 C 
ENDROOT
BRANCH   1   2
HETATM    2  C2  UNL     1      38.322  20.702  36.841  1.00  0.00     0.124 C 
BRANCH   2   3
HETATM    3  N1  UNL     1      37.902  20.168  38.110  1.00  0.00    -0.343 N 
HETATM    4  C1  UNL     1      36.845  19.240  38.193  1.00  0.00     0.316 C 
HETATM    5  O1  UNL     1      36.209  18.804  37.190  1.00  0.00    -0.247 OA
HETATM    6  N2  UNL     1      36.474  18.768  39.507  1.00  0.00    -0.334 N 
ATOM      7  H2  UNL     1      36.968  19.102  40.334  1.00  0.00     0.164 HD
ATOM      8  H1  UNL     1      38.377  20.466  38.962  1.00  0.00     0.164 HD
BRANCH   6   9
HETATM    9  C11 UNL     1      35.392  17.814  39.634  1.00  0.00     0.144 C 
HETATM   10  C12 UNL     1      35.986  16.523  40.131  1.00  0.00     0.195 C 
HETATM   11  O3  UNL     1      34.929  15.653  40.389  1.00  0.00    -0.389 OA
HETATM   12  C13 UNL     1      34.300  16.084  41.533  1.00  0.00     0.170 C 
HETATM   13  C14 UNL     1      33.700  17.439  41.457  1.00  0.00     0.065 C 
HETATM   14  C15 UNL     1      34.368  18.396  40.551  1.00  0.00     0.197 C 
HETATM   15  F4  UNL     1      33.408  19.019  39.740  1.00  0.00    -0.247 F 
ENDBRANCH   6   9
ENDBRANCH   2   3
ENDBRANCH   1   2
BRANCH   1  16
HETATM   16  C4  UNL     1      40.414  20.582  38.135  1.00  0.00     0.002 C 
BRANCH  16  17
HETATM   17  C5  UNL     1      41.743  20.006  37.740  1.00  0.00     0.008 C 
BRANCH  17  18
HETATM   18  C6  UNL     1      41.898  18.676  38.491  1.00  0.00     0.031 C 
HETATM   19  C7  UNL     1      40.577  18.186  39.044  1.00  0.00     0.058 C 
HETATM   20  C8  UNL     1      40.782  16.910  38.270  1.00  0.00     0.191 C 
HETATM   21  C10 UNL     1      41.906  17.525  37.499  1.00  0.00     0.156 C 
HETATM   22 CL1  UNL     1      43.452  16.629  37.649  1.00  0.00    -0.098 Cl
HETATM   23 CL2  UNL     1      41.578  17.959  35.833  1.00  0.00    -0.098 Cl
BRANCH  20  24
HETATM   24  O2  UNL     1      41.249  15.894  39.102  1.00  0.00    -0.378 OA
ATOM     25  H2  UNL     1      42.128  15.632  38.856  1.00  0.00     0.211 HD
ENDBRANCH  20  24
BRANCH  20  26
HETATM   26  C9  UNL     1      39.588  16.461  37.470  1.00  0.00     0.421 C 
HETATM   27  F1  UNL     1      40.008  15.414  36.638  1.00  0.00    -0.168 F 
HETATM   28  F2  UNL     1      39.076  17.423  36.664  1.00  0.00    -0.168 F 
HETATM   29  F3  UNL     1      38.625  15.913  38.295  1.00  0.00    -0.168 F 
ENDBRANCH  20  26
ENDBRANCH  17  18
ENDBRANCH  16  17
ENDBRANCH   1  16
TORSDOF 8
ENDMDL
MODEL 2
REMARK VINA RESULT: -5.885009330      1.825      2.199
REMARK  8 active torsions:
REMARK  status: ('A' for Active; 'I' for Inactive)
REMARK       I    between atoms: C1_2  and  N1_3 
REMARK       I    between atoms: C1_2  and  N2_21 
REMARK    1  A    between atoms: N1_3  and  C2_5 
REMARK    2  A    between atoms: C2_5  and  C3_6 
REMARK    3  A    between atoms: C3_6  and  C4_7 
REMARK    4  A    between atoms: C4_7  and  C5_8 
REMARK    5  A    between atoms: C5_8  and  C6_9 
REMARK    6  A    between atoms: C8_11  and  O2_12 
REMARK    7  A    between atoms: C8_11  and  C9_14 
REMARK    8  A    between atoms: N2_21  and  C11_23 
ROOT
HETATM    1  C3  UNL     1      39.608  20.232  36.067  1.00  0.00     0.020 C 
ENDROOT
BRANCH   1   2
HETATM    2  C2  UNL     1      38.415  20.908  36.665  1.00  0.00     0.124 C 
BRANCH   2   3
HETATM    3  N1  UNL     1      38.078  20.288  37.919  1.00  0.00    -0.343 N 
HETATM    4  C1  UNL     1      37.005  19.380  38.014  1.00  0.00     0.316 C 
HETATM    5  O1  UNL     1      36.282  19.035  37.033  1.00  0.00    -0.247 OA
HETATM    6  N2  UNL     1      36.721  18.816  39.314  1.00  0.00    -0.334 N 
ATOM      7  H2  UNL     1      37.284  19.075  40.123  1.00  0.00     0.164 HD
ATOM      8  H1  UNL     1      38.624  20.509  38.752  1.00  0.00     0.164 HD
BRANCH   6   9
HETATM    9  C11 UNL     1      35.626  17.879  39.453  1.00  0.00     0.144 C 
HETATM   10  C12 UNL     1      36.213  16.559  39.875  1.00  0.00     0.195 C 
HETATM   11  O3  UNL     1      35.150  15.700  40.146  1.00  0.00    -0.389 OA
HETATM   12  C13 UNL     1      34.581  16.100  41.332  1.00  0.00     0.170 C 
HETATM   13  C14 UNL     1      34.007  17.467  41.333  1.00  0.00     0.065 C 
HETATM   14  C15 UNL     1      34.654  18.445  40.435  1.00  0.00     0.197 C 
HETATM   15  F4  UNL     1      33.674  19.118  39.692  1.00  0.00    -0.247 F 
ENDBRANCH   6   9
ENDBRANCH   2   3
ENDBRANCH   1   2
BRANCH   1  16
HETATM   16  C4  UNL     1      40.874  20.778  36.672  1.00  0.00     0.002 C 
BRANCH  16  17
HETATM   17  C5  UNL     1      41.489  19.759  37.587  1.00  0.00     0.008 C 
BRANCH  17  18
HETATM   18  C6  UNL     1      41.386  18.400  36.881  1.00  0.00     0.031 C 
HETATM   19  C7  UNL     1      42.652  17.585  37.044  1.00  0.00     0.058 C 
HETATM   20  C8  UNL     1      41.811  16.491  37.647  1.00  0.00     0.191 C 
HETATM   21  C10 UNL     1      40.642  17.416  37.768  1.00  0.00     0.156 C 
HETATM   22 CL1  UNL     1      39.179  16.838  36.908  1.00  0.00    -0.098 Cl
HETATM   23 CL2  UNL     1      40.252  17.991  39.377  1.00  0.00    -0.098 Cl
BRANCH  20  24
HETATM   24  O2  UNL     1      41.555  15.488  36.713  1.00  0.00    -0.378 OA
ATOM     25  H2  UNL     1      41.741  14.631  37.076  1.00  0.00     0.211 HD
ENDBRANCH  20  24
BRANCH  20  26
HETATM   26  C9  UNL     1      42.349  15.920  38.932  1.00  0.00     0.421 C 
HETATM   27  F1  UNL     1      43.407  15.062  38.601  1.00  0.00    -0.168 F 
HETATM   28  F2  UNL     1      41.446  15.184  39.624  1.00  0.00    -0.168 F 
HETATM   29  F3  UNL     1      42.910  16.914  39.711  1.00  0.00    -0.168 F 
ENDBRANCH  20  26
ENDBRANCH  17  18
ENDBRANCH  16  17
ENDBRANCH   1  16
TORSDOF 8
ENDMDL
MODEL 3
REMARK VINA RESULT: -5.723618270      2.337      2.838
REMARK  8 active torsions:
REMARK  status: ('A' for Active; 'I' for Inactive)
REMARK       I    between atoms: C1_2  and  N1_3 
REMARK       I    between atoms: C1_2  and  N2_21 
REMARK    1  A    between atoms: N1_3  and  C2_5 
REMARK    2  A    between atoms: C2_5  and  C3_6 
REMARK    3  A    between atoms: C3_6  and  C4_7 
REMARK    4  A    between atoms: C4_7  and  C5_8 
REMARK    5  A    between atoms: C5_8  and  C6_9 
REMARK    6  A    between atoms: C8_11  and  O2_12 
REMARK    7  A    between atoms: C8_11  and  C9_14 
REMARK    8  A    between atoms: N2_21  and  C11_23 
ROOT
HETATM    1  C3  UNL     1      40.834  19.146  37.396  1.00  0.00     0.020 C 
ENDROOT
BRANCH   1   2
HETATM    2  C2  UNL     1      39.413  19.398  36.999  1.00  0.00     0.124 C 
BRANCH   2   3
HETATM    3  N1  UNL     1      38.573  19.417  38.167  1.00  0.00    -0.343 N 
HETATM    4  C1  UNL     1      37.454  18.567  38.269  1.00  0.00     0.316 C 
HETATM    5  O1  UNL     1      37.115  17.736  37.376  1.00  0.00    -0.247 OA
HETATM    6  N2  UNL     1      36.652  18.661  39.467  1.00  0.00    -0.334 N 
ATOM      7  H2  UNL     1      36.899  19.322  40.203  1.00  0.00     0.164 HD
ATOM      8  H1  UNL     1      38.792  20.054  38.933  1.00  0.00     0.164 HD
BRANCH   6   9
HETATM    9  C11 UNL     1      35.493  17.805  39.609  1.00  0.00     0.144 C 
HETATM   10  C12 UNL     1      35.973  16.483  40.146  1.00  0.00     0.195 C 
HETATM   11  O3  UNL     1      34.844  15.712  40.417  1.00  0.00    -0.389 OA
HETATM   12  C13 UNL     1      34.246  16.225  41.544  1.00  0.00     0.170 C 
HETATM   13  C14 UNL     1      33.763  17.622  41.426  1.00  0.00     0.065 C 
HETATM   14  C15 UNL     1      34.515  18.495  40.502  1.00  0.00     0.197 C 
HETATM   15  F4  UNL     1      33.617  19.175  39.667  1.00  0.00    -0.247 F 
ENDBRANCH   6   9
ENDBRANCH   2   3
ENDBRANCH   1   2
BRANCH   1  16
HETATM   16  C4  UNL     1      41.445  18.098  36.504  1.00  0.00     0.002 C 
BRANCH  16  17
HETATM   17  C5  UNL     1      40.459  16.993  36.258  1.00  0.00     0.008 C 
BRANCH  17  18
HETATM   18  C6  UNL     1      41.226  15.669  36.378  1.00  0.00     0.031 C 
HETATM   19  C7  UNL     1      42.609  15.872  36.959  1.00  0.00     0.058 C 
HETATM   20  C8  UNL     1      42.244  14.892  38.043  1.00  0.00     0.191 C 
HETATM   21  C10 UNL     1      40.803  14.945  37.644  1.00  0.00     0.156 C 
HETATM   22 CL1  UNL     1      40.122  13.345  37.208  1.00  0.00    -0.098 Cl
HETATM   23 CL2  UNL     1      39.723  15.833  38.700  1.00  0.00    -0.098 Cl
BRANCH  20  24
HETATM   24  O2  UNL     1      42.785  13.635  37.779  1.00  0.00    -0.378 OA
ATOM     25  H2  UNL     1      43.674  13.711  37.453  1.00  0.00     0.211 HD
ENDBRANCH  20  24
BRANCH  20  26
HETATM   26  C9  UNL     1      42.569  15.349  39.440  1.00  0.00     0.421 C 
HETATM   27  F1  UNL     1      43.926  15.076  39.667  1.00  0.00    -0.168 F 
HETATM   28  F2  UNL     1      41.870  14.702  40.404  1.00  0.00    -0.168 F 
HETATM   29  F3  UNL     1      42.446  16.721  39.546  1.00  0.00    -0.168 F 
ENDBRANCH  20  26
ENDBRANCH  17  18
ENDBRANCH  16  17
ENDBRANCH   1  16
TORSDOF 8
ENDMDL
MODEL 4
REMARK VINA RESULT: -5.709174963      1.647      2.011
REMARK  8 active torsions:
REMARK  status: ('A' for Active; 'I' for Inactive)
REMARK       I    between atoms: C1_2  and  N1_3 
REMARK       I    between atoms: C1_2  and  N2_21 
REMARK    1  A    between atoms: N1_3  and  C2_5 
REMARK    2  A    between atoms: C2_5  and  C3_6 
REMARK    3  A    between atoms: C3_6  and  C4_7 
REMARK    4  A    between atoms: C4_7  and  C5_8 
REMARK    5  A    between atoms: C5_8  and  C6_9 
REMARK    6  A    between atoms: C8_11  and  O2_12 
REMARK    7  A    between atoms: C8_11  and  C9_14 
REMARK    8  A    between atoms: N2_21  and  C11_23 
ROOT
HETATM    1  C3  UNL     1      39.647  21.499  37.043  1.00  0.00     0.020 C 
ENDROOT
BRANCH   1   2
HETATM    2  C2  UNL     1      38.385  20.715  36.863  1.00  0.00     0.124 C 
BRANCH   2   3
HETATM    3  N1  UNL     1      37.953  20.183  38.128  1.00  0.00    -0.343 N 
HETATM    4  C1  UNL     1      36.896  19.254  38.202  1.00  0.00     0.316 C 
HETATM    5  O1  UNL     1      36.269  18.816  37.192  1.00  0.00    -0.247 OA
HETATM    6  N2  UNL     1      36.512  18.783  39.512  1.00  0.00    -0.334 N 
ATOM      7  H2  UNL     1      36.996  19.119  40.344  1.00  0.00     0.164 HD
ATOM      8  H1  UNL     1      38.419  20.482  38.985  1.00  0.00     0.164 HD
BRANCH   6   9
HETATM    9  C11 UNL     1      35.429  17.829  39.630  1.00  0.00     0.144 C 
HETATM   10  C12 UNL     1      36.022  16.533  40.115  1.00  0.00     0.195 C 
HETATM   11  O3  UNL     1      34.963  15.661  40.364  1.00  0.00    -0.389 OA
HETATM   12  C13 UNL     1      34.335  16.082  41.512  1.00  0.00     0.170 C 
HETATM   13  C14 UNL     1      33.736  17.437  41.448  1.00  0.00     0.065 C 
HETATM   14  C15 UNL     1      34.404  18.403  40.552  1.00  0.00     0.197 C 
HETATM   15  F4  UNL     1      33.446  19.034  39.747  1.00  0.00    -0.247 F 
ENDBRANCH   6   9
ENDBRANCH   2   3
ENDBRANCH   1   2
BRANCH   1  16
HETATM   16  C4  UNL     1      40.689  21.042  36.058  1.00  0.00     0.002 C 
BRANCH  16  17
HETATM   17  C5  UNL     1      40.337  19.681  35.530  1.00  0.00     0.008 C 
BRANCH  17  18
HETATM   18  C6  UNL     1      41.573  18.790  35.720  1.00  0.00     0.031 C 
HETATM   19  C7  UNL     1      42.275  19.077  37.030  1.00  0.00     0.058 C 
HETATM   20  C8  UNL     1      42.101  17.623  37.385  1.00  0.00     0.191 C 
HETATM   21  C10 UNL     1      41.147  17.431  36.249  1.00  0.00     0.156 C 
HETATM   22 CL1  UNL     1      41.660  16.162  35.091  1.00  0.00    -0.098 Cl
HETATM   23 CL2  UNL     1      39.450  17.274  36.659  1.00  0.00    -0.098 Cl
BRANCH  20  24
HETATM   24  O2  UNL     1      43.281  16.914  37.167  1.00  0.00    -0.378 OA
ATOM     25  H2  UNL     1      43.474  16.343  37.902  1.00  0.00     0.211 HD
ENDBRANCH  20  24
BRANCH  20  26
HETATM   26  C9  UNL     1      41.556  17.374  38.767  1.00  0.00     0.421 C 
HETATM   27  F1  UNL     1      42.630  17.458  39.664  1.00  0.00    -0.168 F 
HETATM   28  F2  UNL     1      41.006  16.145  38.924  1.00  0.00    -0.168 F 
HETATM   29  F3  UNL     1      40.686  18.380  39.137  1.00  0.00    -0.168 F 
ENDBRANCH  20  26
ENDBRANCH  17  18
ENDBRANCH  16  17
ENDBRANCH   1  16
TORSDOF 8
ENDMDL
MODEL 5
REMARK VINA RESULT: -5.654890963      3.926      6.246
REMARK  8 active torsions:
REMARK  status: ('A' for Active; 'I' for Inactive)
REMARK       I    between atoms: C1_2  and  N1_3 
REMARK       I    between atoms: C1_2  and  N2_21 
REMARK    1  A    between atoms: N1_3  and  C2_5 
REMARK    2  A    between atoms: C2_5  and  C3_6 
REMARK    3  A    between atoms: C3_6  and  C4_7 
REMARK    4  A    between atoms: C4_7  and  C5_8 
REMARK    5  A    between atoms: C5_8  and  C6_9 
REMARK    6  A    between atoms: C8_11  and  O2_12 
REMARK    7  A    between atoms: C8_11  and  C9_14 
REMARK    8  A    between atoms: N2_21  and  C11_23 
ROOT
HETATM    1  C3  UNL     1      37.666  18.825  38.779  1.00  0.00     0.020 C 
ENDROOT
BRANCH   1   2
HETATM    2  C2  UNL     1      36.585  18.712  37.750  1.00  0.00     0.124 C 
BRANCH   2   3
HETATM    3  N1  UNL     1      36.591  19.874  36.902  1.00  0.00    -0.343 N 
HETATM    4  C1  UNL     1      36.166  19.796  35.561  1.00  0.00     0.316 C 
HETATM    5  O1  UNL     1      35.745  18.735  35.015  1.00  0.00    -0.247 OA
HETATM    6  N2  UNL     1      36.221  21.005  34.772  1.00  0.00    -0.334 N 
ATOM      7  H2  UNL     1      36.556  21.875  35.184  1.00  0.00     0.164 HD
ATOM      8  H1  UNL     1      36.907  20.769  37.277  1.00  0.00     0.164 HD
BRANCH   6   9
HETATM    9  C11 UNL     1      35.793  20.966  33.390  1.00  0.00     0.144 C 
HETATM   10  C12 UNL     1      35.118  22.278  33.089  1.00  0.00     0.195 C 
HETATM   11  O3  UNL     1      34.836  22.295  31.724  1.00  0.00    -0.389 OA
HETATM   12  C13 UNL     1      36.022  22.476  31.053  1.00  0.00     0.170 C 
HETATM   13  C14 UNL     1      37.030  21.405  31.244  1.00  0.00     0.065 C 
HETATM   14  C15 UNL     1      36.993  20.700  32.542  1.00  0.00     0.197 C 
HETATM   15  F4  UNL     1      37.033  19.316  32.322  1.00  0.00    -0.247 F 
ENDBRANCH   6   9
ENDBRANCH   2   3
ENDBRANCH   1   2
BRANCH   1  16
HETATM   16  C4  UNL     1      38.661  17.707  38.613  1.00  0.00     0.002 C 
BRANCH  16  17
HETATM   17  C5  UNL     1      39.637  18.045  37.523  1.00  0.00     0.008 C 
BRANCH  17  18
HETATM   18  C6  UNL     1      40.367  19.326  37.953  1.00  0.00     0.031 C 
HETATM   19  C7  UNL     1      41.868  19.188  37.820  1.00  0.00     0.058 C 
HETATM   20  C8  UNL     1      41.850  20.396  36.920  1.00  0.00     0.191 C 
HETATM   21  C10 UNL     1      40.360  20.327  36.810  1.00  0.00     0.156 C 
HETATM   22 CL1  UNL     1      39.532  21.825  37.344  1.00  0.00    -0.098 Cl
HETATM   23 CL2  UNL     1      39.706  19.742  35.293  1.00  0.00    -0.098 Cl
BRANCH  20  24
HETATM   24  O2  UNL     1      42.243  21.539  37.616  1.00  0.00    -0.378 OA
ATOM     25  H2  UNL     1      42.902  21.329  38.267  1.00  0.00     0.211 HD
ENDBRANCH  20  24
BRANCH  20  26
HETATM   26  C9  UNL     1      42.625  20.238  35.639  1.00  0.00     0.421 C 
HETATM   27  F1  UNL     1      43.964  20.546  35.917  1.00  0.00    -0.168 F 
HETATM   28  F2  UNL     1      42.224  21.075  34.651  1.00  0.00    -0.168 F 
HETATM   29  F3  UNL     1      42.627  18.919  35.229  1.00  0.00    -0.168 F 
ENDBRANCH  20  26
ENDBRANCH  17  18
ENDBRANCH  16  17
ENDBRANCH   1  16
TORSDOF 8
ENDMDL
