MODEL 1
REMARK VINA RESULT: -7.279779519      0.000      0.000
REMARK  7 active torsions:
REMARK  status: ('A' for Active; 'I' for Inactive)
REMARK    1  A    between atoms: C6_7  and  N1_8 
REMARK    2  A    between atoms: N1_8  and  C7_10 
REMARK    3  A    between atoms: C7_10  and  C8_11 
REMARK    4  A    between atoms: C8_11  and  C9_12 
REMARK    5  A    between atoms: C9_12  and  N2_13 
REMARK       I    between atoms: N2_13  and  C10_15 
REMARK    6  A    between atoms: C10_15  and  C11_17 
REMARK    7  A    between atoms: C11_17  and  C12_18 
ROOT
HETATM    1  C1  UNL     1      30.578  19.199  39.637  1.00  0.00     0.018 C 
HETATM    2  C2  UNL     1      31.426  18.498  40.154  1.00  0.00    -0.074 C 
HETATM    3  C3  UNL     1      32.418  17.676  40.787  1.00  0.00     0.059 A 
HETATM    4  C4  UNL     1      33.756  18.008  40.693  1.00  0.00     0.051 A 
HETATM    5  C5  UNL     1      34.679  17.170  41.332  1.00  0.00     0.079 A 
HETATM    6 CL1  UNL     1      36.395  17.502  41.272  1.00  0.00    -0.080 Cl
HETATM    7  C6  UNL     1      34.252  16.060  42.027  1.00  0.00     0.124 A 
HETATM    8  N3  UNL     1      32.945  15.777  42.093  1.00  0.00    -0.329 N 
ATOM      9  H3  UNL     1      32.643  14.952  42.610  1.00  0.00     0.168 HD
HETATM   10  C18 UNL     1      32.005  16.562  41.486  1.00  0.00     0.136 A 
HETATM   11  N4  UNL     1      30.663  16.154  41.630  1.00  0.00    -0.081 NA
ENDROOT
BRANCH   7  12
HETATM   12  N1  UNL     1      35.123  15.308  42.605  1.00  0.00    -0.375 N 
ATOM     13  H1  UNL     1      35.566  15.604  43.475  1.00  0.00     0.161 HD
BRANCH  12  14
HETATM   14  C7  UNL     1      35.468  14.018  41.994  1.00  0.00     0.123 C 
BRANCH  14  15
HETATM   15  C8  UNL     1      36.887  13.624  42.329  1.00  0.00     0.039 C 
BRANCH  15  16
HETATM   16  C9  UNL     1      37.320  12.626  41.286  1.00  0.00     0.124 C 
BRANCH  16  17
HETATM   17  N2  UNL     1      37.638  13.224  40.011  1.00  0.00    -0.361 N 
HETATM   18  C10 UNL     1      38.982  13.442  39.663  1.00  0.00     0.222 C 
HETATM   19  O1  UNL     1      39.899  13.122  40.442  1.00  0.00    -0.273 OA
ATOM     20  H2  UNL     1      36.891  13.487  39.367  1.00  0.00     0.162 HD
BRANCH  18  21
HETATM   21  C11 UNL     1      39.317  14.056  38.362  1.00  0.00     0.147 C 
BRANCH  21  22
HETATM   22  C12 UNL     1      39.650  15.514  38.553  1.00  0.00     0.034 A 
HETATM   23  C13 UNL     1      40.956  15.913  38.747  1.00  0.00     0.168 A 
HETATM   24  F1  UNL     1      41.909  14.956  38.756  1.00  0.00    -0.202 F 
HETATM   25  C14 UNL     1      41.293  17.257  38.930  1.00  0.00     0.197 A 
HETATM   26  F2  UNL     1      42.580  17.617  39.118  1.00  0.00    -0.199 F 
HETATM   27  C15 UNL     1      40.301  18.210  38.917  1.00  0.00     0.199 A 
HETATM   28  F3  UNL     1      40.611  19.535  39.096  1.00  0.00    -0.199 F 
HETATM   29  C16 UNL     1      39.001  17.803  38.722  1.00  0.00     0.197 A 
HETATM   30  F4  UNL     1      38.019  18.721  38.706  1.00  0.00    -0.199 F 
HETATM   31  C17 UNL     1      38.651  16.462  38.539  1.00  0.00     0.168 A 
HETATM   32  F5  UNL     1      37.350  16.097  38.349  1.00  0.00    -0.202 F 
ENDBRANCH  21  22
ENDBRANCH  18  21
ENDBRANCH  16  17
ENDBRANCH  15  16
ENDBRANCH  14  15
ENDBRANCH  12  14
ENDBRANCH   7  12
TORSDOF 7
ENDMDL
MODEL 2
REMARK VINA RESULT: -7.276768839      0.050      1.960
REMARK  7 active torsions:
REMARK  status: ('A' for Active; 'I' for Inactive)
REMARK    1  A    between atoms: C6_7  and  N1_8 
REMARK    2  A    between atoms: N1_8  and  C7_10 
REMARK    3  A    between atoms: C7_10  and  C8_11 
REMARK    4  A    between atoms: C8_11  and  C9_12 
REMARK    5  A    between atoms: C9_12  and  N2_13 
REMARK       I    between atoms: N2_13  and  C10_15 
REMARK    6  A    between atoms: C10_15  and  C11_17 
REMARK    7  A    between atoms: C11_17  and  C12_18 
ROOT
HETATM    1  C1  UNL     1      30.555  19.200  39.655  1.00  0.00     0.018 C 
HETATM    2  C2  UNL     1      31.411  18.500  40.162  1.00  0.00    -0.074 C 
HETATM    3  C3  UNL     1      32.412  17.681  40.784  1.00  0.00     0.059 A 
HETATM    4  C4  UNL     1      33.748  18.018  40.678  1.00  0.00     0.051 A 
HETATM    5  C5  UNL     1      34.679  17.182  41.307  1.00  0.00     0.079 A 
HETATM    6 CL1  UNL     1      36.394  17.520  41.232  1.00  0.00    -0.080 Cl
HETATM    7  C6  UNL     1      34.264  16.069  42.002  1.00  0.00     0.124 A 
HETATM    8  N3  UNL     1      32.958  15.780  42.079  1.00  0.00    -0.329 N 
ATOM      9  H3  UNL     1      32.664  14.952  42.597  1.00  0.00     0.168 HD
HETATM   10  C18 UNL     1      32.010  16.563  41.483  1.00  0.00     0.136 A 
HETATM   11  N4  UNL     1      30.671  16.149  41.638  1.00  0.00    -0.081 NA
ENDROOT
BRANCH   7  12
HETATM   12  N1  UNL     1      35.142  15.318  42.570  1.00  0.00    -0.375 N 
ATOM     13  H1  UNL     1      35.583  15.607  43.444  1.00  0.00     0.161 HD
BRANCH  12  14
HETATM   14  C7  UNL     1      35.501  14.039  41.942  1.00  0.00     0.123 C 
BRANCH  14  15
HETATM   15  C8  UNL     1      36.905  13.629  42.316  1.00  0.00     0.039 C 
BRANCH  15  16
HETATM   16  C9  UNL     1      37.360  12.636  41.278  1.00  0.00     0.124 C 
BRANCH  16  17
HETATM   17  N2  UNL     1      37.682  13.236  40.006  1.00  0.00    -0.361 N 
HETATM   18  C10 UNL     1      39.027  13.461  39.665  1.00  0.00     0.222 C 
HETATM   19  O1  UNL     1      39.941  13.145  40.450  1.00  0.00    -0.273 OA
ATOM     20  H2  UNL     1      36.938  13.496  39.357  1.00  0.00     0.162 HD
BRANCH  18  21
HETATM   21  C11 UNL     1      39.367  14.077  38.366  1.00  0.00     0.147 C 
BRANCH  21  22
HETATM   22  C12 UNL     1      39.701  15.534  38.562  1.00  0.00     0.034 A 
HETATM   23  C13 UNL     1      38.706  16.489  38.532  1.00  0.00     0.168 A 
HETATM   24  F1  UNL     1      37.440  16.069  38.325  1.00  0.00    -0.202 F 
HETATM   25  C14 UNL     1      38.988  17.847  38.708  1.00  0.00     0.197 A 
HETATM   26  F2  UNL     1      37.994  18.759  38.672  1.00  0.00    -0.199 F 
HETATM   27  C15 UNL     1      40.288  18.246  38.915  1.00  0.00     0.199 A 
HETATM   28  F3  UNL     1      40.585  19.574  39.089  1.00  0.00    -0.199 F 
HETATM   29  C16 UNL     1      41.274  17.286  38.944  1.00  0.00     0.197 A 
HETATM   30  F4  UNL     1      42.550  17.658  39.147  1.00  0.00    -0.199 F 
HETATM   31  C17 UNL     1      41.004  15.925  38.770  1.00  0.00     0.168 A 
HETATM   32  F5  UNL     1      42.010  15.003  38.804  1.00  0.00    -0.202 F 
ENDBRANCH  21  22
ENDBRANCH  18  21
ENDBRANCH  16  17
ENDBRANCH  15  16
ENDBRANCH  14  15
ENDBRANCH  12  14
ENDBRANCH   7  12
TORSDOF 7
ENDMDL
MODEL 3
REMARK VINA RESULT: -7.050857165      1.674      1.927
REMARK  7 active torsions:
REMARK  status: ('A' for Active; 'I' for Inactive)
REMARK    1  A    between atoms: C6_7  and  N1_8 
REMARK    2  A    between atoms: N1_8  and  C7_10 
REMARK    3  A    between atoms: C7_10  and  C8_11 
REMARK    4  A    between atoms: C8_11  and  C9_12 
REMARK    5  A    between atoms: C9_12  and  N2_13 
REMARK       I    between atoms: N2_13  and  C10_15 
REMARK    6  A    between atoms: C10_15  and  C11_17 
REMARK    7  A    between atoms: C11_17  and  C12_18 
ROOT
HETATM    1  C1  UNL     1      30.566  19.076  39.623  1.00  0.00     0.018 C 
HETATM    2  C2  UNL     1      31.501  18.454  40.088  1.00  0.00    -0.074 C 
HETATM    3  C3  UNL     1      32.598  17.726  40.661  1.00  0.00     0.059 A 
HETATM    4  C4  UNL     1      33.897  18.140  40.437  1.00  0.00     0.051 A 
HETATM    5  C5  UNL     1      34.926  17.392  41.023  1.00  0.00     0.079 A 
HETATM    6 CL1  UNL     1      36.604  17.831  40.800  1.00  0.00    -0.080 Cl
HETATM    7  C6  UNL     1      34.638  16.286  41.791  1.00  0.00     0.124 A 
HETATM    8  N3  UNL     1      33.364  15.921  41.982  1.00  0.00    -0.329 N 
ATOM      9  H3  UNL     1      33.163  15.100  42.553  1.00  0.00     0.168 HD
HETATM   10  C18 UNL     1      32.324  16.618  41.432  1.00  0.00     0.136 A 
HETATM   11  N4  UNL     1      31.030  16.129  41.709  1.00  0.00    -0.081 NA
ENDROOT
BRANCH   7  12
HETATM   12  N1  UNL     1      35.604  15.617  42.318  1.00  0.00    -0.375 N 
ATOM     13  H1  UNL     1      36.332  16.092  42.851  1.00  0.00     0.161 HD
BRANCH  12  14
HETATM   14  C7  UNL     1      35.642  14.159  42.138  1.00  0.00     0.123 C 
BRANCH  14  15
HETATM   15  C8  UNL     1      36.990  13.714  41.624  1.00  0.00     0.039 C 
BRANCH  15  16
HETATM   16  C9  UNL     1      36.756  13.094  40.271  1.00  0.00     0.124 C 
BRANCH  16  17
HETATM   17  N2  UNL     1      37.569  13.667  39.225  1.00  0.00    -0.361 N 
HETATM   18  C10 UNL     1      37.033  14.670  38.400  1.00  0.00     0.222 C 
HETATM   19  O1  UNL     1      35.864  15.070  38.564  1.00  0.00    -0.273 OA
ATOM     20  H2  UNL     1      38.527  13.345  39.085  1.00  0.00     0.162 HD
BRANCH  18  21
HETATM   21  C11 UNL     1      37.856  15.261  37.325  1.00  0.00     0.147 C 
BRANCH  21  22
HETATM   22  C12 UNL     1      38.037  16.737  37.569  1.00  0.00     0.034 A 
HETATM   23  C13 UNL     1      39.101  17.196  38.317  1.00  0.00     0.168 A 
HETATM   24  F1  UNL     1      39.961  16.280  38.811  1.00  0.00    -0.202 F 
HETATM   25  C14 UNL     1      39.292  18.559  38.561  1.00  0.00     0.197 A 
HETATM   26  F2  UNL     1      40.342  18.979  39.298  1.00  0.00    -0.199 F 
HETATM   27  C15 UNL     1      38.398  19.470  38.046  1.00  0.00     0.199 A 
HETATM   28  F3  UNL     1      38.568  20.812  38.275  1.00  0.00    -0.199 F 
HETATM   29  C16 UNL     1      37.340  19.002  37.300  1.00  0.00     0.197 A 
HETATM   30  F4  UNL     1      36.458  19.878  36.788  1.00  0.00    -0.199 F 
HETATM   31  C17 UNL     1      37.139  17.642  37.049  1.00  0.00     0.168 A 
HETATM   32  F5  UNL     1      36.076  17.217  36.305  1.00  0.00    -0.202 F 
ENDBRANCH  21  22
ENDBRANCH  18  21
ENDBRANCH  16  17
ENDBRANCH  15  16
ENDBRANCH  14  15
ENDBRANCH  12  14
ENDBRANCH   7  12
TORSDOF 7
ENDMDL
MODEL 4
REMARK VINA RESULT: -7.044335308      1.692      2.688
REMARK  7 active torsions:
REMARK  status: ('A' for Active; 'I' for Inactive)
REMARK    1  A    between atoms: C6_7  and  N1_8 
REMARK    2  A    between atoms: N1_8  and  C7_10 
REMARK    3  A    between atoms: C7_10  and  C8_11 
REMARK    4  A    between atoms: C8_11  and  C9_12 
REMARK    5  A    between atoms: C9_12  and  N2_13 
REMARK       I    between atoms: N2_13  and  C10_15 
REMARK    6  A    between atoms: C10_15  and  C11_17 
REMARK    7  A    between atoms: C11_17  and  C12_18 
ROOT
HETATM    1  C1  UNL     1      30.567  19.072  39.696  1.00  0.00     0.018 C 
HETATM    2  C2  UNL     1      31.494  18.431  40.150  1.00  0.00    -0.074 C 
HETATM    3  C3  UNL     1      32.582  17.680  40.710  1.00  0.00     0.059 A 
HETATM    4  C4  UNL     1      33.887  18.069  40.475  1.00  0.00     0.051 A 
HETATM    5  C5  UNL     1      34.907  17.300  41.048  1.00  0.00     0.079 A 
HETATM    6 CL1  UNL     1      36.591  17.708  40.810  1.00  0.00    -0.080 Cl
HETATM    7  C6  UNL     1      34.605  16.198  41.816  1.00  0.00     0.124 A 
HETATM    8  N3  UNL     1      33.326  15.856  42.018  1.00  0.00    -0.329 N 
ATOM      9  H3  UNL     1      33.116  15.038  42.589  1.00  0.00     0.168 HD
HETATM   10  C18 UNL     1      32.294  16.575  41.481  1.00  0.00     0.136 A 
HETATM   11  N4  UNL     1      30.994  16.110  41.769  1.00  0.00    -0.081 NA
ENDROOT
BRANCH   7  12
HETATM   12  N1  UNL     1      35.563  15.508  42.331  1.00  0.00    -0.375 N 
ATOM     13  H1  UNL     1      36.250  15.951  42.941  1.00  0.00     0.161 HD
BRANCH  12  14
HETATM   14  C7  UNL     1      35.653  14.074  42.026  1.00  0.00     0.123 C 
BRANCH  14  15
HETATM   15  C8  UNL     1      37.029  13.714  41.519  1.00  0.00     0.039 C 
BRANCH  15  16
HETATM   16  C9  UNL     1      36.840  13.058  40.176  1.00  0.00     0.124 C 
BRANCH  16  17
HETATM   17  N2  UNL     1      37.619  13.664  39.123  1.00  0.00    -0.361 N 
HETATM   18  C10 UNL     1      37.046  14.671  38.327  1.00  0.00     0.222 C 
HETATM   19  O1  UNL     1      35.875  15.047  38.524  1.00  0.00    -0.273 OA
ATOM     20  H2  UNL     1      38.579  13.363  38.956  1.00  0.00     0.162 HD
BRANCH  18  21
HETATM   21  C11 UNL     1      37.834  15.295  37.245  1.00  0.00     0.147 C 
BRANCH  21  22
HETATM   22  C12 UNL     1      38.021  16.764  37.526  1.00  0.00     0.034 A 
HETATM   23  C13 UNL     1      37.141  17.692  37.010  1.00  0.00     0.168 A 
HETATM   24  F1  UNL     1      36.119  17.234  36.255  1.00  0.00    -0.202 F 
HETATM   25  C14 UNL     1      37.291  19.060  37.254  1.00  0.00     0.197 A 
HETATM   26  F2  UNL     1      36.414  19.945  36.734  1.00  0.00    -0.199 F 
HETATM   27  C15 UNL     1      38.342  19.498  38.026  1.00  0.00     0.199 A 
HETATM   28  F3  UNL     1      38.507  20.837  38.276  1.00  0.00    -0.199 F 
HETATM   29  C16 UNL     1      39.215  18.564  38.538  1.00  0.00     0.197 A 
HETATM   30  F4  UNL     1      40.247  18.974  39.296  1.00  0.00    -0.199 F 
HETATM   31  C17 UNL     1      39.075  17.194  38.301  1.00  0.00     0.168 A 
HETATM   32  F5  UNL     1      39.962  16.299  38.826  1.00  0.00    -0.202 F 
ENDBRANCH  21  22
ENDBRANCH  18  21
ENDBRANCH  16  17
ENDBRANCH  15  16
ENDBRANCH  14  15
ENDBRANCH  12  14
ENDBRANCH   7  12
TORSDOF 7
ENDMDL
MODEL 5
REMARK VINA RESULT: -7.019864585      4.431      8.075
REMARK  7 active torsions:
REMARK  status: ('A' for Active; 'I' for Inactive)
REMARK    1  A    between atoms: C6_7  and  N1_8 
REMARK    2  A    between atoms: N1_8  and  C7_10 
REMARK    3  A    between atoms: C7_10  and  C8_11 
REMARK    4  A    between atoms: C8_11  and  C9_12 
REMARK    5  A    between atoms: C9_12  and  N2_13 
REMARK       I    between atoms: N2_13  and  C10_15 
REMARK    6  A    between atoms: C10_15  and  C11_17 
REMARK    7  A    between atoms: C11_17  and  C12_18 
ROOT
HETATM    1  C1  UNL     1      40.859  24.331  37.620  1.00  0.00     0.018 C 
HETATM    2  C2  UNL     1      40.588  23.150  37.521  1.00  0.00    -0.074 C 
HETATM    3  C3  UNL     1      40.276  21.757  37.378  1.00  0.00     0.059 A 
HETATM    4  C4  UNL     1      38.962  21.331  37.430  1.00  0.00     0.051 A 
HETATM    5  C5  UNL     1      38.717  19.960  37.284  1.00  0.00     0.079 A 
HETATM    6 CL1  UNL     1      37.091  19.320  37.335  1.00  0.00    -0.080 Cl
HETATM    7  C6  UNL     1      39.759  19.079  37.095  1.00  0.00     0.124 A 
HETATM    8  N3  UNL     1      41.018  19.536  37.051  1.00  0.00    -0.329 N 
ATOM      9  H3  UNL     1      41.780  18.873  36.911  1.00  0.00     0.168 HD
HETATM   10  C18 UNL     1      41.309  20.864  37.189  1.00  0.00     0.136 A 
HETATM   11  N4  UNL     1      42.673  21.214  37.124  1.00  0.00    -0.081 NA
ENDROOT
BRANCH   7  12
HETATM   12  N1  UNL     1      39.506  17.824  36.963  1.00  0.00    -0.375 N 
ATOM     13  H1  UNL     1      39.246  17.441  36.054  1.00  0.00     0.161 HD
BRANCH  12  14
HETATM   14  C7  UNL     1      39.595  16.951  38.141  1.00  0.00     0.123 C 
BRANCH  14  15
HETATM   15  C8  UNL     1      39.042  15.579  37.840  1.00  0.00     0.039 C 
BRANCH  15  16
HETATM   16  C9  UNL     1      37.547  15.664  38.014  1.00  0.00     0.124 C 
BRANCH  16  17
HETATM   17  N2  UNL     1      37.144  16.410  39.182  1.00  0.00    -0.361 N 
HETATM   18  C10 UNL     1      36.296  15.812  40.130  1.00  0.00     0.222 C 
HETATM   19  O1  UNL     1      35.892  14.644  39.972  1.00  0.00    -0.273 OA
ATOM     20  H2  UNL     1      37.472  17.366  39.319  1.00  0.00     0.162 HD
BRANCH  18  21
HETATM   21  C11 UNL     1      35.875  16.568  41.326  1.00  0.00     0.147 C 
BRANCH  21  22
HETATM   22  C12 UNL     1      34.384  16.787  41.296  1.00  0.00     0.034 A 
HETATM   23  C13 UNL     1      33.544  15.980  42.034  1.00  0.00     0.168 A 
HETATM   24  F1  UNL     1      34.107  15.001  42.774  1.00  0.00    -0.202 F 
HETATM   25  C14 UNL     1      32.158  16.159  42.023  1.00  0.00     0.197 A 
HETATM   26  F2  UNL     1      31.361  15.352  42.754  1.00  0.00    -0.199 F 
HETATM   27  C15 UNL     1      31.612  17.164  41.258  1.00  0.00     0.199 A 
HETATM   28  F3  UNL     1      30.254  17.356  41.233  1.00  0.00    -0.199 F 
HETATM   29  C16 UNL     1      32.458  17.965  40.526  1.00  0.00     0.197 A 
HETATM   30  F4  UNL     1      31.942  18.953  39.774  1.00  0.00    -0.199 F 
HETATM   31  C17 UNL     1      33.846  17.796  40.529  1.00  0.00     0.168 A 
HETATM   32  F5  UNL     1      34.652  18.611  39.788  1.00  0.00    -0.202 F 
ENDBRANCH  21  22
ENDBRANCH  18  21
ENDBRANCH  16  17
ENDBRANCH  15  16
ENDBRANCH  14  15
ENDBRANCH  12  14
ENDBRANCH   7  12
TORSDOF 7
ENDMDL
