MODEL 1
REMARK VINA RESULT: -7.110618626      0.000      0.000
REMARK  7 active torsions:
REMARK  status: ('A' for Active; 'I' for Inactive)
REMARK    1  A    between atoms: C5_6  and  N1_7 
REMARK    2  A    between atoms: N1_7  and  C6_9 
REMARK    3  A    between atoms: C6_9  and  C7_10 
REMARK    4  A    between atoms: C7_10  and  C8_11 
REMARK    5  A    between atoms: C8_11  and  N2_12 
REMARK       I    between atoms: N2_12  and  C9_14 
REMARK       I    between atoms: C9_14  and  N3_16 
REMARK    6  A    between atoms: N3_16  and  C10_18 
REMARK    7  A    between atoms: C10_18  and  C11_19 
ROOT
HETATM    1  N2  UNL     1      37.724  15.956  38.537  1.00  0.00    -0.343 N 
ATOM      2  H2  UNL     1      37.512  14.979  38.334  1.00  0.00     0.164 HD
HETATM    3  C9  UNL     1      37.003  16.655  39.541  1.00  0.00     0.320 C 
HETATM    4  O1  UNL     1      37.271  17.859  39.784  1.00  0.00    -0.247 OA
HETATM    5  N3  UNL     1      35.955  16.016  40.304  1.00  0.00    -0.318 N 
ATOM      6  H3  UNL     1      35.700  15.041  40.146  1.00  0.00     0.170 HD
ENDROOT
BRANCH   1   7
HETATM    7  C8  UNL     1      38.747  16.638  37.816  1.00  0.00     0.126 C 
BRANCH   7   8
HETATM    8  C7  UNL     1      40.126  16.417  38.365  1.00  0.00     0.039 C 
BRANCH   8   9
HETATM    9  C6  UNL     1      40.793  17.719  38.781  1.00  0.00     0.123 C 
BRANCH   9  10
HETATM   10  N1  UNL     1      39.871  18.774  38.565  1.00  0.00    -0.374 N 
ATOM     11  H1  UNL     1      38.883  18.534  38.650  1.00  0.00     0.161 HD
BRANCH  10  12
HETATM   12  C5  UNL     1      40.133  19.987  38.277  1.00  0.00     0.138 A 
HETATM   13  C4  UNL     1      39.221  20.782  37.612  1.00  0.00     0.081 A 
HETATM   14  C3  UNL     1      39.507  22.108  37.298  1.00  0.00     0.053 A 
HETATM   15 CL1  UNL     1      37.685  20.069  37.177  1.00  0.00    -0.080 Cl
HETATM   16  C2  UNL     1      40.728  22.642  37.655  1.00  0.00     0.023 A 
HETATM   17  C1  UNL     1      41.081  24.061  37.338  1.00  0.00     0.070 C 
HETATM   18  N5  UNL     1      41.580  21.825  38.299  1.00  0.00    -0.304 N 
HETATM   19  N4  UNL     1      41.306  20.555  38.601  1.00  0.00    -0.284 N 
ATOM     20  H5  UNL     1      42.489  22.199  38.572  1.00  0.00     0.186 HD
ATOM     21  H4  UNL     1      42.008  20.000  39.092  1.00  0.00     0.188 HD
ENDBRANCH  10  12
ENDBRANCH   9  10
ENDBRANCH   8   9
ENDBRANCH   7   8
ENDBRANCH   1   7
BRANCH   5  22
HETATM   22  C10 UNL     1      35.306  16.793  41.271  1.00  0.00     0.110 C 
BRANCH  22  23
HETATM   23  C11 UNL     1      33.896  17.075  41.135  1.00  0.00     0.063 A 
HETATM   24  C12 UNL     1      33.020  16.234  41.864  1.00  0.00     0.172 A 
HETATM   25  F1  UNL     1      33.539  15.250  42.622  1.00  0.00    -0.202 F 
HETATM   26  C13 UNL     1      31.664  16.378  41.835  1.00  0.00     0.197 A 
HETATM   27  F2  UNL     1      30.881  15.524  42.569  1.00  0.00    -0.199 F 
HETATM   28  C14 UNL     1      31.101  17.374  41.069  1.00  0.00     0.199 A 
HETATM   29  F3  UNL     1      29.744  17.496  41.058  1.00  0.00    -0.199 F 
HETATM   30  C15 UNL     1      31.903  18.216  40.344  1.00  0.00     0.197 A 
HETATM   31  F4  UNL     1      31.346  19.205  39.584  1.00  0.00    -0.199 F 
HETATM   32  C16 UNL     1      33.291  18.040  40.398  1.00  0.00     0.172 A 
HETATM   33  F5  UNL     1      33.969  18.943  39.629  1.00  0.00    -0.202 F 
ENDBRANCH  22  23
ENDBRANCH   5  22
TORSDOF 7
ENDMDL
MODEL 2
REMARK VINA RESULT: -7.081496733      0.371      2.041
REMARK  7 active torsions:
REMARK  status: ('A' for Active; 'I' for Inactive)
REMARK    1  A    between atoms: C5_6  and  N1_7 
REMARK    2  A    between atoms: N1_7  and  C6_9 
REMARK    3  A    between atoms: C6_9  and  C7_10 
REMARK    4  A    between atoms: C7_10  and  C8_11 
REMARK    5  A    between atoms: C8_11  and  N2_12 
REMARK       I    between atoms: N2_12  and  C9_14 
REMARK       I    between atoms: C9_14  and  N3_16 
REMARK    6  A    between atoms: N3_16  and  C10_18 
REMARK    7  A    between atoms: C10_18  and  C11_19 
ROOT
HETATM    1  N2  UNL     1      38.087  16.079  38.615  1.00  0.00    -0.343 N 
ATOM      2  H2  UNL     1      37.899  15.077  38.575  1.00  0.00     0.164 HD
HETATM    3  C9  UNL     1      37.303  16.925  39.443  1.00  0.00     0.320 C 
HETATM    4  O1  UNL     1      37.544  18.158  39.487  1.00  0.00    -0.247 OA
HETATM    5  N3  UNL     1      36.224  16.405  40.252  1.00  0.00    -0.318 N 
ATOM      6  H3  UNL     1      35.989  15.412  40.252  1.00  0.00     0.170 HD
ENDROOT
BRANCH   1   7
HETATM    7  C8  UNL     1      39.139  16.648  37.840  1.00  0.00     0.126 C 
BRANCH   7   8
HETATM    8  C7  UNL     1      40.478  16.613  38.517  1.00  0.00     0.039 C 
BRANCH   8   9
HETATM    9  C6  UNL     1      41.008  18.008  38.812  1.00  0.00     0.123 C 
BRANCH   9  10
HETATM   10  N1  UNL     1      40.161  18.945  38.168  1.00  0.00    -0.374 N 
ATOM     11  H1  UNL     1      39.316  18.568  37.738  1.00  0.00     0.161 HD
BRANCH  10  12
HETATM   12  C5  UNL     1      40.333  20.203  38.063  1.00  0.00     0.138 A 
HETATM   13  C4  UNL     1      39.411  21.005  37.421  1.00  0.00     0.081 A 
HETATM   14  C3  UNL     1      39.598  22.380  37.307  1.00  0.00     0.053 A 
HETATM   15 CL1  UNL     1      37.989  20.236  36.754  1.00  0.00    -0.080 Cl
HETATM   16  C2  UNL     1      40.730  22.957  37.844  1.00  0.00     0.023 A 
HETATM   17  C1  UNL     1      40.976  24.429  37.746  1.00  0.00     0.070 C 
HETATM   18  N5  UNL     1      41.597  22.132  38.457  1.00  0.00    -0.304 N 
HETATM   19  N4  UNL     1      41.417  20.815  38.568  1.00  0.00    -0.284 N 
ATOM     20  H5  UNL     1      42.441  22.537  38.861  1.00  0.00     0.186 HD
ATOM     21  H4  UNL     1      42.123  20.257  39.049  1.00  0.00     0.188 HD
ENDBRANCH  10  12
ENDBRANCH   9  10
ENDBRANCH   8   9
ENDBRANCH   7   8
ENDBRANCH   1   7
BRANCH   5  22
HETATM   22  C10 UNL     1      35.513  17.324  41.034  1.00  0.00     0.110 C 
BRANCH  22  23
HETATM   23  C11 UNL     1      34.076  17.220  41.131  1.00  0.00     0.063 A 
HETATM   24  C12 UNL     1      33.333  18.151  40.365  1.00  0.00     0.172 A 
HETATM   25  F1  UNL     1      33.991  19.052  39.610  1.00  0.00    -0.202 F 
HETATM   26  C13 UNL     1      31.969  18.176  40.353  1.00  0.00     0.197 A 
HETATM   27  F2  UNL     1      31.319  19.108  39.586  1.00  0.00    -0.199 F 
HETATM   28  C14 UNL     1      31.265  17.269  41.114  1.00  0.00     0.199 A 
HETATM   29  F3  UNL     1      29.904  17.317  41.085  1.00  0.00    -0.199 F 
HETATM   30  C15 UNL     1      31.935  16.347  41.874  1.00  0.00     0.197 A 
HETATM   31  F4  UNL     1      31.238  15.446  42.628  1.00  0.00    -0.199 F 
HETATM   32  C16 UNL     1      33.335  16.350  41.860  1.00  0.00     0.172 A 
HETATM   33  F5  UNL     1      33.873  15.382  42.660  1.00  0.00    -0.202 F 
ENDBRANCH  22  23
ENDBRANCH   5  22
TORSDOF 7
ENDMDL
MODEL 3
REMARK VINA RESULT: -6.919121154      1.929      3.552
REMARK  7 active torsions:
REMARK  status: ('A' for Active; 'I' for Inactive)
REMARK    1  A    between atoms: C5_6  and  N1_7 
REMARK    2  A    between atoms: N1_7  and  C6_9 
REMARK    3  A    between atoms: C6_9  and  C7_10 
REMARK    4  A    between atoms: C7_10  and  C8_11 
REMARK    5  A    between atoms: C8_11  and  N2_12 
REMARK       I    between atoms: N2_12  and  C9_14 
REMARK       I    between atoms: C9_14  and  N3_16 
REMARK    6  A    between atoms: N3_16  and  C10_18 
REMARK    7  A    between atoms: C10_18  and  C11_19 
ROOT
HETATM    1  N2  UNL     1      37.553  19.936  37.581  1.00  0.00    -0.343 N 
ATOM      2  H2  UNL     1      36.841  20.660  37.484  1.00  0.00     0.164 HD
HETATM    3  C9  UNL     1      37.440  18.947  38.594  1.00  0.00     0.320 C 
HETATM    4  O1  UNL     1      38.321  18.058  38.705  1.00  0.00    -0.247 OA
HETATM    5  N3  UNL     1      36.325  18.930  39.514  1.00  0.00    -0.318 N 
ATOM      6  H3  UNL     1      35.583  19.629  39.465  1.00  0.00     0.170 HD
ENDROOT
BRANCH   1   7
HETATM    7  C8  UNL     1      38.674  19.903  36.702  1.00  0.00     0.126 C 
BRANCH   7   8
HETATM    8  C7  UNL     1      39.409  21.208  36.606  1.00  0.00     0.039 C 
BRANCH   8   9
HETATM    9  C6  UNL     1      40.010  21.627  37.939  1.00  0.00     0.123 C 
BRANCH   9  10
HETATM   10  N1  UNL     1      41.278  21.006  38.064  1.00  0.00    -0.374 N 
ATOM     11  H1  UNL     1      42.090  21.617  37.975  1.00  0.00     0.161 HD
BRANCH  10  12
HETATM   12  C5  UNL     1      41.522  19.774  38.275  1.00  0.00     0.138 A 
HETATM   13  C4  UNL     1      42.192  19.003  37.347  1.00  0.00     0.081 A 
HETATM   14  C3  UNL     1      42.459  17.656  37.577  1.00  0.00     0.053 A 
HETATM   15 CL1  UNL     1      42.701  19.776  35.864  1.00  0.00    -0.080 Cl
HETATM   16  C2  UNL     1      42.044  17.075  38.758  1.00  0.00     0.023 A 
HETATM   17  C1  UNL     1      42.307  15.631  39.051  1.00  0.00     0.070 C 
HETATM   18  N5  UNL     1      41.395  17.868  39.627  1.00  0.00    -0.304 N 
HETATM   19  N4  UNL     1      41.140  19.159  39.407  1.00  0.00    -0.284 N 
ATOM     20  H5  UNL     1      41.079  17.460  40.506  1.00  0.00     0.186 HD
ATOM     21  H4  UNL     1      40.641  19.694  40.118  1.00  0.00     0.188 HD
ENDBRANCH  10  12
ENDBRANCH   9  10
ENDBRANCH   8   9
ENDBRANCH   7   8
ENDBRANCH   1   7
BRANCH   5  22
HETATM   22  C10 UNL     1      36.308  17.912  40.475  1.00  0.00     0.110 C 
BRANCH  22  23
HETATM   23  C11 UNL     1      35.045  17.373  40.923  1.00  0.00     0.063 A 
HETATM   24  C12 UNL     1      35.118  16.236  41.765  1.00  0.00     0.172 A 
HETATM   25  F1  UNL     1      36.327  15.739  42.090  1.00  0.00    -0.202 F 
HETATM   26  C13 UNL     1      34.012  15.617  42.267  1.00  0.00     0.197 A 
HETATM   27  F2  UNL     1      34.162  14.519  43.076  1.00  0.00    -0.199 F 
HETATM   28  C14 UNL     1      32.760  16.098  41.953  1.00  0.00     0.199 A 
HETATM   29  F3  UNL     1      31.672  15.460  42.467  1.00  0.00    -0.199 F 
HETATM   30  C15 UNL     1      32.632  17.195  41.142  1.00  0.00     0.197 A 
HETATM   31  F4  UNL     1      31.392  17.675  40.831  1.00  0.00    -0.199 F 
HETATM   32  C16 UNL     1      33.790  17.807  40.646  1.00  0.00     0.172 A 
HETATM   33  F5  UNL     1      33.520  18.886  39.853  1.00  0.00    -0.202 F 
ENDBRANCH  22  23
ENDBRANCH   5  22
TORSDOF 7
ENDMDL
MODEL 4
REMARK VINA RESULT: -6.903516822      2.551      4.505
REMARK  7 active torsions:
REMARK  status: ('A' for Active; 'I' for Inactive)
REMARK    1  A    between atoms: C5_6  and  N1_7 
REMARK    2  A    between atoms: N1_7  and  C6_9 
REMARK    3  A    between atoms: C6_9  and  C7_10 
REMARK    4  A    between atoms: C7_10  and  C8_11 
REMARK    5  A    between atoms: C8_11  and  N2_12 
REMARK       I    between atoms: N2_12  and  C9_14 
REMARK       I    between atoms: C9_14  and  N3_16 
REMARK    6  A    between atoms: N3_16  and  C10_18 
REMARK    7  A    between atoms: C10_18  and  C11_19 
ROOT
HETATM    1  N2  UNL     1      38.305  20.925  37.773  1.00  0.00    -0.343 N 
ATOM      2  H2  UNL     1      37.861  21.634  38.357  1.00  0.00     0.164 HD
HETATM    3  C9  UNL     1      37.821  19.590  37.769  1.00  0.00     0.320 C 
HETATM    4  O1  UNL     1      38.374  18.723  37.046  1.00  0.00    -0.247 OA
HETATM    5  N3  UNL     1      36.694  19.190  38.582  1.00  0.00    -0.318 N 
ATOM      6  H3  UNL     1      36.210  19.856  39.185  1.00  0.00     0.170 HD
ENDROOT
BRANCH   1   7
HETATM    7  C8  UNL     1      39.420  21.261  36.951  1.00  0.00     0.126 C 
BRANCH   7   8
HETATM    8  C7  UNL     1      40.672  21.564  37.721  1.00  0.00     0.039 C 
BRANCH   8   9
HETATM    9  C6  UNL     1      41.863  20.762  37.218  1.00  0.00     0.123 C 
BRANCH   9  10
HETATM   10  N1  UNL     1      41.444  19.419  37.039  1.00  0.00    -0.374 N 
ATOM     11  H1  UNL     1      40.550  19.285  36.565  1.00  0.00     0.161 HD
BRANCH  10  12
HETATM   12  C5  UNL     1      42.054  18.361  37.399  1.00  0.00     0.138 A 
HETATM   13  C4  UNL     1      41.816  17.774  38.626  1.00  0.00     0.081 A 
HETATM   14  C3  UNL     1      42.482  16.617  39.021  1.00  0.00     0.053 A 
HETATM   15 CL1  UNL     1      40.641  18.534  39.676  1.00  0.00    -0.080 Cl
HETATM   16  C2  UNL     1      43.403  16.042  38.169  1.00  0.00     0.023 A 
HETATM   17  C1  UNL     1      44.145  14.799  38.548  1.00  0.00     0.070 C 
HETATM   18  N5  UNL     1      43.599  16.652  36.987  1.00  0.00    -0.304 N 
HETATM   19  N4  UNL     1      42.960  17.760  36.609  1.00  0.00    -0.284 N 
ATOM     20  H5  UNL     1      44.276  16.245  36.343  1.00  0.00     0.186 HD
ATOM     21  H4  UNL     1      43.165  18.163  35.695  1.00  0.00     0.188 HD
ENDBRANCH  10  12
ENDBRANCH   9  10
ENDBRANCH   8   9
ENDBRANCH   7   8
ENDBRANCH   1   7
BRANCH   5  22
HETATM   22  C10 UNL     1      36.296  17.851  38.505  1.00  0.00     0.110 C 
BRANCH  22  23
HETATM   23  C11 UNL     1      35.612  17.242  39.622  1.00  0.00     0.063 A 
HETATM   24  C12 UNL     1      36.194  16.058  40.137  1.00  0.00     0.172 A 
HETATM   25  F1  UNL     1      37.320  15.583  39.571  1.00  0.00    -0.202 F 
HETATM   26  C13 UNL     1      35.664  15.372  41.189  1.00  0.00     0.197 A 
HETATM   27  F2  UNL     1      36.284  14.232  41.632  1.00  0.00    -0.199 F 
HETATM   28  C14 UNL     1      34.513  15.830  41.791  1.00  0.00     0.199 A 
HETATM   29  F3  UNL     1      34.004  15.125  42.839  1.00  0.00    -0.199 F 
HETATM   30  C15 UNL     1      33.908  16.971  41.332  1.00  0.00     0.197 A 
HETATM   31  F4  UNL     1      32.767  17.427  41.927  1.00  0.00    -0.199 F 
HETATM   32  C16 UNL     1      34.482  17.650  40.250  1.00  0.00     0.172 A 
HETATM   33  F5  UNL     1      33.779  18.768  39.896  1.00  0.00    -0.202 F 
ENDBRANCH  22  23
ENDBRANCH   5  22
TORSDOF 7
ENDMDL
MODEL 5
REMARK VINA RESULT: -6.793561245      2.122      2.679
REMARK  7 active torsions:
REMARK  status: ('A' for Active; 'I' for Inactive)
REMARK    1  A    between atoms: C5_6  and  N1_7 
REMARK    2  A    between atoms: N1_7  and  C6_9 
REMARK    3  A    between atoms: C6_9  and  C7_10 
REMARK    4  A    between atoms: C7_10  and  C8_11 
REMARK    5  A    between atoms: C8_11  and  N2_12 
REMARK       I    between atoms: N2_12  and  C9_14 
REMARK       I    between atoms: C9_14  and  N3_16 
REMARK    6  A    between atoms: N3_16  and  C10_18 
REMARK    7  A    between atoms: C10_18  and  C11_19 
ROOT
HETATM    1  N2  UNL     1      40.680  15.347  38.426  1.00  0.00    -0.343 N 
ATOM      2  H2  UNL     1      41.075  14.660  39.067  1.00  0.00     0.164 HD
HETATM    3  C9  UNL     1      39.273  15.453  38.263  1.00  0.00     0.320 C 
HETATM    4  O1  UNL     1      38.795  16.304  37.470  1.00  0.00    -0.247 OA
HETATM    5  N3  UNL     1      38.360  14.602  38.992  1.00  0.00    -0.318 N 
ATOM      6  H3  UNL     1      38.697  13.897  39.648  1.00  0.00     0.170 HD
ENDROOT
BRANCH   1   7
HETATM    7  C8  UNL     1      41.531  16.213  37.680  1.00  0.00     0.126 C 
BRANCH   7   8
HETATM    8  C7  UNL     1      42.244  17.233  38.520  1.00  0.00     0.039 C 
BRANCH   8   9
HETATM    9  C6  UNL     1      41.277  18.117  39.292  1.00  0.00     0.123 C 
BRANCH   9  10
HETATM   10  N1  UNL     1      40.534  18.879  38.354  1.00  0.00    -0.374 N 
ATOM     11  H1  UNL     1      39.900  18.356  37.750  1.00  0.00     0.161 HD
BRANCH  10  12
HETATM   12  C5  UNL     1      40.566  20.140  38.180  1.00  0.00     0.138 A 
HETATM   13  C4  UNL     1      39.507  20.815  37.607  1.00  0.00     0.081 A 
HETATM   14  C3  UNL     1      39.542  22.194  37.416  1.00  0.00     0.053 A 
HETATM   15 CL1  UNL     1      38.111  19.879  37.127  1.00  0.00    -0.080 Cl
HETATM   16  C2  UNL     1      40.659  22.904  37.806  1.00  0.00     0.023 A 
HETATM   17  C1  UNL     1      40.743  24.387  37.621  1.00  0.00     0.070 C 
HETATM   18  N5  UNL     1      41.662  22.200  38.358  1.00  0.00    -0.304 N 
HETATM   19  N4  UNL     1      41.628  20.879  38.541  1.00  0.00    -0.284 N 
ATOM     20  H5  UNL     1      42.497  22.705  38.652  1.00  0.00     0.186 HD
ATOM     21  H4  UNL     1      42.432  20.417  38.967  1.00  0.00     0.188 HD
ENDBRANCH  10  12
ENDBRANCH   9  10
ENDBRANCH   8   9
ENDBRANCH   7   8
ENDBRANCH   1   7
BRANCH   5  22
HETATM   22  C10 UNL     1      36.992  14.788  38.760  1.00  0.00     0.110 C 
BRANCH  22  23
HETATM   23  C11 UNL     1      36.248  15.723  39.572  1.00  0.00     0.063 A 
HETATM   24  C12 UNL     1      35.958  15.305  40.893  1.00  0.00     0.172 A 
HETATM   25  F1  UNL     1      36.382  14.095  41.305  1.00  0.00    -0.202 F 
HETATM   26  C13 UNL     1      35.265  16.079  41.778  1.00  0.00     0.197 A 
HETATM   27  F2  UNL     1      35.023  15.605  43.042  1.00  0.00    -0.199 F 
HETATM   28  C14 UNL     1      34.817  17.322  41.389  1.00  0.00     0.199 A 
HETATM   29  F3  UNL     1      34.127  18.073  42.292  1.00  0.00    -0.199 F 
HETATM   30  C15 UNL     1      35.070  17.775  40.121  1.00  0.00     0.197 A 
HETATM   31  F4  UNL     1      34.627  19.007  39.734  1.00  0.00    -0.199 F 
HETATM   32  C16 UNL     1      35.785  16.954  39.241  1.00  0.00     0.172 A 
HETATM   33  F5  UNL     1      35.966  17.526  38.013  1.00  0.00    -0.202 F 
ENDBRANCH  22  23
ENDBRANCH   5  22
TORSDOF 7
ENDMDL
