MODEL 1
REMARK VINA RESULT: -7.512722870      0.000      0.000
REMARK  9 active torsions:
REMARK  status: ('A' for Active; 'I' for Inactive)
REMARK    1  A    between atoms: C6_8  and  C7_9 
REMARK    2  A    between atoms: C7_9  and  N1_10 
REMARK    3  A    between atoms: N1_10  and  C8_12 
REMARK    4  A    between atoms: C9_15  and  N3_16 
REMARK    5  A    between atoms: N3_16  and  C10_18 
REMARK    6  A    between atoms: C10_18  and  C11_19 
REMARK    7  A    between atoms: N5_24  and  C13_26 
REMARK    8  A    between atoms: C13_26  and  C14_27 
REMARK    9  A    between atoms: C14_27  and  C15_28 
ROOT
HETATM    1  C8  UNL     1      37.951  19.308  38.258  1.00  0.00     0.707 A 
HETATM    2  N2  UNL     1      38.935  18.528  38.789  1.00  0.00    -0.022 N 
ATOM      3  H2  UNL     1      38.723  17.583  39.109  1.00  0.00     0.203 HD
HETATM    4  C9  UNL     1      40.176  19.005  38.887  1.00  0.00     0.707 A 
HETATM    5  N4  UNL     1      40.392  20.258  38.447  1.00  0.00    -0.022 N 
ATOM      6  H4  UNL     1      41.342  20.623  38.522  1.00  0.00     0.203 HD
HETATM    7  C12 UNL     1      39.466  21.061  37.920  1.00  0.00     0.707 A 
HETATM    8  N5  UNL     1      39.666  22.262  37.496  1.00  0.00    -0.225 N 
ATOM      9  H5  UNL     1      38.889  22.796  37.108  1.00  0.00     0.177 HD
HETATM   10  N6  UNL     1      38.198  20.549  37.829  1.00  0.00    -0.022 N 
ATOM     11  H6  UNL     1      37.446  21.113  37.435  1.00  0.00     0.203 HD
ENDROOT
BRANCH   1  12
HETATM   12  N1  UNL     1      36.758  18.839  38.166  1.00  0.00    -0.221 N 
ATOM     13  H1  UNL     1      36.000  19.488  37.954  1.00  0.00     0.178 HD
BRANCH  12  14
HETATM   14  C7  UNL     1      36.434  17.450  38.343  1.00  0.00     0.180 C 
BRANCH  14  15
HETATM   15  C6  UNL     1      35.869  17.183  39.701  1.00  0.00     0.000 A 
HETATM   16  C1  UNL     1      36.185  15.995  40.338  1.00  0.00     0.145 A 
HETATM   17  F1  UNL     1      37.011  15.103  39.696  1.00  0.00    -0.204 F 
HETATM   18  C2  UNL     1      35.673  15.730  41.583  1.00  0.00     0.073 A 
HETATM   19 CL1  UNL     1      36.085  14.214  42.382  1.00  0.00    -0.081 Cl
HETATM   20  C3  UNL     1      34.839  16.615  42.248  1.00  0.00     0.027 A 
HETATM   21  C4  UNL     1      34.535  17.794  41.597  1.00  0.00     0.002 A 
HETATM   22  C5  UNL     1      35.043  18.082  40.332  1.00  0.00     0.012 A 
ENDBRANCH  14  15
ENDBRANCH  12  14
ENDBRANCH   1  12
BRANCH   4  23
HETATM   23  N3  UNL     1      41.166  18.348  39.371  1.00  0.00    -0.224 N 
ATOM     24  H3  UNL     1      41.219  18.292  40.388  1.00  0.00     0.177 HD
BRANCH  23  25
HETATM   25  C10 UNL     1      42.193  17.695  38.651  1.00  0.00     0.153 C 
BRANCH  25  26
HETATM   26  C11 UNL     1      41.861  16.198  38.604  1.00  0.00     0.135 C 
HETATM   27 CL2  UNL     1      42.901  15.384  39.782  1.00  0.00    -0.129 Cl
ENDBRANCH  25  26
ENDBRANCH  23  25
ENDBRANCH   4  23
BRANCH   8  28
HETATM   28  C13 UNL     1      40.976  22.859  37.563  1.00  0.00     0.147 C 
BRANCH  28  29
HETATM   29  C14 UNL     1      40.835  24.373  37.419  1.00  0.00     0.137 C 
BRANCH  29  30
HETATM   30  C15 UNL     1      41.116  25.027  38.734  1.00  0.00     0.389 C 
HETATM   31  F2  UNL     1      39.963  25.427  39.380  1.00  0.00    -0.171 F 
HETATM   32  F3  UNL     1      41.976  26.098  38.523  1.00  0.00    -0.171 F 
HETATM   33  F4  UNL     1      41.753  24.133  39.604  1.00  0.00    -0.171 F 
ENDBRANCH  29  30
ENDBRANCH  28  29
ENDBRANCH   8  28
TORSDOF 9
ENDMDL
MODEL 2
REMARK VINA RESULT: -7.511328475      3.647      4.613
REMARK  9 active torsions:
REMARK  status: ('A' for Active; 'I' for Inactive)
REMARK    1  A    between atoms: C6_8  and  C7_9 
REMARK    2  A    between atoms: C7_9  and  N1_10 
REMARK    3  A    between atoms: N1_10  and  C8_12 
REMARK    4  A    between atoms: C9_15  and  N3_16 
REMARK    5  A    between atoms: N3_16  and  C10_18 
REMARK    6  A    between atoms: C10_18  and  C11_19 
REMARK    7  A    between atoms: N5_24  and  C13_26 
REMARK    8  A    between atoms: C13_26  and  C14_27 
REMARK    9  A    between atoms: C14_27  and  C15_28 
ROOT
HETATM    1  C8  UNL     1      36.632  19.266  37.885  1.00  0.00     0.707 A 
HETATM    2  N2  UNL     1      36.040  19.714  36.742  1.00  0.00    -0.022 N 
ATOM      3  H2  UNL     1      35.128  19.354  36.463  1.00  0.00     0.203 HD
HETATM    4  C9  UNL     1      36.659  20.624  35.990  1.00  0.00     0.707 A 
HETATM    5  N4  UNL     1      37.860  21.060  36.411  1.00  0.00    -0.022 N 
ATOM      6  H4  UNL     1      38.334  21.756  35.836  1.00  0.00     0.203 HD
HETATM    7  C12 UNL     1      38.482  20.655  37.521  1.00  0.00     0.707 A 
HETATM    8  N5  UNL     1      39.633  21.068  37.930  1.00  0.00    -0.225 N 
ATOM      9  H5  UNL     1      40.023  20.695  38.795  1.00  0.00     0.177 HD
HETATM   10  N6  UNL     1      37.827  19.719  38.277  1.00  0.00    -0.022 N 
ATOM     11  H6  UNL     1      38.250  19.369  39.136  1.00  0.00     0.203 HD
ENDROOT
BRANCH   1  12
HETATM   12  N1  UNL     1      36.028  18.390  38.605  1.00  0.00    -0.221 N 
ATOM     13  H1  UNL     1      35.461  17.685  38.132  1.00  0.00     0.178 HD
BRANCH  12  14
HETATM   14  C7  UNL     1      36.105  18.348  40.040  1.00  0.00     0.180 C 
BRANCH  14  15
HETATM   15  C6  UNL     1      34.964  17.589  40.634  1.00  0.00     0.000 A 
HETATM   16  C1  UNL     1      33.675  18.051  40.437  1.00  0.00     0.145 A 
HETATM   17  F1  UNL     1      33.491  19.196  39.698  1.00  0.00    -0.204 F 
HETATM   18  C2  UNL     1      32.614  17.369  40.978  1.00  0.00     0.073 A 
HETATM   19 CL1  UNL     1      30.977  17.970  40.718  1.00  0.00    -0.081 Cl
HETATM   20  C3  UNL     1      32.776  16.213  41.726  1.00  0.00     0.027 A 
HETATM   21  C4  UNL     1      34.069  15.767  41.911  1.00  0.00     0.002 A 
HETATM   22  C5  UNL     1      35.161  16.446  41.372  1.00  0.00     0.012 A 
ENDBRANCH  14  15
ENDBRANCH  12  14
ENDBRANCH   1  12
BRANCH   4  23
HETATM   23  N3  UNL     1      36.183  21.105  34.900  1.00  0.00    -0.224 N 
ATOM     24  H3  UNL     1      36.121  22.122  34.842  1.00  0.00     0.177 HD
BRANCH  23  25
HETATM   25  C10 UNL     1      35.736  20.383  33.770  1.00  0.00     0.153 C 
BRANCH  25  26
HETATM   26  C11 UNL     1      35.575  21.372  32.608  1.00  0.00     0.135 C 
HETATM   27 CL2  UNL     1      35.175  22.950  33.301  1.00  0.00    -0.129 Cl
ENDBRANCH  25  26
ENDBRANCH  23  25
ENDBRANCH   4  23
BRANCH   8  28
HETATM   28  C13 UNL     1      40.373  22.051  37.180  1.00  0.00     0.147 C 
BRANCH  28  29
HETATM   29  C14 UNL     1      41.147  22.934  38.156  1.00  0.00     0.137 C 
BRANCH  29  30
HETATM   30  C15 UNL     1      40.764  24.365  37.944  1.00  0.00     0.389 C 
HETATM   31  F2  UNL     1      40.044  24.879  39.005  1.00  0.00    -0.171 F 
HETATM   32  F3  UNL     1      40.051  24.462  36.755  1.00  0.00    -0.171 F 
HETATM   33  F4  UNL     1      41.903  25.169  37.827  1.00  0.00    -0.171 F 
ENDBRANCH  29  30
ENDBRANCH  28  29
ENDBRANCH   8  28
TORSDOF 9
ENDMDL
MODEL 3
REMARK VINA RESULT: -7.495214465      3.343      4.306
REMARK  9 active torsions:
REMARK  status: ('A' for Active; 'I' for Inactive)
REMARK    1  A    between atoms: C6_8  and  C7_9 
REMARK    2  A    between atoms: C7_9  and  N1_10 
REMARK    3  A    between atoms: N1_10  and  C8_12 
REMARK    4  A    between atoms: C9_15  and  N3_16 
REMARK    5  A    between atoms: N3_16  and  C10_18 
REMARK    6  A    between atoms: C10_18  and  C11_19 
REMARK    7  A    between atoms: N5_24  and  C13_26 
REMARK    8  A    between atoms: C13_26  and  C14_27 
REMARK    9  A    between atoms: C14_27  and  C15_28 
ROOT
HETATM    1  C8  UNL     1      36.652  19.269  37.829  1.00  0.00     0.707 A 
HETATM    2  N2  UNL     1      36.067  19.738  36.690  1.00  0.00    -0.022 N 
ATOM      3  H2  UNL     1      35.160  19.377  36.394  1.00  0.00     0.203 HD
HETATM    4  C9  UNL     1      36.686  20.669  35.965  1.00  0.00     0.707 A 
HETATM    5  N4  UNL     1      37.879  21.105  36.407  1.00  0.00    -0.022 N 
ATOM      6  H4  UNL     1      38.352  21.817  35.852  1.00  0.00     0.203 HD
HETATM    7  C12 UNL     1      38.494  20.679  37.513  1.00  0.00     0.707 A 
HETATM    8  N5  UNL     1      39.637  21.092  37.942  1.00  0.00    -0.225 N 
ATOM      9  H5  UNL     1      40.023  20.703  38.802  1.00  0.00     0.177 HD
HETATM   10  N6  UNL     1      37.839  19.722  38.241  1.00  0.00    -0.022 N 
ATOM     11  H6  UNL     1      38.257  19.356  39.097  1.00  0.00     0.203 HD
ENDROOT
BRANCH   1  12
HETATM   12  N1  UNL     1      36.047  18.372  38.523  1.00  0.00    -0.221 N 
ATOM     13  H1  UNL     1      35.503  17.665  38.028  1.00  0.00     0.178 HD
BRANCH  12  14
HETATM   14  C7  UNL     1      36.096  18.310  39.958  1.00  0.00     0.180 C 
BRANCH  14  15
HETATM   15  C6  UNL     1      34.838  17.745  40.531  1.00  0.00     0.000 A 
HETATM   16  C1  UNL     1      34.918  16.669  41.398  1.00  0.00     0.145 A 
HETATM   17  F1  UNL     1      36.159  16.160  41.702  1.00  0.00    -0.204 F 
HETATM   18  C2  UNL     1      33.773  16.133  41.932  1.00  0.00     0.073 A 
HETATM   19 CL1  UNL     1      33.893  14.764  43.035  1.00  0.00    -0.081 Cl
HETATM   20  C3  UNL     1      32.513  16.631  41.639  1.00  0.00     0.027 A 
HETATM   21  C4  UNL     1      32.452  17.704  40.773  1.00  0.00     0.002 A 
HETATM   22  C5  UNL     1      33.603  18.262  40.219  1.00  0.00     0.012 A 
ENDBRANCH  14  15
ENDBRANCH  12  14
ENDBRANCH   1  12
BRANCH   4  23
HETATM   23  N3  UNL     1      36.216  21.171  34.881  1.00  0.00    -0.224 N 
ATOM     24  H3  UNL     1      36.217  22.189  34.815  1.00  0.00     0.177 HD
BRANCH  23  25
HETATM   25  C10 UNL     1      35.697  20.470  33.769  1.00  0.00     0.153 C 
BRANCH  25  26
HETATM   26  C11 UNL     1      35.545  21.463  32.610  1.00  0.00     0.135 C 
HETATM   27 CL2  UNL     1      35.201  23.052  33.311  1.00  0.00    -0.129 Cl
ENDBRANCH  25  26
ENDBRANCH  23  25
ENDBRANCH   4  23
BRANCH   8  28
HETATM   28  C13 UNL     1      40.377  22.097  37.222  1.00  0.00     0.147 C 
BRANCH  28  29
HETATM   29  C14 UNL     1      41.119  22.977  38.225  1.00  0.00     0.137 C 
BRANCH  29  30
HETATM   30  C15 UNL     1      40.759  24.410  37.993  1.00  0.00     0.389 C 
HETATM   31  F2  UNL     1      40.037  24.948  39.041  1.00  0.00    -0.171 F 
HETATM   32  F3  UNL     1      40.059  24.503  36.796  1.00  0.00    -0.171 F 
HETATM   33  F4  UNL     1      41.911  25.196  37.877  1.00  0.00    -0.171 F 
ENDBRANCH  29  30
ENDBRANCH  28  29
ENDBRANCH   8  28
TORSDOF 9
ENDMDL
MODEL 4
REMARK VINA RESULT: -7.200987937      3.672      5.581
REMARK  9 active torsions:
REMARK  status: ('A' for Active; 'I' for Inactive)
REMARK    1  A    between atoms: C6_8  and  C7_9 
REMARK    2  A    between atoms: C7_9  and  N1_10 
REMARK    3  A    between atoms: N1_10  and  C8_12 
REMARK    4  A    between atoms: C9_15  and  N3_16 
REMARK    5  A    between atoms: N3_16  and  C10_18 
REMARK    6  A    between atoms: C10_18  and  C11_19 
REMARK    7  A    between atoms: N5_24  and  C13_26 
REMARK    8  A    between atoms: C13_26  and  C14_27 
REMARK    9  A    between atoms: C14_27  and  C15_28 
ROOT
HETATM    1  C8  UNL     1      38.384  19.234  38.304  1.00  0.00     0.707 A 
HETATM    2  N2  UNL     1      39.038  20.421  38.151  1.00  0.00    -0.022 N 
ATOM      3  H2  UNL     1      38.513  21.276  37.974  1.00  0.00     0.203 HD
HETATM    4  C9  UNL     1      40.368  20.457  38.236  1.00  0.00     0.707 A 
HETATM    5  N4  UNL     1      41.004  19.296  38.473  1.00  0.00    -0.022 N 
ATOM      6  H4  UNL     1      42.022  19.325  38.538  1.00  0.00     0.203 HD
HETATM    7  C12 UNL     1      40.412  18.110  38.630  1.00  0.00     0.707 A 
HETATM    8  N5  UNL     1      41.015  16.994  38.857  1.00  0.00    -0.225 N 
ATOM      9  H5  UNL     1      40.470  16.139  38.962  1.00  0.00     0.177 HD
HETATM   10  N6  UNL     1      39.045  18.098  38.538  1.00  0.00    -0.022 N 
ATOM     11  H6  UNL     1      38.534  17.222  38.649  1.00  0.00     0.203 HD
ENDROOT
BRANCH   1  12
HETATM   12  N1  UNL     1      37.102  19.208  38.222  1.00  0.00    -0.221 N 
ATOM     13  H1  UNL     1      36.602  20.097  38.205  1.00  0.00     0.178 HD
BRANCH  12  14
HETATM   14  C7  UNL     1      36.334  17.995  38.154  1.00  0.00     0.180 C 
BRANCH  14  15
HETATM   15  C6  UNL     1      35.770  17.621  39.486  1.00  0.00     0.000 A 
HETATM   16  C1  UNL     1      36.200  16.455  40.094  1.00  0.00     0.145 A 
HETATM   17  F1  UNL     1      37.135  15.681  39.447  1.00  0.00    -0.204 F 
HETATM   18  C2  UNL     1      35.692  16.092  41.316  1.00  0.00     0.073 A 
HETATM   19 CL1  UNL     1      36.250  14.604  42.077  1.00  0.00    -0.081 Cl
HETATM   20  C3  UNL     1      34.749  16.857  41.985  1.00  0.00     0.027 A 
HETATM   21  C4  UNL     1      34.332  18.017  41.364  1.00  0.00     0.002 A 
HETATM   22  C5  UNL     1      34.835  18.402  40.122  1.00  0.00     0.012 A 
ENDBRANCH  14  15
ENDBRANCH  12  14
ENDBRANCH   1  12
BRANCH   4  23
HETATM   23  N3  UNL     1      41.071  21.524  38.108  1.00  0.00    -0.224 N 
ATOM     24  H3  UNL     1      41.454  21.921  38.966  1.00  0.00     0.177 HD
BRANCH  23  25
HETATM   25  C10 UNL     1      41.373  22.209  36.908  1.00  0.00     0.153 C 
BRANCH  25  26
HETATM   26  C11 UNL     1      40.724  23.597  36.979  1.00  0.00     0.135 C 
HETATM   27 CL2  UNL     1      40.844  24.158  38.653  1.00  0.00    -0.129 Cl
ENDBRANCH  25  26
ENDBRANCH  23  25
ENDBRANCH   4  23
BRANCH   8  28
HETATM   28  C13 UNL     1      42.451  16.940  38.964  1.00  0.00     0.147 C 
BRANCH  28  29
HETATM   29  C14 UNL     1      42.854  15.568  39.499  1.00  0.00     0.137 C 
BRANCH  29  30
HETATM   30  C15 UNL     1      43.790  14.911  38.534  1.00  0.00     0.389 C 
HETATM   31  F2  UNL     1      43.145  14.018  37.701  1.00  0.00    -0.171 F 
HETATM   32  F3  UNL     1      44.805  14.291  39.252  1.00  0.00    -0.171 F 
HETATM   33  F4  UNL     1      44.379  15.863  37.693  1.00  0.00    -0.171 F 
ENDBRANCH  29  30
ENDBRANCH  28  29
ENDBRANCH   8  28
TORSDOF 9
ENDMDL
MODEL 5
REMARK VINA RESULT: -7.190405771      3.207      4.194
REMARK  9 active torsions:
REMARK  status: ('A' for Active; 'I' for Inactive)
REMARK    1  A    between atoms: C6_8  and  C7_9 
REMARK    2  A    between atoms: C7_9  and  N1_10 
REMARK    3  A    between atoms: N1_10  and  C8_12 
REMARK    4  A    between atoms: C9_15  and  N3_16 
REMARK    5  A    between atoms: N3_16  and  C10_18 
REMARK    6  A    between atoms: C10_18  and  C11_19 
REMARK    7  A    between atoms: N5_24  and  C13_26 
REMARK    8  A    between atoms: C13_26  and  C14_27 
REMARK    9  A    between atoms: C14_27  and  C15_28 
ROOT
HETATM    1  C8  UNL     1      36.655  19.323  37.766  1.00  0.00     0.707 A 
HETATM    2  N2  UNL     1      36.079  19.846  36.647  1.00  0.00    -0.022 N 
ATOM      3  H2  UNL     1      35.161  19.521  36.344  1.00  0.00     0.203 HD
HETATM    4  C9  UNL     1      36.720  20.783  35.949  1.00  0.00     0.707 A 
HETATM    5  N4  UNL     1      37.928  21.169  36.398  1.00  0.00    -0.022 N 
ATOM      6  H4  UNL     1      38.419  21.886  35.864  1.00  0.00     0.203 HD
HETATM    7  C12 UNL     1      38.536  20.691  37.486  1.00  0.00     0.707 A 
HETATM    8  N5  UNL     1      39.692  21.056  37.922  1.00  0.00    -0.225 N 
ATOM      9  H5  UNL     1      40.070  20.628  38.767  1.00  0.00     0.177 HD
HETATM   10  N6  UNL     1      37.857  19.729  38.187  1.00  0.00    -0.022 N 
ATOM     11  H6  UNL     1      38.268  19.323  39.027  1.00  0.00     0.203 HD
ENDROOT
BRANCH   1  12
HETATM   12  N1  UNL     1      36.029  18.422  38.434  1.00  0.00    -0.221 N 
ATOM     13  H1  UNL     1      35.115  18.656  38.820  1.00  0.00     0.178 HD
BRANCH  12  14
HETATM   14  C7  UNL     1      36.546  17.100  38.666  1.00  0.00     0.180 C 
BRANCH  14  15
HETATM   15  C6  UNL     1      36.273  16.637  40.060  1.00  0.00     0.000 A 
HETATM   16  C1  UNL     1      36.205  15.278  40.314  1.00  0.00     0.145 A 
HETATM   17  F1  UNL     1      36.393  14.402  39.271  1.00  0.00    -0.204 F 
HETATM   18  C2  UNL     1      35.953  14.832  41.587  1.00  0.00     0.073 A 
HETATM   19 CL1  UNL     1      35.869  13.099  41.895  1.00  0.00    -0.081 Cl
HETATM   20  C3  UNL     1      35.760  15.697  42.653  1.00  0.00     0.027 A 
HETATM   21  C4  UNL     1      35.833  17.049  42.381  1.00  0.00     0.002 A 
HETATM   22  C5  UNL     1      36.087  17.522  41.095  1.00  0.00     0.012 A 
ENDBRANCH  14  15
ENDBRANCH  12  14
ENDBRANCH   1  12
BRANCH   4  23
HETATM   23  N3  UNL     1      36.260  21.333  34.885  1.00  0.00    -0.224 N 
ATOM     24  H3  UNL     1      36.292  22.352  34.852  1.00  0.00     0.177 HD
BRANCH  23  25
HETATM   25  C10 UNL     1      35.714  20.684  33.754  1.00  0.00     0.153 C 
BRANCH  25  26
HETATM   26  C11 UNL     1      35.251  21.762  32.765  1.00  0.00     0.135 C 
HETATM   27 CL2  UNL     1      36.483  21.891  31.502  1.00  0.00    -0.129 Cl
ENDBRANCH  25  26
ENDBRANCH  23  25
ENDBRANCH   4  23
BRANCH   8  28
HETATM   28  C13 UNL     1      40.457  22.063  37.231  1.00  0.00     0.147 C 
BRANCH  28  29
HETATM   29  C14 UNL     1      41.122  22.971  38.263  1.00  0.00     0.137 C 
BRANCH  29  30
HETATM   30  C15 UNL     1      40.767  24.396  37.975  1.00  0.00     0.389 C 
HETATM   31  F2  UNL     1      40.045  24.976  38.999  1.00  0.00    -0.171 F 
HETATM   32  F3  UNL     1      40.070  24.445  36.774  1.00  0.00    -0.171 F 
HETATM   33  F4  UNL     1      41.923  25.173  37.832  1.00  0.00    -0.171 F 
ENDBRANCH  29  30
ENDBRANCH  28  29
ENDBRANCH   8  28
TORSDOF 9
ENDMDL
