MODEL 1
REMARK VINA RESULT: -4.495057732      0.000      0.000
REMARK  2 active torsions:
REMARK  status: ('A' for Active; 'I' for Inactive)
REMARK    1  A    between atoms: C4_6  and  C5_7 
REMARK    2  A    between atoms: C5_7  and  O2_8 
ROOT
HETATM    1  C1  UNL     1       7.750  32.887  25.580  1.00  0.00     0.278 C 
HETATM    2  N1  UNL     1       8.211  32.366  26.869  1.00  0.00    -0.026 N 
HETATM    3  C2  UNL     1       8.643  33.395  27.712  1.00  0.00     0.278 C 
HETATM    4  C3  UNL     1       9.318  31.428  26.593  1.00  0.00     0.409 C 
HETATM    5  O1  UNL     1       8.840  30.724  27.725  1.00  0.00    -0.329 OA
HETATM    6  C4  UNL     1       7.589  31.203  27.333  1.00  0.00     0.352 C 
ENDROOT
BRANCH   6   7
HETATM    7  C5  UNL     1       6.520  31.214  28.339  1.00  0.00     0.226 C 
BRANCH   7   8
HETATM    8  O2  UNL     1       6.525  30.210  29.272  1.00  0.00    -0.397 OA
ATOM      9  H2  UNL     1       5.786  29.613  29.274  1.00  0.00     0.209 HD
ENDBRANCH   7   8
ENDBRANCH   6   7
TORSDOF 2
ENDMDL
MODEL 2
REMARK VINA RESULT: -4.387956703      1.390      2.143
REMARK  2 active torsions:
REMARK  status: ('A' for Active; 'I' for Inactive)
REMARK    1  A    between atoms: C4_6  and  C5_7 
REMARK    2  A    between atoms: C5_7  and  O2_8 
ROOT
HETATM    1  C1  UNL     1      10.047  31.827  26.478  1.00  0.00     0.278 C 
HETATM    2  N1  UNL     1       8.661  31.364  26.388  1.00  0.00    -0.026 N 
HETATM    3  C2  UNL     1       8.588  30.060  25.888  1.00  0.00     0.278 C 
HETATM    4  C3  UNL     1       7.944  32.297  25.495  1.00  0.00     0.409 C 
HETATM    5  O1  UNL     1       6.822  32.027  26.316  1.00  0.00    -0.329 OA
HETATM    6  C4  UNL     1       7.767  31.876  27.333  1.00  0.00     0.352 C 
ENDROOT
BRANCH   6   7
HETATM    7  C5  UNL     1       7.361  31.134  28.532  1.00  0.00     0.226 C 
BRANCH   7   8
HETATM    8  O2  UNL     1       6.190  30.423  28.466  1.00  0.00    -0.397 OA
ATOM      9  H2  UNL     1       6.120  29.648  29.010  1.00  0.00     0.209 HD
ENDBRANCH   7   8
ENDBRANCH   6   7
TORSDOF 2
ENDMDL
MODEL 3
REMARK VINA RESULT: -4.342131053      2.584      4.111
REMARK  2 active torsions:
REMARK  status: ('A' for Active; 'I' for Inactive)
REMARK    1  A    between atoms: C4_6  and  C5_7 
REMARK    2  A    between atoms: C5_7  and  O2_8 
ROOT
HETATM    1  C1  UNL     1      10.120  32.701  25.658  1.00  0.00     0.278 C 
HETATM    2  N1  UNL     1      10.050  31.240  25.585  1.00  0.00    -0.026 N 
HETATM    3  C2  UNL     1       9.662  30.809  24.311  1.00  0.00     0.278 C 
HETATM    4  C3  UNL     1       9.071  30.796  26.598  1.00  0.00     0.409 C 
HETATM    5  O1  UNL     1       9.895  29.651  26.714  1.00  0.00    -0.329 OA
HETATM    6  C4  UNL     1      10.935  30.528  26.400  1.00  0.00     0.352 C 
ENDROOT
BRANCH   6   7
HETATM    7  C5  UNL     1      12.187  29.946  25.903  1.00  0.00     0.226 C 
BRANCH   7   8
HETATM    8  O2  UNL     1      12.896  29.149  26.764  1.00  0.00    -0.397 OA
ATOM      9  H2  UNL     1      13.443  28.473  26.382  1.00  0.00     0.209 HD
ENDBRANCH   7   8
ENDBRANCH   6   7
TORSDOF 2
ENDMDL
MODEL 4
REMARK VINA RESULT: -4.325490293      3.130      4.042
REMARK  2 active torsions:
REMARK  status: ('A' for Active; 'I' for Inactive)
REMARK    1  A    between atoms: C4_6  and  C5_7 
REMARK    2  A    between atoms: C5_7  and  O2_8 
ROOT
HETATM    1  C1  UNL     1      10.369  33.358  25.810  1.00  0.00     0.278 C 
HETATM    2  N1  UNL     1       8.936  33.490  26.079  1.00  0.00    -0.026 N 
HETATM    3  C2  UNL     1       8.656  33.355  27.443  1.00  0.00     0.278 C 
HETATM    4  C3  UNL     1       8.245  32.437  25.307  1.00  0.00     0.409 C 
HETATM    5  O1  UNL     1       7.191  33.377  25.202  1.00  0.00    -0.329 OA
HETATM    6  C4  UNL     1       8.212  34.329  25.226  1.00  0.00     0.352 C 
ENDROOT
BRANCH   6   7
HETATM    7  C5  UNL     1       7.849  35.706  25.579  1.00  0.00     0.226 C 
BRANCH   7   8
HETATM    8  O2  UNL     1       6.865  36.307  24.836  1.00  0.00    -0.397 OA
ATOM      9  H2  UNL     1       6.088  35.795  24.648  1.00  0.00     0.209 HD
ENDBRANCH   7   8
ENDBRANCH   6   7
TORSDOF 2
ENDMDL
MODEL 5
REMARK VINA RESULT: -4.269385001      3.510      4.852
REMARK  2 active torsions:
REMARK  status: ('A' for Active; 'I' for Inactive)
REMARK    1  A    between atoms: C4_6  and  C5_7 
REMARK    2  A    between atoms: C5_7  and  O2_8 
ROOT
HETATM    1  C1  UNL     1      11.383  31.875  25.454  1.00  0.00     0.278 C 
HETATM    2  N1  UNL     1      10.323  31.063  24.852  1.00  0.00    -0.026 N 
HETATM    3  C2  UNL     1       9.341  31.862  24.256  1.00  0.00     0.278 C 
HETATM    4  C3  UNL     1       9.733  30.242  25.929  1.00  0.00     0.409 C 
HETATM    5  O1  UNL     1       9.536  29.273  24.916  1.00  0.00    -0.329 OA
HETATM    6  C4  UNL     1      10.698  29.810  24.358  1.00  0.00     0.352 C 
ENDROOT
BRANCH   6   7
HETATM    7  C5  UNL     1      10.949  29.554  22.935  1.00  0.00     0.226 C 
BRANCH   7   8
HETATM    8  O2  UNL     1      10.237  28.543  22.342  1.00  0.00    -0.397 OA
ATOM      9  H2  UNL     1      10.283  28.474  21.396  1.00  0.00     0.209 HD
ENDBRANCH   7   8
ENDBRANCH   6   7
TORSDOF 2
ENDMDL
