MODEL 1
REMARK VINA RESULT: -4.468438503      0.000      0.000
REMARK  2 active torsions:
REMARK  status: ('A' for Active; 'I' for Inactive)
REMARK    1  A    between atoms: C2_2  and  N1_3 
REMARK    2  A    between atoms: C5_6  and  N2_7 
ROOT
HETATM    1  N1  UNL     1      11.076  30.870  24.319  1.00  0.00     0.090 N 
HETATM    2  C3  UNL     1       9.685  31.152  24.179  1.00  0.00     0.274 C 
HETATM    3  C4  UNL     1       9.577  32.494  24.897  1.00  0.00     0.064 C 
HETATM    4  C5  UNL     1      10.432  32.224  26.133  1.00  0.00     0.213 C 
HETATM    5  C6  UNL     1      11.469  31.228  25.646  1.00  0.00     0.305 C 
ENDROOT
BRANCH   4   6
HETATM    6  N2  UNL     1      11.134  33.452  26.507  1.00  0.00    -0.073 N 
ATOM      7  H23 UNL     1      11.381  34.020  25.696  1.00  0.00     0.274 HD
ATOM      8  H22 UNL     1      10.521  34.123  26.970  1.00  0.00     0.274 HD
ATOM      9  H21 UNL     1      11.946  33.212  27.074  1.00  0.00     0.274 HD
ENDBRANCH   4   6
BRANCH   1  10
HETATM   10  C2  UNL     1      11.517  29.595  23.875  1.00  0.00     0.268 C 
HETATM   11  C1  UNL     1      10.813  29.241  22.585  1.00  0.00     0.037 C 
ENDBRANCH   1  10
TORSDOF 2
ENDMDL
MODEL 2
REMARK VINA RESULT: -4.378974077      3.734      5.003
REMARK  2 active torsions:
REMARK  status: ('A' for Active; 'I' for Inactive)
REMARK    1  A    between atoms: C2_2  and  N1_3 
REMARK    2  A    between atoms: C5_6  and  N2_7 
ROOT
HETATM    1  N1  UNL     1       8.282  34.908  25.504  1.00  0.00     0.090 N 
HETATM    2  C3  UNL     1       7.410  35.910  24.985  1.00  0.00     0.274 C 
HETATM    3  C4  UNL     1       8.184  37.182  25.318  1.00  0.00     0.064 C 
HETATM    4  C5  UNL     1       8.633  36.875  26.745  1.00  0.00     0.213 C 
HETATM    5  C6  UNL     1       8.786  35.365  26.761  1.00  0.00     0.305 C 
ENDROOT
BRANCH   4   6
HETATM    6  N2  UNL     1       9.956  37.459  26.966  1.00  0.00    -0.073 N 
ATOM      7  H23 UNL     1      10.413  37.082  27.797  1.00  0.00     0.274 HD
ATOM      8  H22 UNL     1      10.638  37.147  26.275  1.00  0.00     0.274 HD
ATOM      9  H21 UNL     1       9.872  38.475  26.996  1.00  0.00     0.274 HD
ENDBRANCH   4   6
BRANCH   1  10
HETATM   10  C2  UNL     1       7.799  33.572  25.490  1.00  0.00     0.268 C 
HETATM   11  C1  UNL     1       8.446  32.815  24.352  1.00  0.00     0.037 C 
ENDBRANCH   1  10
TORSDOF 2
ENDMDL
MODEL 3
REMARK VINA RESULT: -4.357083244      1.617      3.785
REMARK  2 active torsions:
REMARK  status: ('A' for Active; 'I' for Inactive)
REMARK    1  A    between atoms: C2_2  and  N1_3 
REMARK    2  A    between atoms: C5_6  and  N2_7 
ROOT
HETATM    1  N1  UNL     1      10.948  30.760  24.106  1.00  0.00     0.090 N 
HETATM    2  C3  UNL     1      12.056  30.961  24.979  1.00  0.00     0.274 C 
HETATM    3  C4  UNL     1      13.229  30.668  24.048  1.00  0.00     0.064 C 
HETATM    4  C5  UNL     1      12.720  29.418  23.336  1.00  0.00     0.213 C 
HETATM    5  C6  UNL     1      11.213  29.602  23.311  1.00  0.00     0.305 C 
ENDROOT
BRANCH   4   6
HETATM    6  N2  UNL     1      13.193  29.430  21.952  1.00  0.00    -0.073 N 
ATOM      7  H23 UNL     1      14.176  29.165  21.875  1.00  0.00     0.274 HD
ATOM      8  H22 UNL     1      12.797  28.669  21.400  1.00  0.00     0.274 HD
ATOM      9  H21 UNL     1      13.005  30.344  21.543  1.00  0.00     0.274 HD
ENDBRANCH   4   6
BRANCH   1  10
HETATM   10  C2  UNL     1       9.655  30.814  24.691  1.00  0.00     0.268 C 
HETATM   11  C1  UNL     1       9.025  32.157  24.396  1.00  0.00     0.037 C 
ENDBRANCH   1  10
TORSDOF 2
ENDMDL
MODEL 4
REMARK VINA RESULT: -4.322447335      1.401      1.710
REMARK  2 active torsions:
REMARK  status: ('A' for Active; 'I' for Inactive)
REMARK    1  A    between atoms: C2_2  and  N1_3 
REMARK    2  A    between atoms: C5_6  and  N2_7 
ROOT
HETATM    1  N1  UNL     1      10.507  32.294  24.923  1.00  0.00     0.090 N 
HETATM    2  C3  UNL     1       9.081  32.323  24.904  1.00  0.00     0.274 C 
HETATM    3  C4  UNL     1       8.803  33.743  25.389  1.00  0.00     0.064 C 
HETATM    4  C5  UNL     1       9.800  33.849  26.541  1.00  0.00     0.213 C 
HETATM    5  C6  UNL     1      10.948  32.954  26.111  1.00  0.00     0.305 C 
ENDROOT
BRANCH   4   6
HETATM    6  N2  UNL     1      10.305  35.220  26.611  1.00  0.00    -0.073 N 
ATOM      7  H23 UNL     1       9.613  35.905  26.306  1.00  0.00     0.274 HD
ATOM      8  H22 UNL     1      10.414  35.545  27.572  1.00  0.00     0.274 HD
ATOM      9  H21 UNL     1      11.174  35.283  26.080  1.00  0.00     0.274 HD
ENDBRANCH   4   6
BRANCH   1  10
HETATM   10  C2  UNL     1      11.124  31.043  24.655  1.00  0.00     0.268 C 
HETATM   11  C1  UNL     1      10.238  30.232  23.738  1.00  0.00     0.037 C 
ENDBRANCH   1  10
TORSDOF 2
ENDMDL
MODEL 5
REMARK VINA RESULT: -4.282933021      1.279      3.643
REMARK  2 active torsions:
REMARK  status: ('A' for Active; 'I' for Inactive)
REMARK    1  A    between atoms: C2_2  and  N1_3 
REMARK    2  A    between atoms: C5_6  and  N2_7 
ROOT
HETATM    1  N1  UNL     1      10.473  31.880  24.610  1.00  0.00     0.090 N 
HETATM    2  C3  UNL     1      11.683  31.575  25.300  1.00  0.00     0.274 C 
HETATM    3  C4  UNL     1      12.312  30.547  24.362  1.00  0.00     0.064 C 
HETATM    4  C5  UNL     1      11.096  29.687  24.029  1.00  0.00     0.213 C 
HETATM    5  C6  UNL     1       9.932  30.659  24.102  1.00  0.00     0.305 C 
ENDROOT
BRANCH   4   6
HETATM    6  N2  UNL     1      11.203  29.222  22.646  1.00  0.00    -0.073 N 
ATOM      7  H23 UNL     1      11.231  29.994  21.979  1.00  0.00     0.274 HD
ATOM      8  H22 UNL     1      12.118  28.823  22.441  1.00  0.00     0.274 HD
ATOM      9  H21 UNL     1      10.443  28.570  22.453  1.00  0.00     0.274 HD
ENDBRANCH   4   6
BRANCH   1  10
HETATM   10  C2  UNL     1       9.550  32.723  25.283  1.00  0.00     0.268 C 
HETATM   11  C1  UNL     1       8.297  32.864  24.449  1.00  0.00     0.037 C 
ENDBRANCH   1  10
TORSDOF 2
ENDMDL
