MODEL 1
REMARK VINA RESULT: -3.766105081      0.000      0.000
REMARK  1 active torsions:
REMARK  status: ('A' for Active; 'I' for Inactive)
REMARK    1  A    between atoms: N1_2  and  C2_5 
ROOT
HETATM    1  C2  UNL     1      11.101  32.612  25.747  1.00  0.00     0.241 A 
HETATM    2  C3  UNL     1       9.852  32.388  24.971  1.00  0.00     0.306 A 
HETATM    3  N2  UNL     1       9.716  31.020  25.449  1.00  0.00     0.088 N 
HETATM    4  C4  UNL     1       8.570  30.775  26.310  1.00  0.00     0.310 C 
HETATM    5  C5  UNL     1      10.945  31.202  26.199  1.00  0.00     0.306 A 
ENDROOT
BRANCH   1   6
HETATM    6  N1  UNL     1      11.012  33.545  26.845  1.00  0.00    -0.071 N 
HETATM    7  C1  UNL     1       9.956  34.520  26.643  1.00  0.00     0.267 C 
ATOM      8  H12 UNL     1      11.909  34.000  27.018  1.00  0.00     0.277 HD
ATOM      9  H11 UNL     1      10.903  33.060  27.736  1.00  0.00     0.277 HD
ENDBRANCH   1   6
TORSDOF 1
ENDMDL
MODEL 2
REMARK VINA RESULT: -3.698706104      1.845      3.598
REMARK  1 active torsions:
REMARK  status: ('A' for Active; 'I' for Inactive)
REMARK    1  A    between atoms: N1_2  and  C2_5 
ROOT
HETATM    1  C2  UNL     1       9.844  34.252  26.357  1.00  0.00     0.241 A 
HETATM    2  C3  UNL     1       9.724  35.582  27.012  1.00  0.00     0.306 A 
HETATM    3  N2  UNL     1       8.662  35.129  27.897  1.00  0.00     0.088 N 
HETATM    4  C4  UNL     1       9.010  35.080  29.309  1.00  0.00     0.310 C 
HETATM    5  C5  UNL     1       8.740  33.827  27.261  1.00  0.00     0.306 A 
ENDROOT
BRANCH   1   6
HETATM    6  N1  UNL     1      11.062  33.522  26.611  1.00  0.00    -0.071 N 
HETATM    7  C1  UNL     1      11.215  32.394  25.712  1.00  0.00     0.267 C 
ATOM      8  H12 UNL     1      11.123  33.230  27.587  1.00  0.00     0.277 HD
ATOM      9  H11 UNL     1      11.877  34.136  26.576  1.00  0.00     0.277 HD
ENDBRANCH   1   6
TORSDOF 1
ENDMDL
MODEL 3
REMARK VINA RESULT: -3.669156108      2.027      4.118
REMARK  1 active torsions:
REMARK  status: ('A' for Active; 'I' for Inactive)
REMARK    1  A    between atoms: N1_2  and  C2_5 
ROOT
HETATM    1  C2  UNL     1       9.415  34.104  27.143  1.00  0.00     0.241 A 
HETATM    2  C3  UNL     1       8.811  35.149  26.274  1.00  0.00     0.306 A 
HETATM    3  N2  UNL     1       8.594  36.054  27.392  1.00  0.00     0.088 N 
HETATM    4  C4  UNL     1       9.386  37.274  27.365  1.00  0.00     0.310 C 
HETATM    5  C5  UNL     1       9.158  35.045  28.269  1.00  0.00     0.306 A 
ENDROOT
BRANCH   1   6
HETATM    6  N1  UNL     1      10.824  33.855  26.959  1.00  0.00    -0.071 N 
HETATM    7  C1  UNL     1      11.069  32.867  25.925  1.00  0.00     0.267 C 
ATOM      8  H12 UNL     1      11.273  33.592  27.837  1.00  0.00     0.277 HD
ATOM      9  H11 UNL     1      11.333  34.720  26.772  1.00  0.00     0.277 HD
ENDBRANCH   1   6
TORSDOF 1
ENDMDL
MODEL 4
REMARK VINA RESULT: -3.651215815      2.350      3.158
REMARK  1 active torsions:
REMARK  status: ('A' for Active; 'I' for Inactive)
REMARK    1  A    between atoms: N1_2  and  C2_5 
ROOT
HETATM    1  C2  UNL     1       8.148  31.574  28.032  1.00  0.00     0.241 A 
HETATM    2  C3  UNL     1       9.063  30.982  27.021  1.00  0.00     0.306 A 
HETATM    3  N2  UNL     1       8.149  31.262  25.924  1.00  0.00     0.088 N 
HETATM    4  C4  UNL     1       8.618  32.248  24.962  1.00  0.00     0.310 C 
HETATM    5  C5  UNL     1       7.225  31.826  26.890  1.00  0.00     0.306 A 
ENDROOT
BRANCH   1   6
HETATM    6  N1  UNL     1       8.588  32.800  28.652  1.00  0.00    -0.071 N 
HETATM    7  C1  UNL     1       7.845  33.092  29.863  1.00  0.00     0.267 C 
ATOM      8  H12 UNL     1       8.550  33.582  27.996  1.00  0.00     0.277 HD
ATOM      9  H11 UNL     1       9.593  32.787  28.828  1.00  0.00     0.277 HD
ENDBRANCH   1   6
TORSDOF 1
ENDMDL
MODEL 5
REMARK VINA RESULT: -3.646478200      1.607      3.104
REMARK  1 active torsions:
REMARK  status: ('A' for Active; 'I' for Inactive)
REMARK    1  A    between atoms: N1_2  and  C2_5 
ROOT
HETATM    1  C2  UNL     1       9.019  30.045  25.870  1.00  0.00     0.241 A 
HETATM    2  C3  UNL     1      10.227  30.431  26.646  1.00  0.00     0.306 A 
HETATM    3  N2  UNL     1      10.801  31.161  25.526  1.00  0.00     0.088 N 
HETATM    4  C4  UNL     1      10.900  32.601  25.711  1.00  0.00     0.310 C 
HETATM    5  C5  UNL     1       9.645  30.782  24.736  1.00  0.00     0.306 A 
ENDROOT
BRANCH   1   6
HETATM    6  N1  UNL     1       7.774  30.647  26.284  1.00  0.00    -0.071 N 
HETATM    7  C1  UNL     1       7.865  31.218  27.614  1.00  0.00     0.267 C 
ATOM      8  H12 UNL     1       7.002  29.983  26.217  1.00  0.00     0.277 HD
ATOM      9  H11 UNL     1       7.452  31.337  25.605  1.00  0.00     0.277 HD
ENDBRANCH   1   6
TORSDOF 1
ENDMDL
