MODEL 1
REMARK VINA RESULT: -4.541791497      0.000      0.000
REMARK  3 active torsions:
REMARK  status: ('A' for Active; 'I' for Inactive)
REMARK    1  A    between atoms: N1_1  and  N2_4 
REMARK    2  A    between atoms: C1_6  and  C2_7 
REMARK    3  A    between atoms: C4_10  and  N3_11 
ROOT
HETATM    1  C2  UNL     1       7.976  32.148  29.104  1.00  0.00     0.193 C 
HETATM    2  O1  UNL     1       7.471  32.514  30.351  1.00  0.00    -0.376 OA
HETATM    3  C3  UNL     1       8.127  33.758  30.273  1.00  0.00     0.204 C 
HETATM    4  C4  UNL     1       8.153  33.601  28.787  1.00  0.00     0.240 C 
ENDROOT
BRANCH   1   5
HETATM    5  C1  UNL     1       6.993  31.466  28.224  1.00  0.00     0.113 C 
HETATM    6  N2  UNL     1       7.326  31.156  27.052  1.00  0.00    -0.320 N 
ATOM      7  H2  UNL     1       7.127  32.005  26.523  1.00  0.00     0.185 HD
BRANCH   6   8
HETATM    8  N1  UNL     1       7.767  30.375  26.182  1.00  0.00    -0.346 N 
ATOM      9  H12 UNL     1       8.617  30.043  26.638  1.00  0.00     0.176 HD
ATOM     10  H11 UNL     1       7.738  29.899  25.280  1.00  0.00     0.176 HD
ENDBRANCH   6   8
ENDBRANCH   1   5
BRANCH   4  11
HETATM   11  N3  UNL     1       9.365  33.962  28.115  1.00  0.00    -0.070 N 
ATOM     12  H33 UNL     1       9.997  33.162  28.091  1.00  0.00     0.274 HD
ATOM     13  H32 UNL     1       9.182  34.085  27.118  1.00  0.00     0.274 HD
ATOM     14  H31 UNL     1       9.858  34.778  28.478  1.00  0.00     0.274 HD
ENDBRANCH   4  11
TORSDOF 3
ENDMDL
MODEL 2
REMARK VINA RESULT: -4.438697170      3.400      3.795
REMARK  3 active torsions:
REMARK  status: ('A' for Active; 'I' for Inactive)
REMARK    1  A    between atoms: N1_1  and  N2_4 
REMARK    2  A    between atoms: C1_6  and  C2_7 
REMARK    3  A    between atoms: C4_10  and  N3_11 
ROOT
HETATM    1  C2  UNL     1       8.631  35.553  27.956  1.00  0.00     0.193 C 
HETATM    2  O1  UNL     1       8.600  36.777  28.622  1.00  0.00    -0.376 OA
HETATM    3  C3  UNL     1       8.515  36.120  29.865  1.00  0.00     0.204 C 
HETATM    4  C4  UNL     1       9.119  34.916  29.220  1.00  0.00     0.240 C 
ENDROOT
BRANCH   1   5
HETATM    5  C1  UNL     1       9.613  35.488  26.843  1.00  0.00     0.113 C 
HETATM    6  N2  UNL     1      10.524  34.623  26.875  1.00  0.00    -0.320 N 
ATOM      7  H2  UNL     1      11.256  35.078  27.421  1.00  0.00     0.185 HD
BRANCH   6   8
HETATM    8  N1  UNL     1      11.023  33.510  26.602  1.00  0.00    -0.346 N 
ATOM      9  H12 UNL     1      10.359  32.887  27.063  1.00  0.00     0.176 HD
ATOM     10  H11 UNL     1      11.721  32.899  26.177  1.00  0.00     0.176 HD
ENDBRANCH   6   8
ENDBRANCH   1   5
BRANCH   4  11
HETATM   11  N3  UNL     1       8.551  33.644  29.552  1.00  0.00    -0.070 N 
ATOM     12  H33 UNL     1       7.619  33.777  29.947  1.00  0.00     0.274 HD
ATOM     13  H32 UNL     1       8.320  33.136  28.698  1.00  0.00     0.274 HD
ATOM     14  H31 UNL     1       9.104  33.048  30.168  1.00  0.00     0.274 HD
ENDBRANCH   4  11
TORSDOF 3
ENDMDL
MODEL 3
REMARK VINA RESULT: -4.401223722      4.214      4.919
REMARK  3 active torsions:
REMARK  status: ('A' for Active; 'I' for Inactive)
REMARK    1  A    between atoms: N1_1  and  N2_4 
REMARK    2  A    between atoms: C1_6  and  C2_7 
REMARK    3  A    between atoms: C4_10  and  N3_11 
ROOT
HETATM    1  C2  UNL     1       9.310  30.266  25.523  1.00  0.00     0.193 C 
HETATM    2  O1  UNL     1      10.074  29.319  24.842  1.00  0.00    -0.376 OA
HETATM    3  C3  UNL     1      10.114  30.144  23.701  1.00  0.00     0.204 C 
HETATM    4  C4  UNL     1       9.839  31.312  24.591  1.00  0.00     0.240 C 
ENDROOT
BRANCH   1   5
HETATM    5  C1  UNL     1       9.717  30.475  26.937  1.00  0.00     0.113 C 
HETATM    6  N2  UNL     1       9.388  31.538  27.522  1.00  0.00    -0.320 N 
ATOM      7  H2  UNL     1      10.137  32.182  27.270  1.00  0.00     0.185 HD
BRANCH   6   8
HETATM    8  N1  UNL     1       8.644  32.236  28.244  1.00  0.00    -0.346 N 
ATOM      9  H12 UNL     1       7.773  32.195  27.715  1.00  0.00     0.176 HD
ATOM     10  H11 UNL     1       8.441  32.813  29.061  1.00  0.00     0.176 HD
ENDBRANCH   6   8
ENDBRANCH   1   5
BRANCH   4  11
HETATM   11  N3  UNL     1       8.894  32.280  24.120  1.00  0.00    -0.070 N 
ATOM     12  H33 UNL     1       8.550  32.834  24.905  1.00  0.00     0.274 HD
ATOM     13  H32 UNL     1       9.378  33.000  23.583  1.00  0.00     0.274 HD
ATOM     14  H31 UNL     1       8.106  31.920  23.582  1.00  0.00     0.274 HD
ENDBRANCH   4  11
TORSDOF 3
ENDMDL
MODEL 4
REMARK VINA RESULT: -4.377986873      2.386      3.032
REMARK  3 active torsions:
REMARK  status: ('A' for Active; 'I' for Inactive)
REMARK    1  A    between atoms: N1_1  and  N2_4 
REMARK    2  A    between atoms: C1_6  and  C2_7 
REMARK    3  A    between atoms: C4_10  and  N3_11 
ROOT
HETATM    1  C2  UNL     1       8.594  31.469  27.804  1.00  0.00     0.193 C 
HETATM    2  O1  UNL     1       7.516  30.631  27.521  1.00  0.00    -0.376 OA
HETATM    3  C3  UNL     1       6.808  31.135  28.629  1.00  0.00     0.204 C 
HETATM    4  C4  UNL     1       7.656  32.363  28.556  1.00  0.00     0.240 C 
ENDROOT
BRANCH   1   5
HETATM    5  C1  UNL     1       9.195  32.116  26.609  1.00  0.00     0.113 C 
HETATM    6  N2  UNL     1       9.952  33.108  26.760  1.00  0.00    -0.320 N 
ATOM      7  H2  UNL     1       9.301  33.893  26.788  1.00  0.00     0.185 HD
BRANCH   6   8
HETATM    8  N1  UNL     1      11.066  33.657  26.894  1.00  0.00    -0.346 N 
ATOM      9  H12 UNL     1      11.031  34.345  26.142  1.00  0.00     0.176 HD
ATOM     10  H11 UNL     1      11.975  33.787  27.340  1.00  0.00     0.176 HD
ENDBRANCH   6   8
ENDBRANCH   1   5
BRANCH   4  11
HETATM   11  N3  UNL     1       8.140  32.894  29.795  1.00  0.00    -0.070 N 
ATOM     12  H33 UNL     1       9.080  33.269  29.665  1.00  0.00     0.274 HD
ATOM     13  H32 UNL     1       7.631  33.748  30.026  1.00  0.00     0.274 HD
ATOM     14  H31 UNL     1       8.130  32.261  30.594  1.00  0.00     0.274 HD
ENDBRANCH   4  11
TORSDOF 3
ENDMDL
MODEL 5
REMARK VINA RESULT: -4.373088911      3.498      4.314
REMARK  3 active torsions:
REMARK  status: ('A' for Active; 'I' for Inactive)
REMARK    1  A    between atoms: N1_1  and  N2_4 
REMARK    2  A    between atoms: C1_6  and  C2_7 
REMARK    3  A    between atoms: C4_10  and  N3_11 
ROOT
HETATM    1  C2  UNL     1       8.422  30.423  25.832  1.00  0.00     0.193 C 
HETATM    2  O1  UNL     1       9.223  29.282  25.818  1.00  0.00    -0.376 OA
HETATM    3  C3  UNL     1       9.972  29.797  24.742  1.00  0.00     0.204 C 
HETATM    4  C4  UNL     1       9.527  31.165  25.146  1.00  0.00     0.240 C 
ENDROOT
BRANCH   1   5
HETATM    5  C1  UNL     1       8.119  30.939  27.192  1.00  0.00     0.113 C 
HETATM    6  N2  UNL     1       6.937  31.255  27.482  1.00  0.00    -0.320 N 
ATOM      7  H2  UNL     1       6.870  32.221  27.161  1.00  0.00     0.185 HD
BRANCH   6   8
HETATM    8  N1  UNL     1       5.799  31.031  27.949  1.00  0.00    -0.346 N 
ATOM      9  H12 UNL     1       5.734  30.022  27.813  1.00  0.00     0.176 HD
ATOM     10  H11 UNL     1       4.918  31.306  28.383  1.00  0.00     0.176 HD
ENDBRANCH   6   8
ENDBRANCH   1   5
BRANCH   4  11
HETATM   11  N3  UNL     1       9.138  32.060  24.097  1.00  0.00    -0.070 N 
ATOM     12  H33 UNL     1       9.924  32.211  23.465  1.00  0.00     0.274 HD
ATOM     13  H32 UNL     1       8.483  31.591  23.471  1.00  0.00     0.274 HD
ATOM     14  H31 UNL     1       8.753  32.958  24.388  1.00  0.00     0.274 HD
ENDBRANCH   4  11
TORSDOF 3
ENDMDL
