MODEL 1
REMARK VINA RESULT: -4.636698405      0.000      0.000
REMARK  2 active torsions:
REMARK  status: ('A' for Active; 'I' for Inactive)
REMARK    1  A    between atoms: C3_3  and  N1_4 
REMARK    2  A    between atoms: C5_6  and  N2_7 
ROOT
HETATM    1  C1  UNL     1      10.953  29.093  22.377  1.00  0.00     0.013 C 
HETATM    2  C2  UNL     1      10.410  29.613  23.333  1.00  0.00    -0.087 C 
HETATM    3  C3  UNL     1       9.799  30.233  24.487  1.00  0.00     0.365 C 
ENDROOT
BRANCH   3   4
HETATM    4  N1  UNL     1      10.096  31.611  24.670  1.00  0.00     0.103 N 
HETATM    5  C4  UNL     1      11.304  31.954  25.374  1.00  0.00     0.308 C 
HETATM    6  C5  UNL     1      10.571  33.236  25.760  1.00  0.00     0.240 C 
HETATM    7  C6  UNL     1       9.387  32.292  25.737  1.00  0.00     0.308 C 
BRANCH   6   8
HETATM    8  N2  UNL     1      10.881  33.730  27.070  1.00  0.00    -0.072 N 
ATOM      9  H23 UNL     1      11.470  33.064  27.570  1.00  0.00     0.274 HD
ATOM     10  H22 UNL     1      11.524  34.520  27.008  1.00  0.00     0.274 HD
ATOM     11  H21 UNL     1      10.068  33.977  27.633  1.00  0.00     0.274 HD
ENDBRANCH   6   8
ENDBRANCH   3   4
TORSDOF 2
ENDMDL
MODEL 2
REMARK VINA RESULT: -4.617530469      2.613      3.886
REMARK  2 active torsions:
REMARK  status: ('A' for Active; 'I' for Inactive)
REMARK    1  A    between atoms: C3_3  and  N1_4 
REMARK    2  A    between atoms: C5_6  and  N2_7 
ROOT
HETATM    1  C1  UNL     1       9.111  32.402  24.489  1.00  0.00     0.013 C 
HETATM    2  C2  UNL     1       9.636  31.352  24.173  1.00  0.00    -0.087 C 
HETATM    3  C3  UNL     1      10.277  30.122  23.765  1.00  0.00     0.365 C 
ENDROOT
BRANCH   3   4
HETATM    4  N1  UNL     1      11.686  30.079  23.936  1.00  0.00     0.103 N 
HETATM    5  C4  UNL     1      12.353  28.818  23.738  1.00  0.00     0.308 C 
HETATM    6  C5  UNL     1      13.401  29.358  24.708  1.00  0.00     0.240 C 
HETATM    7  C6  UNL     1      12.174  30.021  25.301  1.00  0.00     0.308 C 
BRANCH   6   8
HETATM    8  N2  UNL     1      13.985  28.369  25.567  1.00  0.00    -0.072 N 
ATOM      9  H23 UNL     1      14.791  28.756  26.058  1.00  0.00     0.274 HD
ATOM     10  H22 UNL     1      13.371  28.180  26.360  1.00  0.00     0.274 HD
ATOM     11  H21 UNL     1      14.239  27.499  25.100  1.00  0.00     0.274 HD
ENDBRANCH   6   8
ENDBRANCH   3   4
TORSDOF 2
ENDMDL
MODEL 3
REMARK VINA RESULT: -4.442180712      1.566      2.189
REMARK  2 active torsions:
REMARK  status: ('A' for Active; 'I' for Inactive)
REMARK    1  A    between atoms: C3_3  and  N1_4 
REMARK    2  A    between atoms: C5_6  and  N2_7 
ROOT
HETATM    1  C1  UNL     1      10.435  30.128  23.900  1.00  0.00     0.013 C 
HETATM    2  C2  UNL     1       9.752  31.120  24.069  1.00  0.00    -0.087 C 
HETATM    3  C3  UNL     1       8.917  32.278  24.296  1.00  0.00     0.365 C 
ENDROOT
BRANCH   3   4
HETATM    4  N1  UNL     1       9.076  32.909  25.559  1.00  0.00     0.103 N 
HETATM    5  C4  UNL     1       8.567  34.247  25.715  1.00  0.00     0.308 C 
HETATM    6  C5  UNL     1       9.646  34.402  26.785  1.00  0.00     0.240 C 
HETATM    7  C6  UNL     1      10.383  33.467  25.848  1.00  0.00     0.308 C 
BRANCH   6   8
HETATM    8  N2  UNL     1      10.228  35.711  26.860  1.00  0.00    -0.072 N 
ATOM      9  H23 UNL     1       9.513  36.426  26.730  1.00  0.00     0.274 HD
ATOM     10  H22 UNL     1      10.513  35.918  27.817  1.00  0.00     0.274 HD
ATOM     11  H21 UNL     1      11.005  35.866  26.217  1.00  0.00     0.274 HD
ENDBRANCH   6   8
ENDBRANCH   3   4
TORSDOF 2
ENDMDL
MODEL 4
REMARK VINA RESULT: -4.438264800      2.201      2.934
REMARK  2 active torsions:
REMARK  status: ('A' for Active; 'I' for Inactive)
REMARK    1  A    between atoms: C3_3  and  N1_4 
REMARK    2  A    between atoms: C5_6  and  N2_7 
ROOT
HETATM    1  C1  UNL     1      13.365  30.573  23.904  1.00  0.00     0.013 C 
HETATM    2  C2  UNL     1      12.510  31.019  24.645  1.00  0.00    -0.087 C 
HETATM    3  C3  UNL     1      11.472  31.558  25.494  1.00  0.00     0.365 C 
ENDROOT
BRANCH   3   4
HETATM    4  N1  UNL     1      10.277  30.794  25.562  1.00  0.00     0.103 N 
HETATM    5  C4  UNL     1       9.044  31.432  25.180  1.00  0.00     0.308 C 
HETATM    6  C5  UNL     1       8.377  30.439  26.129  1.00  0.00     0.240 C 
HETATM    7  C6  UNL     1       9.682  30.631  26.875  1.00  0.00     0.308 C 
BRANCH   6   8
HETATM    8  N2  UNL     1       7.238  30.958  26.831  1.00  0.00    -0.072 N 
ATOM      9  H23 UNL     1       6.518  31.251  26.171  1.00  0.00     0.274 HD
ATOM     10  H22 UNL     1       6.742  30.204  27.308  1.00  0.00     0.274 HD
ATOM     11  H21 UNL     1       7.450  31.712  27.483  1.00  0.00     0.274 HD
ENDBRANCH   6   8
ENDBRANCH   3   4
TORSDOF 2
ENDMDL
MODEL 5
REMARK VINA RESULT: -4.424621098      2.313      2.886
REMARK  2 active torsions:
REMARK  status: ('A' for Active; 'I' for Inactive)
REMARK    1  A    between atoms: C3_3  and  N1_4 
REMARK    2  A    between atoms: C5_6  and  N2_7 
ROOT
HETATM    1  C1  UNL     1      10.618  29.757  23.464  1.00  0.00     0.013 C 
HETATM    2  C2  UNL     1      10.015  30.726  23.882  1.00  0.00    -0.087 C 
HETATM    3  C3  UNL     1       9.265  31.856  24.383  1.00  0.00     0.365 C 
ENDROOT
BRANCH   3   4
HETATM    4  N1  UNL     1       8.893  31.787  25.752  1.00  0.00     0.103 N 
HETATM    5  C4  UNL     1       8.253  30.584  26.218  1.00  0.00     0.308 C 
HETATM    6  C5  UNL     1       7.606  31.482  27.270  1.00  0.00     0.240 C 
HETATM    7  C6  UNL     1       7.673  32.476  26.129  1.00  0.00     0.308 C 
BRANCH   6   8
HETATM    8  N2  UNL     1       6.266  31.112  27.627  1.00  0.00    -0.072 N 
ATOM      9  H23 UNL     1       5.629  31.296  26.852  1.00  0.00     0.274 HD
ATOM     10  H22 UNL     1       6.182  30.098  27.687  1.00  0.00     0.274 HD
ATOM     11  H21 UNL     1       5.920  31.548  28.481  1.00  0.00     0.274 HD
ENDBRANCH   6   8
ENDBRANCH   3   4
TORSDOF 2
ENDMDL
