MODEL 1
REMARK VINA RESULT: -8.149003084      0.000      0.000
REMARK  13 active torsions:
REMARK  status: ('A' for Active; 'I' for Inactive)
REMARK    1  A    between atoms: C2_2  and  C3_3 
REMARK    2  A    between atoms: C3_3  and  C5_5 
REMARK    3  A    between atoms: C5_5  and  N1_6 
REMARK       I    between atoms: N1_6  and  C6_8 
REMARK       I    between atoms: C6_8  and  N2_10 
REMARK    4  A    between atoms: N2_10  and  C7_12 
REMARK    5  A    between atoms: C7_12  and  C8_13 
REMARK    6  A    between atoms: C7_12  and  C12_17 
REMARK    7  A    between atoms: C8_13  and  C9_14 
REMARK       I    between atoms: C12_17  and  N3_19 
REMARK    8  A    between atoms: N3_19  and  C13_21 
REMARK    9  A    between atoms: C13_21  and  C14_22 
REMARK   10  A    between atoms: C13_21  and  C21_29 
REMARK   11  A    between atoms: C14_22  and  C15_23 
REMARK   12  A    between atoms: C21_29  and  O3_30 
REMARK   13  A    between atoms: C21_29  and  C22_32 
ROOT
HETATM    1  C12 UNL     1       0.092  34.374  63.722  1.00  0.00     0.241 C 
HETATM    2  O2  UNL     1       1.244  34.455  63.222  1.00  0.00    -0.271 OA
HETATM    3  N3  UNL     1      -0.208  35.232  64.803  1.00  0.00    -0.349 N 
ATOM      4  H3  UNL     1      -1.138  35.177  65.218  1.00  0.00     0.163 HD
ENDROOT
BRANCH   3   5
HETATM    5  C13 UNL     1       0.746  36.198  65.363  1.00  0.00     0.138 C 
BRANCH   5   6
HETATM    6  C14 UNL     1       1.421  35.718  66.567  1.00  0.00     0.003 C 
BRANCH   6   7
HETATM    7  C15 UNL     1       0.808  34.750  67.474  1.00  0.00    -0.082 C 
HETATM    8  C16 UNL     1       1.500  33.394  67.514  1.00  0.00     0.034 C 
HETATM    9  C17 UNL     1       0.812  32.485  68.523  1.00  0.00     0.004 C 
HETATM   10  C18 UNL     1      -0.649  32.832  68.670  1.00  0.00     0.001 C 
HETATM   11  C19 UNL     1      -0.841  34.224  69.213  1.00  0.00     0.004 C 
HETATM   12  C20 UNL     1       0.339  35.130  68.826  1.00  0.00     0.034 C 
ENDBRANCH   6   7
ENDBRANCH   5   6
BRANCH   5  13
HETATM   13  C21 UNL     1       0.123  37.550  65.401  1.00  0.00     0.178 C 
BRANCH  13  14
HETATM   14  O3  UNL     1       0.266  38.064  64.052  1.00  0.00    -0.391 OA
ATOM     15  H3  UNL     1       0.370  39.003  64.158  1.00  0.00     0.210 HD
ENDBRANCH  13  14
BRANCH  13  16
HETATM   16  C22 UNL     1      -1.380  37.555  65.583  1.00  0.00     0.259 C 
HETATM   17  C23 UNL     1      -1.867  38.905  65.098  1.00  0.00     0.119 C 
HETATM   18  C24 UNL     1      -2.358  39.601  66.325  1.00  0.00     0.271 C 
HETATM   19  F1  UNL     1      -1.573  40.678  66.682  1.00  0.00    -0.204 F 
HETATM   20  F2  UNL     1      -3.650  40.085  66.099  1.00  0.00    -0.204 F 
HETATM   21  C25 UNL     1      -2.315  38.602  67.428  1.00  0.00     0.351 C 
HETATM   22  N4  UNL     1      -1.892  37.337  66.868  1.00  0.00     0.097 N 
HETATM   23  C26 UNL     1      -3.079  36.470  66.906  1.00  0.00     0.310 C 
ENDBRANCH  13  16
ENDBRANCH   5  13
ENDBRANCH   3   5
BRANCH   1  24
HETATM   24  C7  UNL     1      -0.872  33.408  63.171  1.00  0.00     0.178 C 
BRANCH  24  25
HETATM   25  N2  UNL     1      -0.903  33.471  61.753  1.00  0.00    -0.330 N 
HETATM   26  C6  UNL     1      -2.120  33.336  60.977  1.00  0.00     0.320 C 
HETATM   27  N1  UNL     1      -2.086  33.407  59.590  1.00  0.00    -0.322 N 
HETATM   28  O1  UNL     1      -3.140  33.161  61.642  1.00  0.00    -0.247 OA
ATOM     29  H1  UNL     1      -1.148  33.524  59.207  1.00  0.00     0.169 HD
ATOM     30  H2  UNL     1      -0.025  33.618  61.256  1.00  0.00     0.165 HD
BRANCH  27  31
HETATM   31  C5  UNL     1      -3.093  33.348  58.610  1.00  0.00     0.070 C 
BRANCH  31  32
HETATM   32  C3  UNL     1      -2.805  33.513  57.175  1.00  0.00     0.020 C 
HETATM   33  C4  UNL     1      -1.996  34.714  56.821  1.00  0.00     0.015 C 
BRANCH  32  34
HETATM   34  C2  UNL     1      -4.150  33.576  56.376  1.00  0.00     0.005 C 
HETATM   35  C1  UNL     1      -4.000  34.531  55.226  1.00  0.00     0.006 C 
ENDBRANCH  32  34
ENDBRANCH  31  32
ENDBRANCH  27  31
ENDBRANCH  24  25
BRANCH  24  36
HETATM   36  C8  UNL     1      -0.716  32.026  63.676  1.00  0.00     0.038 C 
BRANCH  36  37
HETATM   37  C9  UNL     1      -0.891  31.750  65.114  1.00  0.00    -0.020 C 
HETATM   38  C10 UNL     1      -0.642  30.344  65.576  1.00  0.00     0.009 C 
HETATM   39  C11 UNL     1      -2.376  32.036  65.429  1.00  0.00     0.009 C 
ENDBRANCH  36  37
ENDBRANCH  24  36
ENDBRANCH   1  24
TORSDOF 13
ENDMDL
MODEL 2
REMARK VINA RESULT: -8.087354023      2.450      4.485
REMARK  13 active torsions:
REMARK  status: ('A' for Active; 'I' for Inactive)
REMARK    1  A    between atoms: C2_2  and  C3_3 
REMARK    2  A    between atoms: C3_3  and  C5_5 
REMARK    3  A    between atoms: C5_5  and  N1_6 
REMARK       I    between atoms: N1_6  and  C6_8 
REMARK       I    between atoms: C6_8  and  N2_10 
REMARK    4  A    between atoms: N2_10  and  C7_12 
REMARK    5  A    between atoms: C7_12  and  C8_13 
REMARK    6  A    between atoms: C7_12  and  C12_17 
REMARK    7  A    between atoms: C8_13  and  C9_14 
REMARK       I    between atoms: C12_17  and  N3_19 
REMARK    8  A    between atoms: N3_19  and  C13_21 
REMARK    9  A    between atoms: C13_21  and  C14_22 
REMARK   10  A    between atoms: C13_21  and  C21_29 
REMARK   11  A    between atoms: C14_22  and  C15_23 
REMARK   12  A    between atoms: C21_29  and  O3_30 
REMARK   13  A    between atoms: C21_29  and  C22_32 
ROOT
HETATM    1  C12 UNL     1      -1.646  34.921  63.747  1.00  0.00     0.241 C 
HETATM    2  O2  UNL     1      -2.792  35.290  63.378  1.00  0.00    -0.271 OA
HETATM    3  N3  UNL     1      -1.088  35.569  64.871  1.00  0.00    -0.349 N 
ATOM      4  H3  UNL     1      -0.161  35.281  65.182  1.00  0.00     0.163 HD
ENDROOT
BRANCH   3   5
HETATM    5  C13 UNL     1      -1.769  36.635  65.618  1.00  0.00     0.138 C 
BRANCH   5   6
HETATM    6  C14 UNL     1      -0.975  37.855  65.744  1.00  0.00     0.003 C 
BRANCH   6   7
HETATM    7  C15 UNL     1      -1.381  38.968  66.598  1.00  0.00    -0.082 C 
HETATM    8  C16 UNL     1      -2.725  39.585  66.237  1.00  0.00     0.034 C 
HETATM    9  C17 UNL     1      -3.071  40.698  67.218  1.00  0.00     0.004 C 
HETATM   10  C18 UNL     1      -1.828  41.343  67.778  1.00  0.00     0.001 C 
HETATM   11  C19 UNL     1      -1.005  40.368  68.578  1.00  0.00     0.004 C 
HETATM   12  C20 UNL     1      -1.209  38.931  68.068  1.00  0.00     0.034 C 
ENDBRANCH   6   7
ENDBRANCH   5   6
BRANCH   5  13
HETATM   13  C21 UNL     1      -2.382  36.068  66.850  1.00  0.00     0.178 C 
BRANCH  13  14
HETATM   14  O3  UNL     1      -3.550  35.342  66.385  1.00  0.00    -0.391 OA
ATOM     15  H3  UNL     1      -4.282  35.925  66.552  1.00  0.00     0.210 HD
ENDBRANCH  13  14
BRANCH  13  16
HETATM   16  C22 UNL     1      -1.577  34.975  67.519  1.00  0.00     0.259 C 
HETATM   17  C23 UNL     1      -2.545  34.193  68.382  1.00  0.00     0.119 C 
HETATM   18  C24 UNL     1      -2.127  34.480  69.788  1.00  0.00     0.271 C 
HETATM   19  F1  UNL     1      -3.050  35.238  70.479  1.00  0.00    -0.204 F 
HETATM   20  F2  UNL     1      -1.975  33.276  70.481  1.00  0.00    -0.204 F 
HETATM   21  C25 UNL     1      -0.855  35.248  69.706  1.00  0.00     0.351 C 
HETATM   22  N4  UNL     1      -0.484  35.349  68.311  1.00  0.00     0.097 N 
HETATM   23  C26 UNL     1       0.698  34.489  68.153  1.00  0.00     0.310 C 
ENDBRANCH  13  16
ENDBRANCH   5  13
ENDBRANCH   3   5
BRANCH   1  24
HETATM   24  C7  UNL     1      -0.953  33.856  63.006  1.00  0.00     0.178 C 
BRANCH  24  25
HETATM   25  N2  UNL     1      -1.072  34.049  61.605  1.00  0.00    -0.330 N 
HETATM   26  C6  UNL     1      -2.071  33.385  60.791  1.00  0.00     0.320 C 
HETATM   27  N1  UNL     1      -2.137  33.615  59.423  1.00  0.00    -0.322 N 
HETATM   28  O1  UNL     1      -2.821  32.630  61.408  1.00  0.00    -0.247 OA
ATOM     29  H1  UNL     1      -1.415  34.248  59.078  1.00  0.00     0.169 HD
ATOM     30  H2  UNL     1      -0.421  34.688  61.148  1.00  0.00     0.165 HD
BRANCH  27  31
HETATM   31  C5  UNL     1      -3.005  33.147  58.421  1.00  0.00     0.070 C 
BRANCH  31  32
HETATM   32  C3  UNL     1      -2.812  33.471  56.997  1.00  0.00     0.020 C 
HETATM   33  C4  UNL     1      -2.058  34.729  56.726  1.00  0.00     0.015 C 
BRANCH  32  34
HETATM   34  C2  UNL     1      -4.204  33.575  56.290  1.00  0.00     0.005 C 
HETATM   35  C1  UNL     1      -4.132  34.604  55.197  1.00  0.00     0.006 C 
ENDBRANCH  32  34
ENDBRANCH  31  32
ENDBRANCH  27  31
ENDBRANCH  24  25
BRANCH  24  36
HETATM   36  C8  UNL     1       0.443  33.618  63.432  1.00  0.00     0.038 C 
BRANCH  36  37
HETATM   37  C9  UNL     1       1.554  34.181  62.641  1.00  0.00    -0.020 C 
HETATM   38  C10 UNL     1       2.680  33.255  62.286  1.00  0.00     0.009 C 
HETATM   39  C11 UNL     1       2.184  35.288  63.514  1.00  0.00     0.009 C 
ENDBRANCH  36  37
ENDBRANCH  24  36
ENDBRANCH   1  24
TORSDOF 13
ENDMDL
MODEL 3
REMARK VINA RESULT: -8.081229102      4.947      9.751
REMARK  13 active torsions:
REMARK  status: ('A' for Active; 'I' for Inactive)
REMARK    1  A    between atoms: C2_2  and  C3_3 
REMARK    2  A    between atoms: C3_3  and  C5_5 
REMARK    3  A    between atoms: C5_5  and  N1_6 
REMARK       I    between atoms: N1_6  and  C6_8 
REMARK       I    between atoms: C6_8  and  N2_10 
REMARK    4  A    between atoms: N2_10  and  C7_12 
REMARK    5  A    between atoms: C7_12  and  C8_13 
REMARK    6  A    between atoms: C7_12  and  C12_17 
REMARK    7  A    between atoms: C8_13  and  C9_14 
REMARK       I    between atoms: C12_17  and  N3_19 
REMARK    8  A    between atoms: N3_19  and  C13_21 
REMARK    9  A    between atoms: C13_21  and  C14_22 
REMARK   10  A    between atoms: C13_21  and  C21_29 
REMARK   11  A    between atoms: C14_22  and  C15_23 
REMARK   12  A    between atoms: C21_29  and  O3_30 
REMARK   13  A    between atoms: C21_29  and  C22_32 
ROOT
HETATM    1  C12 UNL     1      -0.970  35.207  69.141  1.00  0.00     0.241 C 
HETATM    2  O2  UNL     1      -0.033  35.359  69.968  1.00  0.00    -0.271 OA
HETATM    3  N3  UNL     1      -0.721  34.380  68.023  1.00  0.00    -0.349 N 
ATOM      4  H3  UNL     1      -1.472  34.249  67.345  1.00  0.00     0.163 HD
ENDROOT
BRANCH   3   5
HETATM    5  C13 UNL     1       0.558  33.701  67.783  1.00  0.00     0.138 C 
BRANCH   5   6
HETATM    6  C14 UNL     1       1.398  34.374  66.795  1.00  0.00     0.003 C 
BRANCH   6   7
HETATM    7  C15 UNL     1       0.842  35.233  65.751  1.00  0.00    -0.082 C 
HETATM    8  C16 UNL     1       1.131  36.717  65.932  1.00  0.00     0.034 C 
HETATM    9  C17 UNL     1       0.551  37.509  64.768  1.00  0.00     0.004 C 
HETATM   10  C18 UNL     1      -0.657  36.822  64.183  1.00  0.00     0.001 C 
HETATM   11  C19 UNL     1      -0.308  35.478  63.598  1.00  0.00     0.004 C 
HETATM   12  C20 UNL     1       0.905  34.866  64.318  1.00  0.00     0.034 C 
ENDBRANCH   6   7
ENDBRANCH   5   6
BRANCH   5  13
HETATM   13  C21 UNL     1       0.325  32.239  67.625  1.00  0.00     0.178 C 
BRANCH  13  14
HETATM   14  O3  UNL     1       0.179  31.736  68.978  1.00  0.00    -0.391 OA
ATOM     15  H3  UNL     1      -0.579  32.191  69.326  1.00  0.00     0.210 HD
ENDBRANCH  13  14
BRANCH  13  16
HETATM   16  C22 UNL     1      -1.006  31.868  67.006  1.00  0.00     0.259 C 
HETATM   17  C23 UNL     1      -1.273  30.428  67.389  1.00  0.00     0.119 C 
HETATM   18  C24 UNL     1      -1.188  29.666  66.106  1.00  0.00     0.271 C 
HETATM   19  F1  UNL     1      -0.095  28.825  66.052  1.00  0.00    -0.204 F 
HETATM   20  F2  UNL     1      -2.330  28.872  65.962  1.00  0.00    -0.204 F 
HETATM   21  C25 UNL     1      -1.062  30.674  65.019  1.00  0.00     0.351 C 
HETATM   22  N4  UNL     1      -1.146  31.989  65.617  1.00  0.00     0.097 N 
HETATM   23  C26 UNL     1      -2.441  32.537  65.186  1.00  0.00     0.310 C 
ENDBRANCH  13  16
ENDBRANCH   5  13
ENDBRANCH   3   5
BRANCH   1  24
HETATM   24  C7  UNL     1      -2.256  35.885  69.370  1.00  0.00     0.178 C 
BRANCH  24  25
HETATM   25  N2  UNL     1      -2.687  35.722  70.712  1.00  0.00    -0.330 N 
HETATM   26  C6  UNL     1      -4.075  35.531  71.086  1.00  0.00     0.320 C 
HETATM   27  N1  UNL     1      -4.435  35.377  72.418  1.00  0.00    -0.322 N 
HETATM   28  O1  UNL     1      -4.866  35.520  70.144  1.00  0.00    -0.247 OA
ATOM     29  H1  UNL     1      -3.650  35.444  73.066  1.00  0.00     0.169 HD
ATOM     30  H2  UNL     1      -1.985  35.739  71.451  1.00  0.00     0.165 HD
BRANCH  27  31
HETATM   31  C5  UNL     1      -5.671  35.146  73.049  1.00  0.00     0.070 C 
BRANCH  31  32
HETATM   32  C3  UNL     1      -5.801  35.049  74.512  1.00  0.00     0.020 C 
HETATM   33  C4  UNL     1      -4.944  34.016  75.163  1.00  0.00     0.015 C 
BRANCH  32  34
HETATM   34  C2  UNL     1      -7.292  34.752  74.887  1.00  0.00     0.005 C 
HETATM   35  C1  UNL     1      -7.337  33.658  75.917  1.00  0.00     0.006 C 
ENDBRANCH  32  34
ENDBRANCH  31  32
ENDBRANCH  27  31
ENDBRANCH  24  25
BRANCH  24  36
HETATM   36  C8  UNL     1      -2.296  37.296  68.927  1.00  0.00     0.038 C 
BRANCH  36  37
HETATM   37  C9  UNL     1      -2.225  37.612  67.489  1.00  0.00    -0.020 C 
HETATM   38  C10 UNL     1      -2.433  39.045  67.091  1.00  0.00     0.009 C 
HETATM   39  C11 UNL     1      -3.370  36.822  66.817  1.00  0.00     0.009 C 
ENDBRANCH  36  37
ENDBRANCH  24  36
ENDBRANCH   1  24
TORSDOF 13
ENDMDL
MODEL 4
REMARK VINA RESULT: -8.021228356      4.370      9.198
REMARK  13 active torsions:
REMARK  status: ('A' for Active; 'I' for Inactive)
REMARK    1  A    between atoms: C2_2  and  C3_3 
REMARK    2  A    between atoms: C3_3  and  C5_5 
REMARK    3  A    between atoms: C5_5  and  N1_6 
REMARK       I    between atoms: N1_6  and  C6_8 
REMARK       I    between atoms: C6_8  and  N2_10 
REMARK    4  A    between atoms: N2_10  and  C7_12 
REMARK    5  A    between atoms: C7_12  and  C8_13 
REMARK    6  A    between atoms: C7_12  and  C12_17 
REMARK    7  A    between atoms: C8_13  and  C9_14 
REMARK       I    between atoms: C12_17  and  N3_19 
REMARK    8  A    between atoms: N3_19  and  C13_21 
REMARK    9  A    between atoms: C13_21  and  C14_22 
REMARK   10  A    between atoms: C13_21  and  C21_29 
REMARK   11  A    between atoms: C14_22  and  C15_23 
REMARK   12  A    between atoms: C21_29  and  O3_30 
REMARK   13  A    between atoms: C21_29  and  C22_32 
ROOT
HETATM    1  C12 UNL     1      -2.232  34.142  68.528  1.00  0.00     0.241 C 
HETATM    2  O2  UNL     1      -3.308  33.490  68.587  1.00  0.00    -0.271 OA
HETATM    3  N3  UNL     1      -1.267  33.716  67.589  1.00  0.00    -0.349 N 
ATOM      4  H3  UNL     1      -0.391  34.235  67.530  1.00  0.00     0.163 HD
ENDROOT
BRANCH   3   5
HETATM    5  C13 UNL     1      -1.455  32.568  66.693  1.00  0.00     0.138 C 
BRANCH   5   6
HETATM    6  C14 UNL     1      -0.395  31.567  66.800  1.00  0.00     0.003 C 
BRANCH   6   7
HETATM    7  C15 UNL     1      -0.328  30.401  65.922  1.00  0.00    -0.082 C 
HETATM    8  C16 UNL     1      -1.583  29.539  65.919  1.00  0.00     0.034 C 
HETATM    9  C17 UNL     1      -1.423  28.385  64.938  1.00  0.00     0.004 C 
HETATM   10  C18 UNL     1       0.025  27.990  64.784  1.00  0.00     0.001 C 
HETATM   11  C19 UNL     1       0.850  29.108  64.202  1.00  0.00     0.004 C 
HETATM   12  C20 UNL     1       0.249  30.477  64.561  1.00  0.00     0.034 C 
ENDBRANCH   6   7
ENDBRANCH   5   6
BRANCH   5  13
HETATM   13  C21 UNL     1      -1.829  33.049  65.335  1.00  0.00     0.178 C 
BRANCH  13  14
HETATM   14  O3  UNL     1      -3.188  33.538  65.475  1.00  0.00    -0.391 OA
ATOM     15  H3  UNL     1      -3.511  33.619  64.585  1.00  0.00     0.210 HD
ENDBRANCH  13  14
BRANCH  13  16
HETATM   16  C22 UNL     1      -1.094  34.288  64.872  1.00  0.00     0.259 C 
HETATM   17  C23 UNL     1      -1.887  34.851  63.711  1.00  0.00     0.119 C 
HETATM   18  C24 UNL     1      -1.008  34.662  62.518  1.00  0.00     0.271 C 
HETATM   19  F1  UNL     1      -1.502  33.728  61.629  1.00  0.00    -0.204 F 
HETATM   20  F2  UNL     1      -0.896  35.873  61.828  1.00  0.00    -0.204 F 
HETATM   21  C25 UNL     1       0.304  34.179  63.026  1.00  0.00     0.351 C 
HETATM   22  N4  UNL     1       0.241  34.155  64.472  1.00  0.00     0.097 N 
HETATM   23  C26 UNL     1       1.119  35.244  64.924  1.00  0.00     0.310 C 
ENDBRANCH  13  16
ENDBRANCH   5  13
ENDBRANCH   3   5
BRANCH   1  24
HETATM   24  C7  UNL     1      -2.031  35.294  69.421  1.00  0.00     0.178 C 
BRANCH  24  25
HETATM   25  N2  UNL     1      -2.540  35.027  70.719  1.00  0.00    -0.330 N 
HETATM   26  C6  UNL     1      -3.853  35.454  71.163  1.00  0.00     0.320 C 
HETATM   27  N1  UNL     1      -4.295  35.162  72.447  1.00  0.00    -0.322 N 
HETATM   28  O1  UNL     1      -4.505  36.072  70.324  1.00  0.00    -0.247 OA
ATOM     29  H1  UNL     1      -3.608  34.668  73.016  1.00  0.00     0.169 HD
ATOM     30  H2  UNL     1      -1.952  34.509  71.372  1.00  0.00     0.165 HD
BRANCH  27  31
HETATM   31  C5  UNL     1      -5.506  35.414  73.115  1.00  0.00     0.070 C 
BRANCH  31  32
HETATM   32  C3  UNL     1      -5.706  35.080  74.536  1.00  0.00     0.020 C 
HETATM   33  C4  UNL     1      -4.849  33.977  75.058  1.00  0.00     0.015 C 
BRANCH  32  34
HETATM   34  C2  UNL     1      -7.203  34.691  74.776  1.00  0.00     0.005 C 
HETATM   35  C1  UNL     1      -7.969  34.848  73.493  1.00  0.00     0.006 C 
ENDBRANCH  32  34
ENDBRANCH  31  32
ENDBRANCH  27  31
ENDBRANCH  24  25
BRANCH  24  36
HETATM   36  C8  UNL     1      -0.648  35.818  69.449  1.00  0.00     0.038 C 
BRANCH  36  37
HETATM   37  C9  UNL     1       0.247  35.458  70.564  1.00  0.00    -0.020 C 
HETATM   38  C10 UNL     1       1.039  36.567  71.193  1.00  0.00     0.009 C 
HETATM   39  C11 UNL     1       1.290  34.480  69.979  1.00  0.00     0.009 C 
ENDBRANCH  36  37
ENDBRANCH  24  36
ENDBRANCH   1  24
TORSDOF 13
ENDMDL
MODEL 5
REMARK VINA RESULT: -8.013064095      5.298      9.339
REMARK  13 active torsions:
REMARK  status: ('A' for Active; 'I' for Inactive)
REMARK    1  A    between atoms: C2_2  and  C3_3 
REMARK    2  A    between atoms: C3_3  and  C5_5 
REMARK    3  A    between atoms: C5_5  and  N1_6 
REMARK       I    between atoms: N1_6  and  C6_8 
REMARK       I    between atoms: C6_8  and  N2_10 
REMARK    4  A    between atoms: N2_10  and  C7_12 
REMARK    5  A    between atoms: C7_12  and  C8_13 
REMARK    6  A    between atoms: C7_12  and  C12_17 
REMARK    7  A    between atoms: C8_13  and  C9_14 
REMARK       I    between atoms: C12_17  and  N3_19 
REMARK    8  A    between atoms: N3_19  and  C13_21 
REMARK    9  A    between atoms: C13_21  and  C14_22 
REMARK   10  A    between atoms: C13_21  and  C21_29 
REMARK   11  A    between atoms: C14_22  and  C15_23 
REMARK   12  A    between atoms: C21_29  and  O3_30 
REMARK   13  A    between atoms: C21_29  and  C22_32 
ROOT
HETATM    1  C12 UNL     1      -1.291  35.531  68.935  1.00  0.00     0.241 C 
HETATM    2  O2  UNL     1      -0.956  35.569  67.722  1.00  0.00    -0.271 OA
HETATM    3  N3  UNL     1      -0.549  34.683  69.786  1.00  0.00    -0.349 N 
ATOM      4  H3  UNL     1      -0.810  34.642  70.771  1.00  0.00     0.163 HD
ENDROOT
BRANCH   3   5
HETATM    5  C13 UNL     1       0.576  33.857  69.332  1.00  0.00     0.138 C 
BRANCH   5   6
HETATM    6  C14 UNL     1       0.257  32.433  69.252  1.00  0.00     0.003 C 
BRANCH   6   7
HETATM    7  C15 UNL     1      -0.479  31.858  68.128  1.00  0.00    -0.082 C 
HETATM    8  C16 UNL     1      -0.096  30.424  67.788  1.00  0.00     0.034 C 
HETATM    9  C17 UNL     1      -0.954  29.911  66.640  1.00  0.00     0.004 C 
HETATM   10  C18 UNL     1      -1.397  31.036  65.738  1.00  0.00     0.001 C 
HETATM   11  C19 UNL     1      -2.274  32.022  66.464  1.00  0.00     0.004 C 
HETATM   12  C20 UNL     1      -1.938  32.054  67.963  1.00  0.00     0.034 C 
ENDBRANCH   6   7
ENDBRANCH   5   6
BRANCH   5  13
HETATM   13  C21 UNL     1       1.814  34.257  70.054  1.00  0.00     0.178 C 
BRANCH  13  14
HETATM   14  O3  UNL     1       2.435  33.007  70.451  1.00  0.00    -0.391 OA
ATOM     15  H3  UNL     1       2.931  33.218  71.234  1.00  0.00     0.210 HD
ENDBRANCH  13  14
BRANCH  13  16
HETATM   16  C22 UNL     1       2.887  34.879  69.186  1.00  0.00     0.259 C 
HETATM   17  C23 UNL     1       3.660  35.833  70.073  1.00  0.00     0.119 C 
HETATM   18  C24 UNL     1       3.341  37.194  69.544  1.00  0.00     0.271 C 
HETATM   19  F1  UNL     1       2.578  37.944  70.416  1.00  0.00    -0.204 F 
HETATM   20  F2  UNL     1       4.530  37.896  69.324  1.00  0.00    -0.204 F 
HETATM   21  C25 UNL     1       2.564  36.994  68.291  1.00  0.00     0.351 C 
HETATM   22  N4  UNL     1       2.488  35.572  68.036  1.00  0.00     0.097 N 
HETATM   23  C26 UNL     1       3.340  35.335  66.861  1.00  0.00     0.310 C 
ENDBRANCH  13  16
ENDBRANCH   5  13
ENDBRANCH   3   5
BRANCH   1  24
HETATM   24  C7  UNL     1      -2.419  36.353  69.402  1.00  0.00     0.178 C 
BRANCH  24  25
HETATM   25  N2  UNL     1      -2.763  36.033  70.741  1.00  0.00    -0.330 N 
HETATM   26  C6  UNL     1      -4.107  35.679  71.156  1.00  0.00     0.320 C 
HETATM   27  N1  UNL     1      -4.381  35.375  72.482  1.00  0.00    -0.322 N 
HETATM   28  O1  UNL     1      -4.941  35.674  70.251  1.00  0.00    -0.247 OA
ATOM     29  H1  UNL     1      -3.573  35.461  73.099  1.00  0.00     0.169 HD
ATOM     30  H2  UNL     1      -2.028  36.054  71.448  1.00  0.00     0.165 HD
BRANCH  27  31
HETATM   31  C5  UNL     1      -5.556  34.972  73.142  1.00  0.00     0.070 C 
BRANCH  31  32
HETATM   32  C3  UNL     1      -5.672  34.968  74.610  1.00  0.00     0.020 C 
HETATM   33  C4  UNL     1      -4.776  34.011  75.319  1.00  0.00     0.015 C 
BRANCH  32  34
HETATM   34  C2  UNL     1      -7.149  34.647  75.017  1.00  0.00     0.005 C 
HETATM   35  C1  UNL     1      -8.033  34.756  73.806  1.00  0.00     0.006 C 
ENDBRANCH  32  34
ENDBRANCH  31  32
ENDBRANCH  27  31
ENDBRANCH  24  25
BRANCH  24  36
HETATM   36  C8  UNL     1      -2.250  37.807  69.190  1.00  0.00     0.038 C 
BRANCH  36  37
HETATM   37  C9  UNL     1      -3.249  38.552  68.402  1.00  0.00    -0.020 C 
HETATM   38  C10 UNL     1      -3.864  37.843  67.230  1.00  0.00     0.009 C 
HETATM   39  C11 UNL     1      -2.508  39.771  67.809  1.00  0.00     0.009 C 
ENDBRANCH  36  37
ENDBRANCH  24  36
ENDBRANCH   1  24
TORSDOF 13
ENDMDL
