MODEL 1
REMARK VINA RESULT: -8.718672203      0.000      0.000
REMARK  12 active torsions:
REMARK  status: ('A' for Active; 'I' for Inactive)
REMARK    1  A    between atoms: C1_2  and  C2_4 
REMARK    2  A    between atoms: C2_4  and  C3_5 
REMARK    3  A    between atoms: C3_5  and  C4_6 
REMARK    4  A    between atoms: C4_6  and  N1_7 
REMARK    5  A    between atoms: C4_6  and  N2_21 
REMARK       I    between atoms: N1_7  and  C5_9 
REMARK    6  A    between atoms: C5_9  and  C6_11 
REMARK    7  A    between atoms: C6_11  and  C7_13 
REMARK    8  A    between atoms: C7_13  and  C8_14 
REMARK       I    between atoms: N2_21  and  C15_23 
REMARK    9  A    between atoms: C15_23  and  C16_25 
REMARK   10  A    between atoms: C16_25  and  C17_26 
REMARK   11  A    between atoms: C16_25  and  C18_29 
REMARK   12  A    between atoms: C21_32  and  C22_33 
ROOT
HETATM    1  C4  UNL     1      -5.129  34.323  65.268  1.00  0.00     0.187 C 
ENDROOT
BRANCH   1   2
HETATM    2  C3  UNL     1      -4.530  35.463  66.036  1.00  0.00     0.057 C 
BRANCH   2   3
HETATM    3  C2  UNL     1      -3.531  35.017  67.064  1.00  0.00     0.117 C 
BRANCH   3   4
HETATM    4  C1  UNL     1      -4.158  35.073  68.397  1.00  0.00     0.172 C 
HETATM    5  O1  UNL     1      -5.336  35.455  68.528  1.00  0.00    -0.648 OA
HETATM    6  O2  UNL     1      -3.437  34.698  69.520  1.00  0.00    -0.648 OA
ENDBRANCH   3   4
ENDBRANCH   2   3
ENDBRANCH   1   2
BRANCH   1   7
HETATM    7  N1  UNL     1      -6.386  33.933  65.879  1.00  0.00    -0.338 N 
HETATM    8  C5  UNL     1      -7.588  34.143  65.177  1.00  0.00     0.253 C 
HETATM    9  O3  UNL     1      -7.562  34.657  64.040  1.00  0.00    -0.270 OA
ATOM     10  H1  UNL     1      -6.398  33.510  66.808  1.00  0.00     0.164 HD
BRANCH   8  11
HETATM   11  C6  UNL     1      -8.897  33.752  65.791  1.00  0.00     0.262 C 
HETATM   12  F1  UNL     1      -8.718  32.523  66.451  1.00  0.00    -0.239 F 
BRANCH  11  13
HETATM   13  C7  UNL     1      -9.952  33.560  64.759  1.00  0.00     0.051 C 
BRANCH  13  14
HETATM   14  C8  UNL     1     -11.301  34.096  65.134  1.00  0.00    -0.011 C 
HETATM   15  C9  UNL     1     -12.358  33.632  64.206  1.00  0.00     0.005 C 
HETATM   16  C10 UNL     1     -13.439  34.686  64.067  1.00  0.00     0.000 C 
HETATM   17  C11 UNL     1     -13.769  35.222  65.440  1.00  0.00     0.000 C 
HETATM   18  C12 UNL     1     -14.113  34.051  66.304  1.00  0.00     0.000 C 
HETATM   19  C13 UNL     1     -12.958  33.297  66.861  1.00  0.00     0.000 C 
HETATM   20  C14 UNL     1     -11.608  33.883  66.601  1.00  0.00     0.005 C 
ENDBRANCH  13  14
ENDBRANCH  11  13
ENDBRANCH   8  11
ENDBRANCH   1   7
BRANCH   1  21
HETATM   21  N2  UNL     1      -4.236  33.181  65.153  1.00  0.00    -0.339 N 
HETATM   22  C15 UNL     1      -3.605  32.841  63.919  1.00  0.00     0.234 C 
HETATM   23  O4  UNL     1      -3.853  33.570  62.932  1.00  0.00    -0.273 OA
ATOM     24  H2  UNL     1      -4.056  32.608  65.977  1.00  0.00     0.164 HD
BRANCH  22  25
HETATM   25  C16 UNL     1      -2.703  31.665  63.853  1.00  0.00     0.182 C 
BRANCH  25  26
HETATM   26  C17 UNL     1      -2.579  30.974  65.139  1.00  0.00     0.186 C 
HETATM   27  O5  UNL     1      -2.937  29.779  65.251  1.00  0.00    -0.647 OA
HETATM   28  O6  UNL     1      -2.069  31.590  66.278  1.00  0.00    -0.647 OA
ENDBRANCH  25  26
BRANCH  25  29
HETATM   29  C18 UNL     1      -1.421  31.989  63.162  1.00  0.00     0.009 C 
HETATM   30  C19 UNL     1      -0.449  30.816  63.335  1.00  0.00     0.006 C 
HETATM   31  C20 UNL     1       0.913  31.433  63.116  1.00  0.00     0.008 C 
HETATM   32  C21 UNL     1       0.719  32.907  63.055  1.00  0.00     0.026 C 
HETATM   33  C25 UNL     1      -0.613  33.091  63.790  1.00  0.00     0.013 C 
BRANCH  32  34
HETATM   34  C22 UNL     1       1.819  33.714  63.653  1.00  0.00     0.107 A 
HETATM   35  F2  UNL     1       1.531  34.202  64.926  1.00  0.00    -0.243 F 
HETATM   36  C23 UNL     1       3.216  33.639  63.234  1.00  0.00     0.047 A 
HETATM   37  C24 UNL     1       2.369  34.787  62.700  1.00  0.00     0.047 A 
ENDBRANCH  32  34
ENDBRANCH  25  29
ENDBRANCH  22  25
ENDBRANCH   1  21
TORSDOF 12
ENDMDL
MODEL 2
REMARK VINA RESULT: -8.653231614      3.458      8.444
REMARK  12 active torsions:
REMARK  status: ('A' for Active; 'I' for Inactive)
REMARK    1  A    between atoms: C1_2  and  C2_4 
REMARK    2  A    between atoms: C2_4  and  C3_5 
REMARK    3  A    between atoms: C3_5  and  C4_6 
REMARK    4  A    between atoms: C4_6  and  N1_7 
REMARK    5  A    between atoms: C4_6  and  N2_21 
REMARK       I    between atoms: N1_7  and  C5_9 
REMARK    6  A    between atoms: C5_9  and  C6_11 
REMARK    7  A    between atoms: C6_11  and  C7_13 
REMARK    8  A    between atoms: C7_13  and  C8_14 
REMARK       I    between atoms: N2_21  and  C15_23 
REMARK    9  A    between atoms: C15_23  and  C16_25 
REMARK   10  A    between atoms: C16_25  and  C17_26 
REMARK   11  A    between atoms: C16_25  and  C18_29 
REMARK   12  A    between atoms: C21_32  and  C22_33 
ROOT
HETATM    1  C4  UNL     1      -4.517  34.305  65.139  1.00  0.00     0.187 C 
ENDROOT
BRANCH   1   2
HETATM    2  C3  UNL     1      -5.894  33.741  64.958  1.00  0.00     0.057 C 
BRANCH   2   3
HETATM    3  C2  UNL     1      -6.817  34.069  66.095  1.00  0.00     0.117 C 
BRANCH   3   4
HETATM    4  C1  UNL     1      -8.071  33.312  65.928  1.00  0.00     0.172 C 
HETATM    5  O1  UNL     1      -8.613  33.222  64.810  1.00  0.00    -0.648 OA
HETATM    6  O2  UNL     1      -8.659  32.692  67.019  1.00  0.00    -0.648 OA
ENDBRANCH   3   4
ENDBRANCH   2   3
ENDBRANCH   1   2
BRANCH   1   7
HETATM    7  N1  UNL     1      -3.532  33.332  64.703  1.00  0.00    -0.338 N 
HETATM    8  C5  UNL     1      -2.785  33.584  63.536  1.00  0.00     0.253 C 
HETATM    9  O3  UNL     1      -2.971  34.637  62.893  1.00  0.00    -0.270 OA
ATOM     10  H1  UNL     1      -3.384  32.475  65.236  1.00  0.00     0.164 HD
BRANCH   8  11
HETATM   11  C6  UNL     1      -1.767  32.591  63.066  1.00  0.00     0.262 C 
HETATM   12  F1  UNL     1      -1.433  32.906  61.737  1.00  0.00    -0.239 F 
BRANCH  11  13
HETATM   13  C7  UNL     1      -2.308  31.204  63.078  1.00  0.00     0.051 C 
BRANCH  13  14
HETATM   14  C8  UNL     1      -1.538  30.238  63.928  1.00  0.00    -0.011 C 
HETATM   15  C9  UNL     1      -0.099  30.582  63.990  1.00  0.00     0.005 C 
HETATM   16  C10 UNL     1       0.739  29.325  64.123  1.00  0.00     0.000 C 
HETATM   17  C11 UNL     1       0.095  28.422  65.148  1.00  0.00     0.000 C 
HETATM   18  C12 UNL     1      -0.077  29.221  66.400  1.00  0.00     0.000 C 
HETATM   19  C13 UNL     1      -1.259  30.125  66.434  1.00  0.00     0.000 C 
HETATM   20  C14 UNL     1      -2.196  30.018  65.274  1.00  0.00     0.005 C 
ENDBRANCH  13  14
ENDBRANCH  11  13
ENDBRANCH   8  11
ENDBRANCH   1   7
BRANCH   1  21
HETATM   21  N2  UNL     1      -4.250  34.730  66.503  1.00  0.00    -0.339 N 
HETATM   22  C15 UNL     1      -3.149  35.581  66.824  1.00  0.00     0.234 C 
HETATM   23  O4  UNL     1      -2.418  35.949  65.877  1.00  0.00    -0.273 OA
ATOM     24  H2  UNL     1      -4.866  34.412  67.251  1.00  0.00     0.164 HD
BRANCH  22  25
HETATM   25  C16 UNL     1      -2.918  35.986  68.232  1.00  0.00     0.182 C 
BRANCH  25  26
HETATM   26  C17 UNL     1      -3.501  35.048  69.194  1.00  0.00     0.186 C 
HETATM   27  O5  UNL     1      -3.039  33.890  69.307  1.00  0.00    -0.647 OA
HETATM   28  O6  UNL     1      -4.574  35.382  70.016  1.00  0.00    -0.647 OA
ENDBRANCH  25  26
BRANCH  25  29
HETATM   29  C18 UNL     1      -3.237  37.427  68.454  1.00  0.00     0.009 C 
HETATM   30  C19 UNL     1      -4.178  37.907  67.342  1.00  0.00     0.006 C 
HETATM   31  C20 UNL     1      -3.991  39.407  67.328  1.00  0.00     0.008 C 
HETATM   32  C21 UNL     1      -2.842  39.713  68.223  1.00  0.00     0.026 C 
HETATM   33  C25 UNL     1      -2.089  38.377  68.254  1.00  0.00     0.013 C 
BRANCH  32  34
HETATM   34  C22 UNL     1      -1.981  40.845  67.782  1.00  0.00     0.107 A 
HETATM   35  F2  UNL     1      -1.411  40.661  66.524  1.00  0.00    -0.243 F 
HETATM   36  C23 UNL     1      -2.066  42.201  68.317  1.00  0.00     0.047 A 
HETATM   37  C24 UNL     1      -0.970  41.288  68.850  1.00  0.00     0.047 A 
ENDBRANCH  32  34
ENDBRANCH  25  29
ENDBRANCH  22  25
ENDBRANCH   1  21
TORSDOF 12
ENDMDL
MODEL 3
REMARK VINA RESULT: -8.630264285      2.912      5.441
REMARK  12 active torsions:
REMARK  status: ('A' for Active; 'I' for Inactive)
REMARK    1  A    between atoms: C1_2  and  C2_4 
REMARK    2  A    between atoms: C2_4  and  C3_5 
REMARK    3  A    between atoms: C3_5  and  C4_6 
REMARK    4  A    between atoms: C4_6  and  N1_7 
REMARK    5  A    between atoms: C4_6  and  N2_21 
REMARK       I    between atoms: N1_7  and  C5_9 
REMARK    6  A    between atoms: C5_9  and  C6_11 
REMARK    7  A    between atoms: C6_11  and  C7_13 
REMARK    8  A    between atoms: C7_13  and  C8_14 
REMARK       I    between atoms: N2_21  and  C15_23 
REMARK    9  A    between atoms: C15_23  and  C16_25 
REMARK   10  A    between atoms: C16_25  and  C17_26 
REMARK   11  A    between atoms: C16_25  and  C18_29 
REMARK   12  A    between atoms: C21_32  and  C22_33 
ROOT
HETATM    1  C4  UNL     1      -4.895  33.759  65.959  1.00  0.00     0.187 C 
ENDROOT
BRANCH   1   2
HETATM    2  C3  UNL     1      -3.777  32.953  65.368  1.00  0.00     0.057 C 
BRANCH   2   3
HETATM    3  C2  UNL     1      -2.721  33.801  64.721  1.00  0.00     0.117 C 
BRANCH   3   4
HETATM    4  C1  UNL     1      -2.903  33.761  63.259  1.00  0.00     0.172 C 
HETATM    5  O1  UNL     1      -3.841  33.116  62.754  1.00  0.00    -0.648 OA
HETATM    6  O2  UNL     1      -2.028  34.446  62.431  1.00  0.00    -0.648 OA
ENDBRANCH   3   4
ENDBRANCH   2   3
ENDBRANCH   1   2
BRANCH   1   7
HETATM    7  N1  UNL     1      -6.038  33.732  65.065  1.00  0.00    -0.338 N 
HETATM    8  C5  UNL     1      -7.331  33.905  65.595  1.00  0.00     0.253 C 
HETATM    9  O3  UNL     1      -7.482  34.082  66.821  1.00  0.00    -0.270 OA
ATOM     10  H1  UNL     1      -5.905  33.591  64.064  1.00  0.00     0.164 HD
BRANCH   8  11
HETATM   11  C6  UNL     1      -8.524  33.876  64.691  1.00  0.00     0.262 C 
HETATM   12  F1  UNL     1      -8.620  35.128  64.057  1.00  0.00    -0.239 F 
BRANCH  11  13
HETATM   13  C7  UNL     1      -9.785  33.660  65.453  1.00  0.00     0.051 C 
BRANCH  13  14
HETATM   14  C8  UNL     1     -11.035  33.722  64.628  1.00  0.00    -0.011 C 
HETATM   15  C9  UNL     1     -10.956  32.845  63.437  1.00  0.00     0.005 C 
HETATM   16  C10 UNL     1     -11.745  33.442  62.288  1.00  0.00     0.000 C 
HETATM   17  C11 UNL     1     -13.068  33.940  62.820  1.00  0.00     0.000 C 
HETATM   18  C12 UNL     1     -13.721  32.798  63.529  1.00  0.00     0.000 C 
HETATM   19  C13 UNL     1     -13.247  32.541  64.916  1.00  0.00     0.000 C 
HETATM   20  C14 UNL     1     -12.280  33.537  65.470  1.00  0.00     0.005 C 
ENDBRANCH  13  14
ENDBRANCH  11  13
ENDBRANCH   8  11
ENDBRANCH   1   7
BRANCH   1  21
HETATM   21  N2  UNL     1      -4.512  35.128  66.263  1.00  0.00    -0.339 N 
HETATM   22  C15 UNL     1      -4.335  35.579  67.606  1.00  0.00     0.234 C 
HETATM   23  O4  UNL     1      -4.523  34.741  68.518  1.00  0.00    -0.273 OA
ATOM     24  H2  UNL     1      -4.366  35.784  65.497  1.00  0.00     0.164 HD
BRANCH  22  25
HETATM   25  C16 UNL     1      -3.944  36.986  67.865  1.00  0.00     0.182 C 
BRANCH  25  26
HETATM   26  C17 UNL     1      -3.583  37.707  66.643  1.00  0.00     0.186 C 
HETATM   27  O5  UNL     1      -4.108  38.814  66.385  1.00  0.00    -0.647 OA
HETATM   28  O6  UNL     1      -2.661  37.216  65.724  1.00  0.00    -0.647 OA
ENDBRANCH  25  26
BRANCH  25  29
HETATM   29  C18 UNL     1      -2.973  37.093  68.994  1.00  0.00     0.009 C 
HETATM   30  C19 UNL     1      -2.404  38.515  69.031  1.00  0.00     0.006 C 
HETATM   31  C20 UNL     1      -1.102  38.369  69.785  1.00  0.00     0.008 C 
HETATM   32  C21 UNL     1      -0.855  36.911  69.951  1.00  0.00     0.026 C 
HETATM   33  C25 UNL     1      -1.702  36.307  68.824  1.00  0.00     0.013 C 
BRANCH  32  34
HETATM   34  C22 UNL     1       0.575  36.500  69.876  1.00  0.00     0.107 A 
HETATM   35  F2  UNL     1       0.860  35.651  68.809  1.00  0.00    -0.243 F 
HETATM   36  C23 UNL     1       1.674  37.229  70.501  1.00  0.00     0.047 A 
HETATM   37  C24 UNL     1       1.131  35.999  71.218  1.00  0.00     0.047 A 
ENDBRANCH  32  34
ENDBRANCH  25  29
ENDBRANCH  22  25
ENDBRANCH   1  21
TORSDOF 12
ENDMDL
MODEL 4
REMARK VINA RESULT: -8.592963792      5.424      7.895
REMARK  12 active torsions:
REMARK  status: ('A' for Active; 'I' for Inactive)
REMARK    1  A    between atoms: C1_2  and  C2_4 
REMARK    2  A    between atoms: C2_4  and  C3_5 
REMARK    3  A    between atoms: C3_5  and  C4_6 
REMARK    4  A    between atoms: C4_6  and  N1_7 
REMARK    5  A    between atoms: C4_6  and  N2_21 
REMARK       I    between atoms: N1_7  and  C5_9 
REMARK    6  A    between atoms: C5_9  and  C6_11 
REMARK    7  A    between atoms: C6_11  and  C7_13 
REMARK    8  A    between atoms: C7_13  and  C8_14 
REMARK       I    between atoms: N2_21  and  C15_23 
REMARK    9  A    between atoms: C15_23  and  C16_25 
REMARK   10  A    between atoms: C16_25  and  C17_26 
REMARK   11  A    between atoms: C16_25  and  C18_29 
REMARK   12  A    between atoms: C21_32  and  C22_33 
ROOT
HETATM    1  C4  UNL     1      -3.628  36.701  66.873  1.00  0.00     0.187 C 
ENDROOT
BRANCH   1   2
HETATM    2  C3  UNL     1      -3.491  38.149  66.508  1.00  0.00     0.057 C 
BRANCH   2   3
HETATM    3  C2  UNL     1      -3.939  39.074  67.602  1.00  0.00     0.117 C 
BRANCH   3   4
HETATM    4  C1  UNL     1      -2.786  39.874  68.055  1.00  0.00     0.172 C 
HETATM    5  O1  UNL     1      -2.030  39.446  68.948  1.00  0.00    -0.648 OA
HETATM    6  O2  UNL     1      -2.534  41.113  67.488  1.00  0.00    -0.648 OA
ENDBRANCH   3   4
ENDBRANCH   2   3
ENDBRANCH   1   2
BRANCH   1   7
HETATM    7  N1  UNL     1      -2.999  36.462  68.158  1.00  0.00    -0.338 N 
HETATM    8  C5  UNL     1      -3.404  35.354  68.928  1.00  0.00     0.253 C 
HETATM    9  O3  UNL     1      -4.291  34.590  68.499  1.00  0.00    -0.270 OA
ATOM     10  H1  UNL     1      -2.271  37.090  68.500  1.00  0.00     0.164 HD
BRANCH   8  11
HETATM   11  C6  UNL     1      -2.771  35.092  70.260  1.00  0.00     0.262 C 
HETATM   12  F1  UNL     1      -1.934  36.180  70.566  1.00  0.00    -0.239 F 
BRANCH  11  13
HETATM   13  C7  UNL     1      -1.926  33.867  70.234  1.00  0.00     0.051 C 
BRANCH  13  14
HETATM   14  C8  UNL     1      -0.733  33.947  69.328  1.00  0.00    -0.011 C 
HETATM   15  C9  UNL     1       0.492  34.342  70.061  1.00  0.00     0.005 C 
HETATM   16  C10 UNL     1       1.408  35.148  69.162  1.00  0.00     0.000 C 
HETATM   17  C11 UNL     1       1.475  34.474  67.812  1.00  0.00     0.000 C 
HETATM   18  C12 UNL     1       1.881  33.054  68.044  1.00  0.00     0.000 C 
HETATM   19  C13 UNL     1       0.792  32.131  68.466  1.00  0.00     0.000 C 
HETATM   20  C14 UNL     1      -0.587  32.707  68.472  1.00  0.00     0.005 C 
ENDBRANCH  13  14
ENDBRANCH  11  13
ENDBRANCH   8  11
ENDBRANCH   1   7
BRANCH   1  21
HETATM   21  N2  UNL     1      -3.087  35.806  65.862  1.00  0.00    -0.339 N 
HETATM   22  C15 UNL     1      -1.688  35.738  65.589  1.00  0.00     0.234 C 
HETATM   23  O4  UNL     1      -0.939  36.486  66.259  1.00  0.00    -0.273 OA
ATOM     24  H2  UNL     1      -3.725  35.210  65.335  1.00  0.00     0.164 HD
BRANCH  22  25
HETATM   25  C16 UNL     1      -1.185  34.810  64.547  1.00  0.00     0.182 C 
BRANCH  25  26
HETATM   26  C17 UNL     1      -1.996  34.834  63.328  1.00  0.00     0.186 C 
HETATM   27  O5  UNL     1      -1.454  35.008  62.212  1.00  0.00    -0.647 OA
HETATM   28  O6  UNL     1      -3.378  34.670  63.340  1.00  0.00    -0.647 OA
ENDBRANCH  25  26
BRANCH  25  29
HETATM   29  C18 UNL     1      -0.892  33.457  65.106  1.00  0.00     0.009 C 
HETATM   30  C19 UNL     1       0.491  33.005  64.622  1.00  0.00     0.006 C 
HETATM   31  C20 UNL     1       0.452  31.501  64.756  1.00  0.00     0.008 C 
HETATM   32  C21 UNL     1      -0.953  31.127  65.076  1.00  0.00     0.026 C 
HETATM   33  C25 UNL     1      -1.737  32.339  64.561  1.00  0.00     0.013 C 
BRANCH  32  34
HETATM   34  C22 UNL     1      -1.419  29.846  64.475  1.00  0.00     0.107 A 
HETATM   35  F2  UNL     1      -2.151  30.010  63.301  1.00  0.00    -0.243 F 
HETATM   36  C23 UNL     1      -0.819  28.543  64.747  1.00  0.00     0.047 A 
HETATM   37  C24 UNL     1      -2.096  28.913  65.490  1.00  0.00     0.047 A 
ENDBRANCH  32  34
ENDBRANCH  25  29
ENDBRANCH  22  25
ENDBRANCH   1  21
TORSDOF 12
ENDMDL
MODEL 5
REMARK VINA RESULT: -8.563102188      5.486      8.883
REMARK  12 active torsions:
REMARK  status: ('A' for Active; 'I' for Inactive)
REMARK    1  A    between atoms: C1_2  and  C2_4 
REMARK    2  A    between atoms: C2_4  and  C3_5 
REMARK    3  A    between atoms: C3_5  and  C4_6 
REMARK    4  A    between atoms: C4_6  and  N1_7 
REMARK    5  A    between atoms: C4_6  and  N2_21 
REMARK       I    between atoms: N1_7  and  C5_9 
REMARK    6  A    between atoms: C5_9  and  C6_11 
REMARK    7  A    between atoms: C6_11  and  C7_13 
REMARK    8  A    between atoms: C7_13  and  C8_14 
REMARK       I    between atoms: N2_21  and  C15_23 
REMARK    9  A    between atoms: C15_23  and  C16_25 
REMARK   10  A    between atoms: C16_25  and  C17_26 
REMARK   11  A    between atoms: C16_25  and  C18_29 
REMARK   12  A    between atoms: C21_32  and  C22_33 
ROOT
HETATM    1  C4  UNL     1      -2.812  32.039  65.016  1.00  0.00     0.187 C 
ENDROOT
BRANCH   1   2
HETATM    2  C3  UNL     1      -2.433  30.668  65.489  1.00  0.00     0.057 C 
BRANCH   2   3
HETATM    3  C2  UNL     1      -2.378  29.658  64.380  1.00  0.00     0.117 C 
BRANCH   3   4
HETATM    4  C1  UNL     1      -1.004  29.135  64.275  1.00  0.00     0.172 C 
HETATM    5  O1  UNL     1      -0.698  28.047  64.798  1.00  0.00    -0.648 OA
HETATM    6  O2  UNL     1      -0.037  29.854  63.590  1.00  0.00    -0.648 OA
ENDBRANCH   3   4
ENDBRANCH   2   3
ENDBRANCH   1   2
BRANCH   1   7
HETATM    7  N1  UNL     1      -1.900  32.460  63.968  1.00  0.00    -0.338 N 
HETATM    8  C5  UNL     1      -2.288  33.491  63.091  1.00  0.00     0.253 C 
HETATM    9  O3  UNL     1      -3.404  34.034  63.224  1.00  0.00    -0.270 OA
ATOM     10  H1  UNL     1      -0.988  32.014  63.869  1.00  0.00     0.164 HD
BRANCH   8  11
HETATM   11  C6  UNL     1      -1.364  33.938  62.000  1.00  0.00     0.262 C 
HETATM   12  F1  UNL     1      -0.253  33.077  61.990  1.00  0.00    -0.239 F 
BRANCH  11  13
HETATM   13  C7  UNL     1      -0.863  35.319  62.238  1.00  0.00     0.051 C 
BRANCH  13  14
HETATM   14  C8  UNL     1       0.009  35.469  63.449  1.00  0.00    -0.011 C 
HETATM   15  C9  UNL     1       1.445  35.318  63.120  1.00  0.00     0.005 C 
HETATM   16  C10 UNL     1       2.192  34.703  64.286  1.00  0.00     0.000 C 
HETATM   17  C11 UNL     1       1.738  35.377  65.559  1.00  0.00     0.000 C 
HETATM   18  C12 UNL     1       1.924  36.848  65.375  1.00  0.00     0.000 C 
HETATM   19  C13 UNL     1       0.856  37.545  64.609  1.00  0.00     0.000 C 
HETATM   20  C14 UNL     1      -0.331  36.714  64.241  1.00  0.00     0.005 C 
ENDBRANCH  13  14
ENDBRANCH  11  13
ENDBRANCH   8  11
ENDBRANCH   1   7
BRANCH   1  21
HETATM   21  N2  UNL     1      -2.851  33.021  66.087  1.00  0.00    -0.339 N 
HETATM   22  C15 UNL     1      -1.668  33.437  66.769  1.00  0.00     0.234 C 
HETATM   23  O4  UNL     1      -0.588  32.920  66.405  1.00  0.00    -0.273 OA
ATOM     24  H2  UNL     1      -3.748  33.423  66.359  1.00  0.00     0.164 HD
BRANCH  22  25
HETATM   25  C16 UNL     1      -1.761  34.441  67.857  1.00  0.00     0.182 C 
BRANCH  25  26
HETATM   26  C17 UNL     1      -2.911  34.220  68.736  1.00  0.00     0.186 C 
HETATM   27  O5  UNL     1      -2.750  34.112  69.973  1.00  0.00    -0.647 OA
HETATM   28  O6  UNL     1      -4.215  34.120  68.258  1.00  0.00    -0.647 OA
ENDBRANCH  25  26
BRANCH  25  29
HETATM   29  C18 UNL     1      -1.594  35.832  67.343  1.00  0.00     0.009 C 
HETATM   30  C19 UNL     1      -0.491  36.533  68.144  1.00  0.00     0.006 C 
HETATM   31  C20 UNL     1      -0.776  38.004  67.951  1.00  0.00     0.008 C 
HETATM   32  C21 UNL     1      -2.097  38.107  67.273  1.00  0.00     0.026 C 
HETATM   33  C25 UNL     1      -2.745  36.761  67.615  1.00  0.00     0.013 C 
BRANCH  32  34
HETATM   34  C22 UNL     1      -2.933  39.267  67.690  1.00  0.00     0.107 A 
HETATM   35  F2  UNL     1      -3.917  38.945  68.622  1.00  0.00    -0.243 F 
HETATM   36  C23 UNL     1      -2.527  40.664  67.559  1.00  0.00     0.047 A 
HETATM   37  C24 UNL     1      -3.463  40.088  66.504  1.00  0.00     0.047 A 
ENDBRANCH  32  34
ENDBRANCH  25  29
ENDBRANCH  22  25
ENDBRANCH   1  21
TORSDOF 12
ENDMDL
