MODEL 1
REMARK VINA RESULT: -5.794710483      0.000      0.000
REMARK  2 active torsions:
REMARK  status: ('A' for Active; 'I' for Inactive)
REMARK    1  A    between atoms: C7_7  and  O1_8 
REMARK    2  A    between atoms: C8_10  and  O2_11 
ROOT
HETATM    1  C1  UNL     1      12.973  16.438  21.125  1.00  0.00     0.010 C 
HETATM    2  C2  UNL     1      14.010  15.788  20.282  1.00  0.00    -0.011 C 
HETATM    3  C3  UNL     1      15.151  16.718  19.965  1.00  0.00     0.010 C 
HETATM    4  C4  UNL     1      15.813  16.036  18.799  1.00  0.00    -0.009 C 
HETATM    5  C5  UNL     1      15.692  16.873  17.534  1.00  0.00     0.012 C 
HETATM    6  C6  UNL     1      14.872  15.767  16.939  1.00  0.00     0.022 C 
HETATM    7  C7  UNL     1      13.418  16.077  16.709  1.00  0.00     0.151 C 
HETATM    8  C8  UNL     1      12.914  16.432  18.114  1.00  0.00     0.152 C 
HETATM    9  C9  UNL     1      13.545  15.358  18.929  1.00  0.00     0.025 C 
HETATM   10  C10 UNL     1      14.872  15.038  18.238  1.00  0.00     0.003 C 
ENDROOT
BRANCH   7  11
HETATM   11  O1  UNL     1      12.785  14.938  16.248  1.00  0.00    -0.393 OA
ATOM     12  H1  UNL     1      12.030  14.762  16.797  1.00  0.00     0.210 HD
ENDBRANCH   7  11
BRANCH   8  13
HETATM   13  O2  UNL     1      11.523  16.392  18.103  1.00  0.00    -0.393 OA
ATOM     14  H2  UNL     1      11.225  16.610  17.228  1.00  0.00     0.210 HD
ENDBRANCH   8  13
TORSDOF 2
ENDMDL
MODEL 2
REMARK VINA RESULT: -5.783270902      1.163      1.565
REMARK  2 active torsions:
REMARK  status: ('A' for Active; 'I' for Inactive)
REMARK    1  A    between atoms: C7_7  and  O1_8 
REMARK    2  A    between atoms: C8_10  and  O2_11 
ROOT
HETATM    1  C1  UNL     1      15.480  16.876  21.435  1.00  0.00     0.010 C 
HETATM    2  C2  UNL     1      15.667  16.197  20.127  1.00  0.00    -0.011 C 
HETATM    3  C3  UNL     1      16.220  17.125  19.077  1.00  0.00     0.010 C 
HETATM    4  C4  UNL     1      15.915  16.391  17.800  1.00  0.00    -0.009 C 
HETATM    5  C5  UNL     1      14.908  17.157  16.955  1.00  0.00     0.012 C 
HETATM    6  C6  UNL     1      13.960  16.009  17.132  1.00  0.00     0.022 C 
HETATM    7  C7  UNL     1      12.742  16.285  17.973  1.00  0.00     0.151 C 
HETATM    8  C8  UNL     1      13.342  16.707  19.320  1.00  0.00     0.152 C 
HETATM    9  C9  UNL     1      14.413  15.688  19.494  1.00  0.00     0.025 C 
HETATM   10  C10 UNL     1      14.899  15.350  18.082  1.00  0.00     0.003 C 
ENDROOT
BRANCH   7  11
HETATM   11  O1  UNL     1      12.023  15.114  18.117  1.00  0.00    -0.393 OA
ATOM     12  H1  UNL     1      11.112  15.330  18.275  1.00  0.00     0.210 HD
ENDBRANCH   7  11
BRANCH   8  13
HETATM   13  O2  UNL     1      12.340  16.646  20.284  1.00  0.00    -0.393 OA
ATOM     14  H2  UNL     1      11.510  16.842  19.864  1.00  0.00     0.210 HD
ENDBRANCH   8  13
TORSDOF 2
ENDMDL
MODEL 3
REMARK VINA RESULT: -5.411809792      1.224      2.708
REMARK  2 active torsions:
REMARK  status: ('A' for Active; 'I' for Inactive)
REMARK    1  A    between atoms: C7_7  and  O1_8 
REMARK    2  A    between atoms: C8_10  and  O2_11 
ROOT
HETATM    1  C1  UNL     1      16.636  17.188  18.052  1.00  0.00     0.010 C 
HETATM    2  C2  UNL     1      15.402  16.909  18.831  1.00  0.00    -0.011 C 
HETATM    3  C3  UNL     1      15.502  15.627  19.617  1.00  0.00     0.010 C 
HETATM    4  C4  UNL     1      14.064  15.333  19.944  1.00  0.00    -0.009 C 
HETATM    5  C5  UNL     1      13.594  14.061  19.255  1.00  0.00     0.012 C 
HETATM    6  C6  UNL     1      12.618  14.898  18.483  1.00  0.00     0.022 C 
HETATM    7  C7  UNL     1      12.884  15.028  17.008  1.00  0.00     0.151 C 
HETATM    8  C8  UNL     1      14.286  15.650  16.964  1.00  0.00     0.152 C 
HETATM    9  C9  UNL     1      14.170  16.701  18.011  1.00  0.00     0.025 C 
HETATM   10  C10 UNL     1      13.199  16.144  19.055  1.00  0.00     0.003 C 
ENDROOT
BRANCH   7  11
HETATM   11  O1  UNL     1      11.959  15.897  16.461  1.00  0.00    -0.393 OA
ATOM     12  H1  UNL     1      12.414  16.527  15.915  1.00  0.00     0.210 HD
ENDBRANCH   7  11
BRANCH   8  13
HETATM   13  O2  UNL     1      14.504  16.148  15.683  1.00  0.00    -0.393 OA
ATOM     14  H2  UNL     1      14.502  17.097  15.727  1.00  0.00     0.210 HD
ENDBRANCH   8  13
TORSDOF 2
ENDMDL
MODEL 4
REMARK VINA RESULT: -5.369815197      1.283      2.139
REMARK  2 active torsions:
REMARK  status: ('A' for Active; 'I' for Inactive)
REMARK    1  A    between atoms: C7_7  and  O1_8 
REMARK    2  A    between atoms: C8_10  and  O2_11 
ROOT
HETATM    1  C1  UNL     1      16.052  16.778  19.904  1.00  0.00     0.010 C 
HETATM    2  C2  UNL     1      15.806  16.232  18.544  1.00  0.00    -0.011 C 
HETATM    3  C3  UNL     1      15.935  17.287  17.476  1.00  0.00     0.010 C 
HETATM    4  C4  UNL     1      15.241  16.650  16.304  1.00  0.00    -0.009 C 
HETATM    5  C5  UNL     1      13.979  17.415  15.933  1.00  0.00     0.012 C 
HETATM    6  C6  UNL     1      13.190  16.191  16.293  1.00  0.00     0.022 C 
HETATM    7  C7  UNL     1      12.322  16.305  17.518  1.00  0.00     0.151 C 
HETATM    8  C8  UNL     1      13.329  16.647  18.623  1.00  0.00     0.152 C 
HETATM    9  C9  UNL     1      14.431  15.695  18.318  1.00  0.00     0.025 C 
HETATM   10  C10 UNL     1      14.419  15.519  16.797  1.00  0.00     0.003 C 
ENDROOT
BRANCH   7  11
HETATM   11  O1  UNL     1      11.737  15.078  17.767  1.00  0.00    -0.393 OA
ATOM     12  H1  UNL     1      12.147  14.424  17.215  1.00  0.00     0.210 HD
ENDBRANCH   7  11
BRANCH   8  13
HETATM   13  O2  UNL     1      12.718  16.430  19.855  1.00  0.00    -0.393 OA
ATOM     14  H2  UNL     1      11.777  16.435  19.725  1.00  0.00     0.210 HD
ENDBRANCH   8  13
TORSDOF 2
ENDMDL
MODEL 5
REMARK VINA RESULT: -5.357740643      2.257      4.499
REMARK  2 active torsions:
REMARK  status: ('A' for Active; 'I' for Inactive)
REMARK    1  A    between atoms: C7_7  and  O1_8 
REMARK    2  A    between atoms: C8_10  and  O2_11 
ROOT
HETATM    1  C1  UNL     1      15.203  15.554  13.854  1.00  0.00     0.010 C 
HETATM    2  C2  UNL     1      13.792  15.964  14.074  1.00  0.00    -0.011 C 
HETATM    3  C3  UNL     1      13.642  17.461  14.160  1.00  0.00     0.010 C 
HETATM    4  C4  UNL     1      12.290  17.615  14.800  1.00  0.00    -0.009 C 
HETATM    5  C5  UNL     1      12.406  18.244  16.181  1.00  0.00     0.012 C 
HETATM    6  C6  UNL     1      11.862  16.969  16.754  1.00  0.00     0.022 C 
HETATM    7  C7  UNL     1      12.825  16.151  17.571  1.00  0.00     0.151 C 
HETATM    8  C8  UNL     1      13.959  15.860  16.579  1.00  0.00     0.152 C 
HETATM    9  C9  UNL     1      13.191  15.495  15.358  1.00  0.00     0.025 C 
HETATM   10  C10 UNL     1      11.904  16.322  15.413  1.00  0.00     0.003 C 
ENDROOT
BRANCH   7  11
HETATM   11  O1  UNL     1      12.206  14.974  17.946  1.00  0.00    -0.393 OA
ATOM     12  H1  UNL     1      12.401  14.304  17.302  1.00  0.00     0.210 HD
ENDBRANCH   7  11
BRANCH   8  13
HETATM   13  O2  UNL     1      14.734  14.825  17.093  1.00  0.00    -0.393 OA
ATOM     14  H2  UNL     1      14.768  14.129  16.447  1.00  0.00     0.210 HD
ENDBRANCH   8  13
TORSDOF 2
ENDMDL
