MODEL 1
REMARK VINA RESULT: -4.814170366      0.000      0.000
REMARK  1 active torsions:
REMARK  status: ('A' for Active; 'I' for Inactive)
REMARK    1  A    between atoms: C2_2  and  C4_4 
ROOT
HETATM    1  C4  UNL     1      15.977 -10.351  45.712  1.00  0.00     0.117 C 
HETATM    2  C5  UNL     1      15.474 -11.156  44.531  1.00  0.00     0.065 C 
HETATM    3  N1  UNL     1      15.294 -10.842  46.860  1.00  0.00    -0.311 N 
ATOM      4  H1  UNL     1      15.003 -11.819  46.896  1.00  0.00     0.182 HD
HETATM    5  N2  UNL     1      15.054 -10.101  47.803  1.00  0.00    -0.332 N 
ATOM      6  H2  UNL     1      14.565 -10.478  48.615  1.00  0.00     0.180 HD
HETATM    7  C6  UNL     1      15.437  -8.730  47.803  1.00  0.00     0.211 C 
HETATM    8  C7  UNL     1      15.426  -8.153  46.416  1.00  0.00     0.110 C 
HETATM    9  N3  UNL     1      15.133  -6.781  46.254  1.00  0.00    -0.086 NA
HETATM   10  N4  UNL     1      15.686  -8.958  45.469  1.00  0.00    -0.353 N 
ATOM     11  H4  UNL     1      15.690  -8.610  44.510  1.00  0.00     0.163 HD
ENDROOT
BRANCH   1  12
HETATM   12  C2  UNL     1      17.456 -10.501  45.917  1.00  0.00     0.027 C 
HETATM   13  C1  UNL     1      17.942 -11.915  45.753  1.00  0.00     0.014 C 
HETATM   14  C3  UNL     1      18.258  -9.625  44.972  1.00  0.00     0.014 C 
ENDBRANCH   1  12
TORSDOF 1
ENDMDL
MODEL 2
REMARK VINA RESULT: -4.802003737      1.902      3.631
REMARK  1 active torsions:
REMARK  status: ('A' for Active; 'I' for Inactive)
REMARK    1  A    between atoms: C2_2  and  C4_4 
ROOT
HETATM    1  C4  UNL     1      16.617 -10.083  45.987  1.00  0.00     0.117 C 
HETATM    2  C5  UNL     1      17.518  -9.852  47.183  1.00  0.00     0.065 C 
HETATM    3  N1  UNL     1      15.549 -10.909  46.435  1.00  0.00    -0.311 N 
ATOM      4  H1  UNL     1      15.235 -10.850  47.404  1.00  0.00     0.182 HD
HETATM    5  N2  UNL     1      15.004 -11.689  45.666  1.00  0.00    -0.332 N 
ATOM      6  H2  UNL     1      14.239 -12.270  46.011  1.00  0.00     0.180 HD
HETATM    7  C6  UNL     1      15.403 -11.812  44.305  1.00  0.00     0.211 C 
HETATM    8  C7  UNL     1      16.872 -11.542  44.133  1.00  0.00     0.110 C 
HETATM    9  N3  UNL     1      17.566 -12.203  43.096  1.00  0.00    -0.086 NA
HETATM   10  N4  UNL     1      17.393 -10.721  44.950  1.00  0.00    -0.353 N 
ATOM     11  H4  UNL     1      18.387 -10.507  44.871  1.00  0.00     0.163 HD
ENDROOT
BRANCH   1  12
HETATM   12  C2  UNL     1      16.054  -8.803  45.441  1.00  0.00     0.027 C 
HETATM   13  C1  UNL     1      15.336  -7.978  46.474  1.00  0.00     0.014 C 
HETATM   14  C3  UNL     1      17.123  -7.928  44.814  1.00  0.00     0.014 C 
ENDBRANCH   1  12
TORSDOF 1
ENDMDL
MODEL 3
REMARK VINA RESULT: -4.740014893      2.494      3.809
REMARK  1 active torsions:
REMARK  status: ('A' for Active; 'I' for Inactive)
REMARK    1  A    between atoms: C2_2  and  C4_4 
ROOT
HETATM    1  C4  UNL     1      15.777 -12.877  44.697  1.00  0.00     0.117 C 
HETATM    2  C5  UNL     1      15.294 -14.065  45.505  1.00  0.00     0.065 C 
HETATM    3  N1  UNL     1      17.199 -12.896  44.756  1.00  0.00    -0.311 N 
ATOM      4  H1  UNL     1      17.690 -13.786  44.845  1.00  0.00     0.182 HD
HETATM    5  N2  UNL     1      17.836 -11.853  44.701  1.00  0.00    -0.332 N 
ATOM      6  H2  UNL     1      18.854 -11.893  44.744  1.00  0.00     0.180 HD
HETATM    7  C6  UNL     1      17.200 -10.586  44.578  1.00  0.00     0.211 C 
HETATM    8  C7  UNL     1      15.858 -10.572  45.254  1.00  0.00     0.110 C 
HETATM    9  N3  UNL     1      15.386  -9.360  45.803  1.00  0.00    -0.086 NA
HETATM   10  N4  UNL     1      15.231 -11.676  45.281  1.00  0.00    -0.353 N 
ATOM     11  H4  UNL     1      14.315 -11.715  45.729  1.00  0.00     0.163 HD
ENDROOT
BRANCH   1  12
HETATM   12  C2  UNL     1      15.344 -12.950  43.262  1.00  0.00     0.027 C 
HETATM   13  C1  UNL     1      15.839 -14.179  42.549  1.00  0.00     0.014 C 
HETATM   14  C3  UNL     1      13.834 -12.909  43.116  1.00  0.00     0.014 C 
ENDBRANCH   1  12
TORSDOF 1
ENDMDL
MODEL 4
REMARK VINA RESULT: -4.689228430      4.562      5.948
REMARK  1 active torsions:
REMARK  status: ('A' for Active; 'I' for Inactive)
REMARK    1  A    between atoms: C2_2  and  C4_4 
ROOT
HETATM    1  C4  UNL     1      15.867 -13.612  43.206  1.00  0.00     0.117 C 
HETATM    2  C5  UNL     1      16.766 -12.914  42.206  1.00  0.00     0.065 C 
HETATM    3  N1  UNL     1      15.578 -12.661  44.225  1.00  0.00    -0.311 N 
ATOM      4  H1  UNL     1      15.543 -11.668  43.996  1.00  0.00     0.182 HD
HETATM    5  N2  UNL     1      15.372 -13.027  45.374  1.00  0.00    -0.332 N 
ATOM      6  H2  UNL     1      15.166 -12.327  46.087  1.00  0.00     0.180 HD
HETATM    7  C6  UNL     1      15.410 -14.400  45.748  1.00  0.00     0.211 C 
HETATM    8  C7  UNL     1      16.392 -15.174  44.913  1.00  0.00     0.110 C 
HETATM    9  N3  UNL     1      17.043 -16.287  45.488  1.00  0.00    -0.086 NA
HETATM   10  N4  UNL     1      16.570 -14.760  43.726  1.00  0.00    -0.353 N 
ATOM     11  H4  UNL     1      17.227 -15.254  43.122  1.00  0.00     0.163 HD
ENDROOT
BRANCH   1  12
HETATM   12  C2  UNL     1      14.581 -14.078  42.590  1.00  0.00     0.027 C 
HETATM   13  C1  UNL     1      13.607 -12.962  42.323  1.00  0.00     0.014 C 
HETATM   14  C3  UNL     1      14.806 -14.816  41.283  1.00  0.00     0.014 C 
ENDBRANCH   1  12
TORSDOF 1
ENDMDL
MODEL 5
REMARK VINA RESULT: -4.687633189      2.272      3.100
REMARK  1 active torsions:
REMARK  status: ('A' for Active; 'I' for Inactive)
REMARK    1  A    between atoms: C2_2  and  C4_4 
ROOT
HETATM    1  C4  UNL     1      15.364 -12.821  44.924  1.00  0.00     0.117 C 
HETATM    2  C5  UNL     1      14.152 -13.086  44.055  1.00  0.00     0.065 C 
HETATM    3  N1  UNL     1      15.232 -13.652  46.072  1.00  0.00    -0.311 N 
ATOM      4  H1  UNL     1      14.747 -14.546  45.996  1.00  0.00     0.182 HD
HETATM    5  N2  UNL     1      15.695 -13.301  47.148  1.00  0.00    -0.332 N 
ATOM      6  H2  UNL     1      15.589 -13.914  47.956  1.00  0.00     0.180 HD
HETATM    7  C6  UNL     1      16.379 -12.062  47.309  1.00  0.00     0.211 C 
HETATM    8  C7  UNL     1      15.841 -11.009  46.381  1.00  0.00     0.110 C 
HETATM    9  N3  UNL     1      15.886  -9.658  46.789  1.00  0.00    -0.086 NA
HETATM   10  N4  UNL     1      15.376 -11.420  45.273  1.00  0.00    -0.353 N 
ATOM     11  H4  UNL     1      15.000 -10.741  44.610  1.00  0.00     0.163 HD
ENDROOT
BRANCH   1  12
HETATM   12  C2  UNL     1      16.650 -13.149  44.225  1.00  0.00     0.027 C 
HETATM   13  C1  UNL     1      16.925 -14.626  44.140  1.00  0.00     0.014 C 
HETATM   14  C3  UNL     1      16.695 -12.591  42.814  1.00  0.00     0.014 C 
ENDBRANCH   1  12
TORSDOF 1
ENDMDL
