MODEL 1
REMARK VINA RESULT: -4.613146849      0.000      0.000
REMARK  2 active torsions:
REMARK  status: ('A' for Active; 'I' for Inactive)
REMARK    1  A    between atoms: O1_1  and  N1_3 
REMARK    2  A    between atoms: C3_6  and  S1_7 
ROOT
HETATM    1  N1  UNL     1      10.004 -13.533  40.240  1.00  0.00    -0.199 NA
HETATM    2  C1  UNL     1      11.031 -14.566  40.117  1.00  0.00     0.121 C 
HETATM    3  C2  UNL     1      12.264 -13.669  39.910  1.00  0.00     0.034 C 
HETATM    4  C3  UNL     1      12.025 -12.672  41.044  1.00  0.00     0.076 C 
HETATM    5  C4  UNL     1      10.543 -12.746  41.342  1.00  0.00     0.136 C 
ENDROOT
BRANCH   1   6
HETATM    6  O1  UNL     1       8.832 -14.110  40.528  1.00  0.00    -0.313 OA
ATOM      7  H1  UNL     1       8.460 -13.695  41.298  1.00  0.00     0.237 HD
ENDBRANCH   1   6
BRANCH   4   8
HETATM    8  S1  UNL     1      13.041 -13.048  42.466  1.00  0.00    -0.079 SA
HETATM    9  S2  UNL     1      14.681 -14.276  41.855  1.00  0.00    -0.013 SA
ENDBRANCH   4   8
TORSDOF 2
ENDMDL
MODEL 2
REMARK VINA RESULT: -4.258975629      1.133      1.301
REMARK  2 active torsions:
REMARK  status: ('A' for Active; 'I' for Inactive)
REMARK    1  A    between atoms: O1_1  and  N1_3 
REMARK    2  A    between atoms: C3_6  and  S1_7 
ROOT
HETATM    1  N1  UNL     1      10.032 -13.708  41.387  1.00  0.00    -0.199 NA
HETATM    2  C1  UNL     1      10.847 -14.450  40.427  1.00  0.00     0.121 C 
HETATM    3  C2  UNL     1      11.826 -13.337  40.016  1.00  0.00     0.034 C 
HETATM    4  C3  UNL     1      12.197 -12.822  41.407  1.00  0.00     0.076 C 
HETATM    5  C4  UNL     1      11.058 -13.243  42.311  1.00  0.00     0.136 C 
ENDROOT
BRANCH   1   6
HETATM    6  O1  UNL     1       9.150 -14.539  41.952  1.00  0.00    -0.313 OA
ATOM      7  H1  UNL     1       8.329 -14.496  41.476  1.00  0.00     0.237 HD
ENDBRANCH   1   6
BRANCH   4   8
HETATM    8  S1  UNL     1      13.780 -13.461  41.937  1.00  0.00    -0.079 SA
HETATM    9  S2  UNL     1      14.210 -12.733  43.901  1.00  0.00    -0.013 SA
ENDBRANCH   4   8
TORSDOF 2
ENDMDL
MODEL 3
REMARK VINA RESULT: -4.130646055      1.626      1.659
REMARK  2 active torsions:
REMARK  status: ('A' for Active; 'I' for Inactive)
REMARK    1  A    between atoms: O1_1  and  N1_3 
REMARK    2  A    between atoms: C3_6  and  S1_7 
ROOT
HETATM    1  N1  UNL     1       9.887 -13.369  41.991  1.00  0.00    -0.199 NA
HETATM    2  C1  UNL     1      10.214 -14.393  41.001  1.00  0.00     0.121 C 
HETATM    3  C2  UNL     1      11.173 -13.584  40.110  1.00  0.00     0.034 C 
HETATM    4  C3  UNL     1      12.054 -12.977  41.202  1.00  0.00     0.076 C 
HETATM    5  C4  UNL     1      11.219 -13.016  42.465  1.00  0.00     0.136 C 
ENDROOT
BRANCH   1   6
HETATM    6  O1  UNL     1       9.115 -13.907  42.942  1.00  0.00    -0.313 OA
ATOM      7  H1  UNL     1       9.649 -14.456  43.505  1.00  0.00     0.237 HD
ENDBRANCH   1   6
BRANCH   4   8
HETATM    8  S1  UNL     1      13.598 -13.864  41.361  1.00  0.00    -0.079 SA
HETATM    9  S2  UNL     1      13.607 -15.510  39.996  1.00  0.00    -0.013 SA
ENDBRANCH   4   8
TORSDOF 2
ENDMDL
MODEL 4
REMARK VINA RESULT: -3.804756518      3.179      3.636
REMARK  2 active torsions:
REMARK  status: ('A' for Active; 'I' for Inactive)
REMARK    1  A    between atoms: O1_1  and  N1_3 
REMARK    2  A    between atoms: C3_6  and  S1_7 
ROOT
HETATM    1  N1  UNL     1      13.105 -15.320  39.531  1.00  0.00    -0.199 NA
HETATM    2  C1  UNL     1      13.159 -14.380  40.649  1.00  0.00     0.121 C 
HETATM    3  C2  UNL     1      12.064 -13.396  40.202  1.00  0.00     0.034 C 
HETATM    4  C3  UNL     1      10.974 -14.404  39.837  1.00  0.00     0.076 C 
HETATM    5  C4  UNL     1      11.700 -15.706  39.569  1.00  0.00     0.136 C 
ENDROOT
BRANCH   1   6
HETATM    6  O1  UNL     1      13.938 -16.339  39.771  1.00  0.00    -0.313 OA
ATOM      7  H1  UNL     1      14.113 -16.798  38.958  1.00  0.00     0.237 HD
ENDBRANCH   1   6
BRANCH   4   8
HETATM    8  S1  UNL     1       9.753 -14.541  41.135  1.00  0.00    -0.079 SA
HETATM    9  S2  UNL     1      10.190 -13.113  42.665  1.00  0.00    -0.013 SA
ENDBRANCH   4   8
TORSDOF 2
ENDMDL
MODEL 5
REMARK VINA RESULT: -3.725329448      2.618      3.104
REMARK  2 active torsions:
REMARK  status: ('A' for Active; 'I' for Inactive)
REMARK    1  A    between atoms: O1_1  and  N1_3 
REMARK    2  A    between atoms: C3_6  and  S1_7 
ROOT
HETATM    1  N1  UNL     1      11.747 -14.930  39.643  1.00  0.00    -0.199 NA
HETATM    2  C1  UNL     1      12.672 -14.248  40.547  1.00  0.00     0.121 C 
HETATM    3  C2  UNL     1      11.973 -12.880  40.636  1.00  0.00     0.034 C 
HETATM    4  C3  UNL     1      10.545 -13.361  40.895  1.00  0.00     0.076 C 
HETATM    5  C4  UNL     1      10.496 -14.782  40.376  1.00  0.00     0.136 C 
ENDROOT
BRANCH   1   6
HETATM    6  O1  UNL     1      12.129 -16.204  39.502  1.00  0.00    -0.313 OA
ATOM      7  H1  UNL     1      12.578 -16.305  38.671  1.00  0.00     0.237 HD
ENDBRANCH   1   6
BRANCH   4   8
HETATM    8  S1  UNL     1      10.119 -13.237  42.627  1.00  0.00    -0.079 SA
HETATM    9  S2  UNL     1       8.969 -14.948  43.193  1.00  0.00    -0.013 SA
ENDBRANCH   4   8
TORSDOF 2
ENDMDL
