MODEL 1
REMARK VINA RESULT: -5.472074201      0.000      0.000
REMARK  4 active torsions:
REMARK  status: ('A' for Active; 'I' for Inactive)
REMARK    1  A    between atoms: N1_1  and  O1_4 
REMARK    2  A    between atoms: O1_4  and  C1_5 
REMARK    3  A    between atoms: C1_5  and  C2_10 
REMARK    4  A    between atoms: N2_6  and  O2_8 
ROOT
HETATM    1  C1  UNL     1      15.485 -11.427  45.358  1.00  0.00     0.169 C 
HETATM    2  N2  UNL     1      15.563 -11.440  46.622  1.00  0.00    -0.249 N 
ATOM      3  H2  UNL     1      15.517 -10.537  47.095  1.00  0.00     0.196 HD
ENDROOT
BRANCH   1   4
HETATM    4  O1  UNL     1      15.343 -10.160  44.757  1.00  0.00    -0.229 OA
BRANCH   4   5
HETATM    5  N1  UNL     1      15.322  -9.018  45.538  1.00  0.00    -0.304 N 
ATOM      6  H12 UNL     1      14.686  -8.975  46.334  1.00  0.00     0.184 HD
ATOM      7  H11 UNL     1      15.936  -8.233  45.316  1.00  0.00     0.184 HD
ENDBRANCH   4   5
ENDBRANCH   1   4
BRANCH   1   8
HETATM    8  C2  UNL     1      15.525 -12.575  44.445  1.00  0.00     0.065 C 
HETATM    9  C3  UNL     1      14.107 -12.822  43.960  1.00  0.00     0.013 C 
HETATM   10  C4  UNL     1      14.083 -13.161  42.478  1.00  0.00     0.001 C 
HETATM   11  C5  UNL     1      15.077 -14.271  42.264  1.00  0.00     0.000 C 
HETATM   12  C6  UNL     1      16.458 -13.769  42.548  1.00  0.00     0.001 C 
HETATM   13  C7  UNL     1      16.435 -12.415  43.277  1.00  0.00     0.013 C 
ENDBRANCH   1   8
BRANCH   2  14
HETATM   14  O2  UNL     1      15.703 -12.530  47.406  1.00  0.00    -0.288 OA
ATOM     15  H2  UNL     1      15.711 -12.545  48.356  1.00  0.00     0.244 HD
ENDBRANCH   2  14
TORSDOF 4
ENDMDL
MODEL 2
REMARK VINA RESULT: -5.223477315      0.877      2.463
REMARK  4 active torsions:
REMARK  status: ('A' for Active; 'I' for Inactive)
REMARK    1  A    between atoms: N1_1  and  O1_4 
REMARK    2  A    between atoms: O1_4  and  C1_5 
REMARK    3  A    between atoms: C1_5  and  C2_10 
REMARK    4  A    between atoms: N2_6  and  O2_8 
ROOT
HETATM    1  C1  UNL     1      15.542 -11.560  45.447  1.00  0.00     0.169 C 
HETATM    2  N2  UNL     1      15.514 -10.336  45.773  1.00  0.00    -0.249 N 
ATOM      3  H2  UNL     1      15.720 -10.115  46.748  1.00  0.00     0.196 HD
ENDROOT
BRANCH   1   4
HETATM    4  O1  UNL     1      15.855 -12.470  46.476  1.00  0.00    -0.229 OA
BRANCH   4   5
HETATM    5  N1  UNL     1      15.789 -12.074  47.800  1.00  0.00    -0.304 N 
ATOM      6  H12 UNL     1      15.252 -11.240  48.039  1.00  0.00     0.184 HD
ATOM      7  H11 UNL     1      16.270 -12.611  48.521  1.00  0.00     0.184 HD
ENDBRANCH   4   5
ENDBRANCH   1   4
BRANCH   1   8
HETATM    8  C2  UNL     1      15.286 -12.142  44.125  1.00  0.00     0.065 C 
HETATM    9  C3  UNL     1      16.339 -13.210  43.884  1.00  0.00     0.013 C 
HETATM   10  C4  UNL     1      15.734 -14.441  43.226  1.00  0.00     0.001 C 
HETATM   11  C5  UNL     1      14.965 -13.962  42.023  1.00  0.00     0.000 C 
HETATM   12  C6  UNL     1      13.808 -13.126  42.469  1.00  0.00     0.001 C 
HETATM   13  C7  UNL     1      13.928 -12.727  43.949  1.00  0.00     0.013 C 
ENDBRANCH   1   8
BRANCH   2  14
HETATM   14  O2  UNL     1      15.238  -9.295  44.959  1.00  0.00    -0.288 OA
ATOM     15  H2  UNL     1      14.455  -8.758  44.975  1.00  0.00     0.244 HD
ENDBRANCH   2  14
TORSDOF 4
ENDMDL
MODEL 3
REMARK VINA RESULT: -5.116302360      2.464      3.699
REMARK  4 active torsions:
REMARK  status: ('A' for Active; 'I' for Inactive)
REMARK    1  A    between atoms: N1_1  and  O1_4 
REMARK    2  A    between atoms: O1_4  and  C1_5 
REMARK    3  A    between atoms: C1_5  and  C2_10 
REMARK    4  A    between atoms: N2_6  and  O2_8 
ROOT
HETATM    1  C1  UNL     1      14.951 -13.018  43.390  1.00  0.00     0.169 C 
HETATM    2  N2  UNL     1      16.168 -12.692  43.513  1.00  0.00    -0.249 N 
ATOM      3  H2  UNL     1      16.556 -12.710  44.457  1.00  0.00     0.196 HD
ENDROOT
BRANCH   1   4
HETATM    4  O1  UNL     1      14.279 -13.369  44.578  1.00  0.00    -0.229 OA
BRANCH   4   5
HETATM    5  N1  UNL     1      14.995 -13.779  45.688  1.00  0.00    -0.304 N 
ATOM      6  H12 UNL     1      15.834 -14.343  45.553  1.00  0.00     0.184 HD
ATOM      7  H11 UNL     1      14.684 -13.519  46.624  1.00  0.00     0.184 HD
ENDBRANCH   4   5
ENDBRANCH   1   4
BRANCH   1   8
HETATM    8  C2  UNL     1      14.157 -13.075  42.157  1.00  0.00     0.065 C 
HETATM    9  C3  UNL     1      14.532 -14.356  41.431  1.00  0.00     0.013 C 
HETATM   10  C4  UNL     1      13.305 -15.032  40.839  1.00  0.00     0.001 C 
HETATM   11  C5  UNL     1      12.570 -13.988  40.040  1.00  0.00     0.000 C 
HETATM   12  C6  UNL     1      12.050 -12.929  40.960  1.00  0.00     0.001 C 
HETATM   13  C7  UNL     1      12.682 -13.025  42.358  1.00  0.00     0.013 C 
ENDBRANCH   1   8
BRANCH   2  14
HETATM   14  O2  UNL     1      17.004 -12.320  42.519  1.00  0.00    -0.288 OA
ATOM     15  H2  UNL     1      17.512 -12.899  41.964  1.00  0.00     0.244 HD
ENDBRANCH   2  14
TORSDOF 4
ENDMDL
MODEL 4
REMARK VINA RESULT: -5.078327972      3.695      4.847
REMARK  4 active torsions:
REMARK  status: ('A' for Active; 'I' for Inactive)
REMARK    1  A    between atoms: N1_1  and  O1_4 
REMARK    2  A    between atoms: O1_4  and  C1_5 
REMARK    3  A    between atoms: C1_5  and  C2_10 
REMARK    4  A    between atoms: N2_6  and  O2_8 
ROOT
HETATM    1  C1  UNL     1      13.775 -13.338  42.464  1.00  0.00     0.169 C 
HETATM    2  N2  UNL     1      14.408 -13.013  43.512  1.00  0.00    -0.249 N 
ATOM      3  H2  UNL     1      15.327 -13.438  43.644  1.00  0.00     0.196 HD
ENDROOT
BRANCH   1   4
HETATM    4  O1  UNL     1      14.420 -14.251  41.605  1.00  0.00    -0.229 OA
BRANCH   4   5
HETATM    5  N1  UNL     1      15.776 -14.490  41.735  1.00  0.00    -0.304 N 
ATOM      6  H12 UNL     1      16.090 -15.213  42.383  1.00  0.00     0.184 HD
ATOM      7  H11 UNL     1      16.447 -13.948  41.191  1.00  0.00     0.184 HD
ENDBRANCH   4   5
ENDBRANCH   1   4
BRANCH   1   8
HETATM    8  C2  UNL     1      12.449 -12.876  42.038  1.00  0.00     0.065 C 
HETATM    9  C3  UNL     1      12.212 -13.400  40.632  1.00  0.00     0.013 C 
HETATM   10  C4  UNL     1      10.783 -13.891  40.460  1.00  0.00     0.001 C 
HETATM   11  C5  UNL     1       9.879 -12.784  40.934  1.00  0.00     0.000 C 
HETATM   12  C6  UNL     1      10.068 -12.577  42.403  1.00  0.00     0.001 C 
HETATM   13  C7  UNL     1      11.326 -13.291  42.924  1.00  0.00     0.013 C 
ENDBRANCH   1   8
BRANCH   2  14
HETATM   14  O2  UNL     1      13.989 -12.161  44.471  1.00  0.00    -0.288 OA
ATOM     15  H2  UNL     1      13.088 -11.999  44.727  1.00  0.00     0.244 HD
ENDBRANCH   2  14
TORSDOF 4
ENDMDL
MODEL 5
REMARK VINA RESULT: -5.078101998      1.203      2.725
REMARK  4 active torsions:
REMARK  status: ('A' for Active; 'I' for Inactive)
REMARK    1  A    between atoms: N1_1  and  O1_4 
REMARK    2  A    between atoms: O1_4  and  C1_5 
REMARK    3  A    between atoms: C1_5  and  C2_10 
REMARK    4  A    between atoms: N2_6  and  O2_8 
ROOT
HETATM    1  C1  UNL     1      15.057 -12.163  45.015  1.00  0.00     0.169 C 
HETATM    2  N2  UNL     1      15.339 -11.038  45.523  1.00  0.00    -0.249 N 
ATOM      3  H2  UNL     1      15.678 -11.040  46.485  1.00  0.00     0.196 HD
ENDROOT
BRANCH   1   4
HETATM    4  O1  UNL     1      15.247 -13.286  45.846  1.00  0.00    -0.229 OA
BRANCH   4   5
HETATM    5  N1  UNL     1      15.670 -13.121  47.153  1.00  0.00    -0.304 N 
ATOM      6  H12 UNL     1      15.287 -12.351  47.702  1.00  0.00     0.184 HD
ATOM      7  H11 UNL     1      16.354 -13.761  47.556  1.00  0.00     0.184 HD
ENDBRANCH   4   5
ENDBRANCH   1   4
BRANCH   1   8
HETATM    8  C2  UNL     1      14.555 -12.437  43.664  1.00  0.00     0.065 C 
HETATM    9  C3  UNL     1      15.518 -13.412  43.007  1.00  0.00     0.013 C 
HETATM   10  C4  UNL     1      14.772 -14.471  42.210  1.00  0.00     0.001 C 
HETATM   11  C5  UNL     1      13.816 -13.744  41.301  1.00  0.00     0.000 C 
HETATM   12  C6  UNL     1      12.780 -13.043  42.121  1.00  0.00     0.001 C 
HETATM   13  C7  UNL     1      13.171 -12.984  43.607  1.00  0.00     0.013 C 
ENDBRANCH   1   8
BRANCH   2  14
HETATM   14  O2  UNL     1      15.234  -9.836  44.918  1.00  0.00    -0.288 OA
ATOM     15  H2  UNL     1      14.727  -9.093  45.222  1.00  0.00     0.244 HD
ENDBRANCH   2  14
TORSDOF 4
ENDMDL
