MODEL 1
REMARK VINA RESULT: -9.240625432      0.000      0.000
REMARK  16 active torsions:
REMARK  status: ('A' for Active; 'I' for Inactive)
REMARK    1  A    between atoms: N1_2  and  C3_4 
REMARK    2  A    between atoms: C3_4  and  C4_5 
REMARK    3  A    between atoms: C4_5  and  C5_6 
REMARK    4  A    between atoms: C5_6  and  N2_7 
REMARK    5  A    between atoms: N2_7  and  S1_9 
REMARK    6  A    between atoms: S1_9  and  C6_12 
REMARK    7  A    between atoms: C8_16  and  C9_17 
REMARK       I    between atoms: C9_17  and  N4_19 
REMARK    8  A    between atoms: N4_19  and  C10_21 
REMARK    9  A    between atoms: C10_21  and  C11_22 
REMARK       I    between atoms: C11_22  and  N5_24 
REMARK   10  A    between atoms: N5_24  and  C12_26 
REMARK   11  A    between atoms: C12_26  and  C13_27 
REMARK   12  A    between atoms: C13_27  and  C14_28 
REMARK   13  A    between atoms: C15_29  and  N6_30 
REMARK   14  A    between atoms: C16_35  and  C17_36 
REMARK   15  A    between atoms: C17_36  and  O5_37 
REMARK   16  A    between atoms: O5_37  and  C18_38 
ROOT
HETATM    1  C11 UNL     1      33.493  -8.517  -2.517  1.00  0.00     0.235 C 
HETATM    2  O4  UNL     1      32.942  -7.606  -1.824  1.00  0.00    -0.272 OA
HETATM    3  N5  UNL     1      33.620  -8.295  -3.904  1.00  0.00    -0.359 N 
ATOM      4  H5  UNL     1      34.042  -9.009  -4.498  1.00  0.00     0.162 HD
ENDROOT
BRANCH   3   5
HETATM    5  C12 UNL     1      33.152  -7.061  -4.483  1.00  0.00     0.127 C 
BRANCH   5   6
HETATM    6  C13 UNL     1      34.178  -6.175  -5.061  1.00  0.00     0.063 C 
BRANCH   6   7
HETATM    7  C14 UNL     1      35.198  -5.593  -4.213  1.00  0.00    -0.002 A 
HETATM    8  C15 UNL     1      34.922  -4.443  -3.484  1.00  0.00     0.106 A 
HETATM    9  N7  UNL     1      35.888  -3.781  -2.820  1.00  0.00    -0.343 N 
HETATM   10  C16 UNL     1      37.150  -4.197  -2.825  1.00  0.00     0.046 A 
ATOM     11  H7  UNL     1      35.645  -2.938  -2.300  1.00  0.00     0.167 HD
HETATM   12  C24 UNL     1      37.485  -5.331  -3.518  1.00  0.00    -0.000 A 
HETATM   13  C25 UNL     1      38.805  -5.705  -3.589  1.00  0.00     0.014 A 
HETATM   14  C29 UNL     1      36.504  -6.051  -4.229  1.00  0.00    -0.014 A 
HETATM   15  C26 UNL     1      39.147  -6.800  -4.364  1.00  0.00     0.001 A 
HETATM   16  C27 UNL     1      38.211  -7.510  -5.060  1.00  0.00     0.001 A 
HETATM   17  C28 UNL     1      36.863  -7.132  -4.991  1.00  0.00     0.013 A 
BRANCH   8  18
HETATM   18  N6  UNL     1      33.724  -4.015  -3.415  1.00  0.00    -0.385 N 
ATOM     19  H62 UNL     1      32.997  -4.638  -3.064  1.00  0.00     0.157 HD
ATOM     20  H61 UNL     1      33.509  -3.070  -3.732  1.00  0.00     0.157 HD
ENDBRANCH   8  18
BRANCH  10  21
HETATM   21  C17 UNL     1      38.226  -3.408  -2.046  1.00  0.00     0.233 C 
BRANCH  21  22
HETATM   22  O5  UNL     1      38.140  -3.854  -0.792  1.00  0.00    -0.345 OA
BRANCH  22  23
HETATM   23  C18 UNL     1      38.125  -4.640   0.231  1.00  0.00     0.071 A 
HETATM   24  C19 UNL     1      38.816  -5.812   0.395  1.00  0.00     0.040 A 
HETATM   25  C20 UNL     1      38.690  -6.571   1.519  1.00  0.00     0.047 A 
HETATM   26  C21 UNL     1      37.855  -6.161   2.514  1.00  0.00     0.138 A 
HETATM   27  F1  UNL     1      37.735  -6.976   3.603  1.00  0.00    -0.204 F 
HETATM   28  C22 UNL     1      37.130  -4.994   2.424  1.00  0.00     0.075 A 
HETATM   29 CL1  UNL     1      36.072  -4.537   3.735  1.00  0.00    -0.081 Cl
HETATM   30  C23 UNL     1      37.266  -4.250   1.301  1.00  0.00     0.063 A 
ENDBRANCH  22  23
ENDBRANCH  21  22
ENDBRANCH  10  21
ENDBRANCH   6   7
ENDBRANCH   5   6
ENDBRANCH   3   5
BRANCH   1  31
HETATM   31  C10 UNL     1      33.964  -9.758  -1.788  1.00  0.00     0.225 C 
BRANCH  31  32
HETATM   32  N4  UNL     1      34.338  -9.243  -0.452  1.00  0.00    -0.347 N 
HETATM   33  C9  UNL     1      35.092 -10.081   0.358  1.00  0.00     0.268 C 
HETATM   34  O3  UNL     1      35.486 -11.192  -0.176  1.00  0.00    -0.266 OA
ATOM     35  H4  UNL     1      34.054  -8.314  -0.141  1.00  0.00     0.163 HD
BRANCH  33  36
HETATM   36  C8  UNL     1      35.457  -9.842   1.752  1.00  0.00     0.102 A 
HETATM   37  N3  UNL     1      35.203  -8.885   2.618  1.00  0.00    -0.360 N 
HETATM   38  C7  UNL     1      35.583  -9.248   3.888  1.00  0.00     0.113 A 
ATOM     39  H3  UNL     1      34.780  -7.989   2.378  1.00  0.00     0.165 HD
HETATM   40  C6  UNL     1      36.111 -10.509   3.826  1.00  0.00     0.097 A 
HETATM   41  C30 UNL     1      36.043 -10.880   2.508  1.00  0.00     0.062 A 
BRANCH  40  42
HETATM   42  S1  UNL     1      36.625 -11.610   5.091  1.00  0.00     0.260 S 
HETATM   43  O1  UNL     1      35.401 -12.183   5.771  1.00  0.00    -0.200 OA
HETATM   44  O2  UNL     1      37.367 -12.786   4.506  1.00  0.00    -0.200 OA
BRANCH  42  45
HETATM   45  N2  UNL     1      37.620 -10.839   6.266  1.00  0.00    -0.315 N 
ATOM     46  H2  UNL     1      37.548  -9.880   6.604  1.00  0.00     0.172 HD
BRANCH  45  47
HETATM   47  C5  UNL     1      38.580 -11.840   6.669  1.00  0.00     0.137 C 
BRANCH  47  48
HETATM   48  C4  UNL     1      39.785 -11.358   7.384  1.00  0.00     0.064 C 
BRANCH  48  49
HETATM   49  C3  UNL     1      40.355 -12.519   8.168  1.00  0.00     0.058 C 
BRANCH  49  50
HETATM   50  N1  UNL     1      40.278 -12.433   9.563  1.00  0.00    -0.402 N 
HETATM   51  C1  UNL     1      39.972 -11.213  10.181  1.00  0.00     0.148 C 
HETATM   52  C2  UNL     1      40.857 -13.472  10.336  1.00  0.00     0.148 C 
ENDBRANCH  49  50
ENDBRANCH  48  49
ENDBRANCH  47  48
ENDBRANCH  45  47
ENDBRANCH  42  45
ENDBRANCH  40  42
ENDBRANCH  33  36
ENDBRANCH  31  32
ENDBRANCH   1  31
TORSDOF 16
ENDMDL
MODEL 2
REMARK VINA RESULT: -9.003354179      4.750      9.186
REMARK  16 active torsions:
REMARK  status: ('A' for Active; 'I' for Inactive)
REMARK    1  A    between atoms: N1_2  and  C3_4 
REMARK    2  A    between atoms: C3_4  and  C4_5 
REMARK    3  A    between atoms: C4_5  and  C5_6 
REMARK    4  A    between atoms: C5_6  and  N2_7 
REMARK    5  A    between atoms: N2_7  and  S1_9 
REMARK    6  A    between atoms: S1_9  and  C6_12 
REMARK    7  A    between atoms: C8_16  and  C9_17 
REMARK       I    between atoms: C9_17  and  N4_19 
REMARK    8  A    between atoms: N4_19  and  C10_21 
REMARK    9  A    between atoms: C10_21  and  C11_22 
REMARK       I    between atoms: C11_22  and  N5_24 
REMARK   10  A    between atoms: N5_24  and  C12_26 
REMARK   11  A    between atoms: C12_26  and  C13_27 
REMARK   12  A    between atoms: C13_27  and  C14_28 
REMARK   13  A    between atoms: C15_29  and  N6_30 
REMARK   14  A    between atoms: C16_35  and  C17_36 
REMARK   15  A    between atoms: C17_36  and  O5_37 
REMARK   16  A    between atoms: O5_37  and  C18_38 
ROOT
HETATM    1  C11 UNL     1      34.482 -12.800   2.976  1.00  0.00     0.235 C 
HETATM    2  O4  UNL     1      34.500 -14.069   3.033  1.00  0.00    -0.272 OA
HETATM    3  N5  UNL     1      34.189 -12.207   1.730  1.00  0.00    -0.359 N 
ATOM      4  H5  UNL     1      34.180 -11.191   1.639  1.00  0.00     0.162 HD
ENDROOT
BRANCH   3   5
HETATM    5  C12 UNL     1      33.904 -13.035   0.586  1.00  0.00     0.127 C 
BRANCH   5   6
HETATM    6  C13 UNL     1      32.944 -12.497  -0.393  1.00  0.00     0.063 C 
BRANCH   6   7
HETATM    7  C14 UNL     1      33.420 -11.874  -1.611  1.00  0.00    -0.002 A 
HETATM    8  C15 UNL     1      33.624 -10.500  -1.655  1.00  0.00     0.106 A 
HETATM    9  N7  UNL     1      33.902  -9.866  -2.809  1.00  0.00    -0.343 N 
HETATM   10  C16 UNL     1      34.000 -10.521  -3.961  1.00  0.00     0.046 A 
ATOM     11  H7  UNL     1      34.041  -8.856  -2.800  1.00  0.00     0.167 HD
HETATM   12  C24 UNL     1      33.819 -11.880  -3.982  1.00  0.00    -0.000 A 
HETATM   13  C25 UNL     1      33.837 -12.536  -5.189  1.00  0.00     0.014 A 
HETATM   14  C29 UNL     1      33.523 -12.581  -2.797  1.00  0.00    -0.014 A 
HETATM   15  C26 UNL     1      33.565 -13.894  -5.213  1.00  0.00     0.001 A 
HETATM   16  C27 UNL     1      33.275 -14.590  -4.075  1.00  0.00     0.001 A 
HETATM   17  C28 UNL     1      33.256 -13.925  -2.841  1.00  0.00     0.013 A 
BRANCH   8  18
HETATM   18  N6  UNL     1      33.575  -9.824  -0.577  1.00  0.00    -0.385 N 
ATOM     19  H62 UNL     1      33.063 -10.201   0.220  1.00  0.00     0.157 HD
ATOM     20  H61 UNL     1      34.029  -8.911  -0.535  1.00  0.00     0.157 HD
ENDBRANCH   8  18
BRANCH  10  21
HETATM   21  C17 UNL     1      34.325  -9.753  -5.261  1.00  0.00     0.233 C 
BRANCH  21  22
HETATM   22  O5  UNL     1      33.198  -9.111  -5.573  1.00  0.00    -0.345 OA
BRANCH  22  23
HETATM   23  C18 UNL     1      32.274  -8.511  -6.246  1.00  0.00     0.071 A 
HETATM   24  C19 UNL     1      31.238  -7.760  -5.756  1.00  0.00     0.040 A 
HETATM   25  C20 UNL     1      30.305  -7.200  -6.576  1.00  0.00     0.047 A 
HETATM   26  C21 UNL     1      30.397  -7.386  -7.922  1.00  0.00     0.138 A 
HETATM   27  F1  UNL     1      29.417  -6.835  -8.696  1.00  0.00    -0.204 F 
HETATM   28  C22 UNL     1      31.412  -8.123  -8.489  1.00  0.00     0.075 A 
HETATM   29 CL1  UNL     1      31.462  -8.327 -10.222  1.00  0.00    -0.081 Cl
HETATM   30  C23 UNL     1      32.332  -8.674  -7.662  1.00  0.00     0.063 A 
ENDBRANCH  22  23
ENDBRANCH  21  22
ENDBRANCH  10  21
ENDBRANCH   6   7
ENDBRANCH   5   6
ENDBRANCH   3   5
BRANCH   1  31
HETATM   31  C10 UNL     1      34.776 -12.041   4.253  1.00  0.00     0.225 C 
BRANCH  31  32
HETATM   32  N4  UNL     1      34.727 -10.626   3.823  1.00  0.00    -0.347 N 
HETATM   33  C9  UNL     1      35.941  -9.998   3.581  1.00  0.00     0.268 C 
HETATM   34  O3  UNL     1      36.996 -10.744   3.652  1.00  0.00    -0.266 OA
ATOM     35  H4  UNL     1      33.840 -10.134   3.710  1.00  0.00     0.163 HD
BRANCH  33  36
HETATM   36  C8  UNL     1      36.141  -8.581   3.284  1.00  0.00     0.102 A 
HETATM   37  N3  UNL     1      35.916  -7.464   3.940  1.00  0.00    -0.360 N 
HETATM   38  C7  UNL     1      36.507  -6.391   3.314  1.00  0.00     0.113 A 
ATOM     39  H3  UNL     1      35.374  -7.400   4.801  1.00  0.00     0.165 HD
HETATM   40  C6  UNL     1      37.141  -6.854   2.193  1.00  0.00     0.097 A 
HETATM   41  C30 UNL     1      36.914  -8.206   2.164  1.00  0.00     0.062 A 
BRANCH  40  42
HETATM   42  S1  UNL     1      38.207  -6.051   1.055  1.00  0.00     0.260 S 
HETATM   43  O1  UNL     1      38.527  -4.666   1.573  1.00  0.00    -0.200 OA
HETATM   44  O2  UNL     1      39.528  -6.776   0.959  1.00  0.00    -0.200 OA
BRANCH  42  45
HETATM   45  N2  UNL     1      37.514  -5.926  -0.516  1.00  0.00    -0.315 N 
ATOM     46  H2  UNL     1      37.399  -6.672  -1.202  1.00  0.00     0.172 HD
BRANCH  45  47
HETATM   47  C5  UNL     1      37.129  -4.541  -0.655  1.00  0.00     0.137 C 
BRANCH  47  48
HETATM   48  C4  UNL     1      35.692  -4.229  -0.480  1.00  0.00     0.064 C 
BRANCH  48  49
HETATM   49  C3  UNL     1      35.022  -4.356  -1.831  1.00  0.00     0.058 C 
BRANCH  49  50
HETATM   50  N1  UNL     1      34.495  -5.612  -2.154  1.00  0.00    -0.402 N 
HETATM   51  C1  UNL     1      33.918  -6.414  -1.160  1.00  0.00     0.148 C 
HETATM   52  C2  UNL     1      34.870  -6.204  -3.387  1.00  0.00     0.148 C 
ENDBRANCH  49  50
ENDBRANCH  48  49
ENDBRANCH  47  48
ENDBRANCH  45  47
ENDBRANCH  42  45
ENDBRANCH  40  42
ENDBRANCH  33  36
ENDBRANCH  31  32
ENDBRANCH   1  31
TORSDOF 16
ENDMDL
MODEL 3
REMARK VINA RESULT: -8.838674315      3.011      5.079
REMARK  16 active torsions:
REMARK  status: ('A' for Active; 'I' for Inactive)
REMARK    1  A    between atoms: N1_2  and  C3_4 
REMARK    2  A    between atoms: C3_4  and  C4_5 
REMARK    3  A    between atoms: C4_5  and  C5_6 
REMARK    4  A    between atoms: C5_6  and  N2_7 
REMARK    5  A    between atoms: N2_7  and  S1_9 
REMARK    6  A    between atoms: S1_9  and  C6_12 
REMARK    7  A    between atoms: C8_16  and  C9_17 
REMARK       I    between atoms: C9_17  and  N4_19 
REMARK    8  A    between atoms: N4_19  and  C10_21 
REMARK    9  A    between atoms: C10_21  and  C11_22 
REMARK       I    between atoms: C11_22  and  N5_24 
REMARK   10  A    between atoms: N5_24  and  C12_26 
REMARK   11  A    between atoms: C12_26  and  C13_27 
REMARK   12  A    between atoms: C13_27  and  C14_28 
REMARK   13  A    between atoms: C15_29  and  N6_30 
REMARK   14  A    between atoms: C16_35  and  C17_36 
REMARK   15  A    between atoms: C17_36  and  O5_37 
REMARK   16  A    between atoms: O5_37  and  C18_38 
ROOT
HETATM    1  C11 UNL     1      37.039  -7.826   2.493  1.00  0.00     0.235 C 
HETATM    2  O4  UNL     1      36.693  -7.211   3.550  1.00  0.00    -0.272 OA
HETATM    3  N5  UNL     1      38.133  -7.310   1.766  1.00  0.00    -0.359 N 
ATOM      4  H5  UNL     1      38.432  -7.766   0.904  1.00  0.00     0.162 HD
ENDROOT
BRANCH   3   5
HETATM    5  C12 UNL     1      38.827  -6.140   2.240  1.00  0.00     0.127 C 
BRANCH   5   6
HETATM    6  C13 UNL     1      38.480  -4.862   1.594  1.00  0.00     0.063 C 
BRANCH   6   7
HETATM    7  C14 UNL     1      37.509  -4.831   0.520  1.00  0.00    -0.002 A 
HETATM    8  C15 UNL     1      36.154  -4.720   0.810  1.00  0.00     0.106 A 
HETATM    9  N7  UNL     1      35.216  -4.856  -0.146  1.00  0.00    -0.343 N 
HETATM   10  C16 UNL     1      35.538  -5.098  -1.413  1.00  0.00     0.046 A 
ATOM     11  H7  UNL     1      34.232  -4.772   0.109  1.00  0.00     0.167 HD
HETATM   12  C24 UNL     1      36.858  -5.207  -1.765  1.00  0.00    -0.000 A 
HETATM   13  C25 UNL     1      37.178  -5.541  -3.058  1.00  0.00     0.014 A 
HETATM   14  C29 UNL     1      37.871  -5.075  -0.794  1.00  0.00    -0.014 A 
HETATM   15  C26 UNL     1      38.509  -5.739  -3.386  1.00  0.00     0.001 A 
HETATM   16  C27 UNL     1      39.504  -5.615  -2.460  1.00  0.00     0.001 A 
HETATM   17  C28 UNL     1      39.183  -5.275  -1.138  1.00  0.00     0.013 A 
BRANCH   8  18
HETATM   18  N6  UNL     1      35.787  -4.457   2.001  1.00  0.00    -0.385 N 
ATOM     19  H62 UNL     1      36.100  -3.588   2.433  1.00  0.00     0.157 HD
ATOM     20  H61 UNL     1      35.207  -5.127   2.507  1.00  0.00     0.157 HD
ENDBRANCH   8  18
BRANCH  10  21
HETATM   21  C17 UNL     1      34.428  -5.243  -2.477  1.00  0.00     0.233 C 
BRANCH  21  22
HETATM   22  O5  UNL     1      34.018  -6.508  -2.377  1.00  0.00    -0.345 OA
BRANCH  22  23
HETATM   23  C18 UNL     1      34.010  -7.781  -2.168  1.00  0.00     0.071 A 
HETATM   24  C19 UNL     1      33.944  -8.430  -0.963  1.00  0.00     0.040 A 
HETATM   25  C20 UNL     1      33.974  -9.789  -0.875  1.00  0.00     0.047 A 
HETATM   26  C21 UNL     1      34.071 -10.533  -2.011  1.00  0.00     0.138 A 
HETATM   27  F1  UNL     1      34.135 -11.888  -1.866  1.00  0.00    -0.204 F 
HETATM   28  C22 UNL     1      34.136  -9.954  -3.258  1.00  0.00     0.075 A 
HETATM   29 CL1  UNL     1      34.269 -10.970  -4.672  1.00  0.00    -0.081 Cl
HETATM   30  C23 UNL     1      34.106  -8.602  -3.331  1.00  0.00     0.063 A 
ENDBRANCH  22  23
ENDBRANCH  21  22
ENDBRANCH  10  21
ENDBRANCH   6   7
ENDBRANCH   5   6
ENDBRANCH   3   5
BRANCH   1  31
HETATM   31  C10 UNL     1      36.245  -9.058   2.113  1.00  0.00     0.225 C 
BRANCH  31  32
HETATM   32  N4  UNL     1      36.622 -10.038   3.155  1.00  0.00    -0.347 N 
HETATM   33  C9  UNL     1      35.774 -11.121   3.339  1.00  0.00     0.268 C 
HETATM   34  O3  UNL     1      34.790 -11.225   2.505  1.00  0.00    -0.266 OA
ATOM     35  H4  UNL     1      37.468  -9.922   3.714  1.00  0.00     0.163 HD
BRANCH  33  36
HETATM   36  C8  UNL     1      35.870 -12.131   4.390  1.00  0.00     0.102 A 
HETATM   37  N3  UNL     1      35.299 -13.296   4.600  1.00  0.00    -0.360 N 
HETATM   38  C7  UNL     1      35.913 -13.975   5.627  1.00  0.00     0.113 A 
ATOM     39  H3  UNL     1      34.503 -13.651   4.071  1.00  0.00     0.165 HD
HETATM   40  C6  UNL     1      36.932 -13.194   6.098  1.00  0.00     0.097 A 
HETATM   41  C30 UNL     1      36.908 -12.048   5.344  1.00  0.00     0.062 A 
BRANCH  40  42
HETATM   42  S1  UNL     1      38.194 -13.524   7.271  1.00  0.00     0.260 S 
HETATM   43  O1  UNL     1      38.091 -14.969   7.709  1.00  0.00    -0.200 OA
HETATM   44  O2  UNL     1      39.558 -13.374   6.644  1.00  0.00    -0.200 OA
BRANCH  42  45
HETATM   45  N2  UNL     1      38.089 -12.502   8.652  1.00  0.00    -0.315 N 
ATOM     46  H2  UNL     1      37.306 -12.416   9.300  1.00  0.00     0.172 HD
BRANCH  45  47
HETATM   47  C5  UNL     1      39.345 -11.790   8.698  1.00  0.00     0.137 C 
BRANCH  47  48
HETATM   48  C4  UNL     1      40.021 -11.717  10.013  1.00  0.00     0.064 C 
BRANCH  48  49
HETATM   49  C3  UNL     1      41.374 -12.381   9.876  1.00  0.00     0.058 C 
BRANCH  49  50
HETATM   50  N1  UNL     1      41.376 -13.736   9.525  1.00  0.00    -0.402 N 
HETATM   51  C1  UNL     1      40.728 -14.678  10.335  1.00  0.00     0.148 C 
HETATM   52  C2  UNL     1      42.323 -14.183   8.568  1.00  0.00     0.148 C 
ENDBRANCH  49  50
ENDBRANCH  48  49
ENDBRANCH  47  48
ENDBRANCH  45  47
ENDBRANCH  42  45
ENDBRANCH  40  42
ENDBRANCH  33  36
ENDBRANCH  31  32
ENDBRANCH   1  31
TORSDOF 16
ENDMDL
MODEL 4
REMARK VINA RESULT: -8.834120573      2.912      5.034
REMARK  16 active torsions:
REMARK  status: ('A' for Active; 'I' for Inactive)
REMARK    1  A    between atoms: N1_2  and  C3_4 
REMARK    2  A    between atoms: C3_4  and  C4_5 
REMARK    3  A    between atoms: C4_5  and  C5_6 
REMARK    4  A    between atoms: C5_6  and  N2_7 
REMARK    5  A    between atoms: N2_7  and  S1_9 
REMARK    6  A    between atoms: S1_9  and  C6_12 
REMARK    7  A    between atoms: C8_16  and  C9_17 
REMARK       I    between atoms: C9_17  and  N4_19 
REMARK    8  A    between atoms: N4_19  and  C10_21 
REMARK    9  A    between atoms: C10_21  and  C11_22 
REMARK       I    between atoms: C11_22  and  N5_24 
REMARK   10  A    between atoms: N5_24  and  C12_26 
REMARK   11  A    between atoms: C12_26  and  C13_27 
REMARK   12  A    between atoms: C13_27  and  C14_28 
REMARK   13  A    between atoms: C15_29  and  N6_30 
REMARK   14  A    between atoms: C16_35  and  C17_36 
REMARK   15  A    between atoms: C17_36  and  O5_37 
REMARK   16  A    between atoms: O5_37  and  C18_38 
ROOT
HETATM    1  C11 UNL     1      36.953  -7.836   2.142  1.00  0.00     0.235 C 
HETATM    2  O4  UNL     1      36.744  -7.276   3.264  1.00  0.00    -0.272 OA
HETATM    3  N5  UNL     1      38.051  -7.383   1.382  1.00  0.00    -0.359 N 
ATOM      4  H5  UNL     1      38.243  -7.796   0.469  1.00  0.00     0.162 HD
ENDROOT
BRANCH   3   5
HETATM    5  C12 UNL     1      38.901  -6.337   1.893  1.00  0.00     0.127 C 
BRANCH   5   6
HETATM    6  C13 UNL     1      38.560  -4.960   1.496  1.00  0.00     0.063 C 
BRANCH   6   7
HETATM    7  C14 UNL     1      37.623  -4.725   0.417  1.00  0.00    -0.002 A 
HETATM    8  C15 UNL     1      36.269  -4.574   0.692  1.00  0.00     0.106 A 
HETATM    9  N7  UNL     1      35.352  -4.523  -0.291  1.00  0.00    -0.343 N 
HETATM   10  C16 UNL     1      35.695  -4.608  -1.572  1.00  0.00     0.046 A 
ATOM     11  H7  UNL     1      34.367  -4.416  -0.047  1.00  0.00     0.167 HD
HETATM   12  C24 UNL     1      37.016  -4.746  -1.910  1.00  0.00    -0.000 A 
HETATM   13  C25 UNL     1      37.352  -4.919  -3.231  1.00  0.00     0.014 A 
HETATM   14  C29 UNL     1      38.007  -4.808  -0.910  1.00  0.00    -0.014 A 
HETATM   15  C26 UNL     1      38.678  -5.149  -3.556  1.00  0.00     0.001 A 
HETATM   16  C27 UNL     1      39.653  -5.212  -2.602  1.00  0.00     0.001 A 
HETATM   17  C28 UNL     1      39.315  -5.036  -1.253  1.00  0.00     0.013 A 
BRANCH   8  18
HETATM   18  N6  UNL     1      35.884  -4.455   1.901  1.00  0.00    -0.385 N 
ATOM     19  H62 UNL     1      36.339  -3.764   2.498  1.00  0.00     0.157 HD
ATOM     20  H61 UNL     1      35.146  -5.064   2.255  1.00  0.00     0.157 HD
ENDBRANCH   8  18
BRANCH  10  21
HETATM   21  C17 UNL     1      34.608  -4.540  -2.669  1.00  0.00     0.233 C 
BRANCH  21  22
HETATM   22  O5  UNL     1      34.194  -5.798  -2.821  1.00  0.00    -0.345 OA
BRANCH  22  23
HETATM   23  C18 UNL     1      34.193  -7.074  -3.019  1.00  0.00     0.071 A 
HETATM   24  C19 UNL     1      34.882  -7.771  -3.976  1.00  0.00     0.040 A 
HETATM   25  C20 UNL     1      34.772  -9.123  -4.101  1.00  0.00     0.047 A 
HETATM   26  C21 UNL     1      33.956  -9.810  -3.254  1.00  0.00     0.138 A 
HETATM   27  F1  UNL     1      33.852 -11.157  -3.445  1.00  0.00    -0.204 F 
HETATM   28  C22 UNL     1      33.235  -9.181  -2.265  1.00  0.00     0.075 A 
HETATM   29 CL1  UNL     1      32.201 -10.124  -1.222  1.00  0.00    -0.081 Cl
HETATM   30  C23 UNL     1      33.355  -7.837  -2.153  1.00  0.00     0.063 A 
ENDBRANCH  22  23
ENDBRANCH  21  22
ENDBRANCH  10  21
ENDBRANCH   6   7
ENDBRANCH   5   6
ENDBRANCH   3   5
BRANCH   1  31
HETATM   31  C10 UNL     1      36.003  -8.939   1.727  1.00  0.00     0.225 C 
BRANCH  31  32
HETATM   32  N4  UNL     1      36.575 -10.139   2.377  1.00  0.00    -0.347 N 
HETATM   33  C9  UNL     1      35.885 -10.658   3.463  1.00  0.00     0.268 C 
HETATM   34  O3  UNL     1      34.748 -10.102   3.738  1.00  0.00    -0.266 OA
ATOM     35  H4  UNL     1      37.438 -10.567   2.040  1.00  0.00     0.163 HD
BRANCH  33  36
HETATM   36  C8  UNL     1      36.328 -11.743   4.336  1.00  0.00     0.102 A 
HETATM   37  N3  UNL     1      36.229 -13.053   4.295  1.00  0.00    -0.360 N 
HETATM   38  C7  UNL     1      37.029 -13.643   5.246  1.00  0.00     0.113 A 
ATOM     39  H3  UNL     1      35.636 -13.566   3.643  1.00  0.00     0.165 HD
HETATM   40  C6  UNL     1      37.670 -12.649   5.933  1.00  0.00     0.097 A 
HETATM   41  C30 UNL     1      37.237 -11.471   5.381  1.00  0.00     0.062 A 
BRANCH  40  42
HETATM   42  S1  UNL     1      38.937 -12.714   7.145  1.00  0.00     0.260 S 
HETATM   43  O1  UNL     1      39.714 -14.001   6.975  1.00  0.00    -0.200 OA
HETATM   44  O2  UNL     1      39.930 -11.597   6.939  1.00  0.00    -0.200 OA
BRANCH  42  45
HETATM   45  N2  UNL     1      38.314 -12.632   8.748  1.00  0.00    -0.315 N 
ATOM     46  H2  UNL     1      37.410 -12.968   9.078  1.00  0.00     0.172 HD
BRANCH  45  47
HETATM   47  C5  UNL     1      39.345 -11.984   9.525  1.00  0.00     0.137 C 
BRANCH  47  48
HETATM   48  C4  UNL     1      40.255 -12.866  10.291  1.00  0.00     0.064 C 
BRANCH  48  49
HETATM   49  C3  UNL     1      41.665 -12.614   9.802  1.00  0.00     0.058 C 
BRANCH  49  50
HETATM   50  N1  UNL     1      42.332 -13.701   9.225  1.00  0.00    -0.402 N 
HETATM   51  C1  UNL     1      42.597 -14.851   9.980  1.00  0.00     0.148 C 
HETATM   52  C2  UNL     1      43.044 -13.490   8.016  1.00  0.00     0.148 C 
ENDBRANCH  49  50
ENDBRANCH  48  49
ENDBRANCH  47  48
ENDBRANCH  45  47
ENDBRANCH  42  45
ENDBRANCH  40  42
ENDBRANCH  33  36
ENDBRANCH  31  32
ENDBRANCH   1  31
TORSDOF 16
ENDMDL
MODEL 5
REMARK VINA RESULT: -8.821834975      3.892      6.301
REMARK  16 active torsions:
REMARK  status: ('A' for Active; 'I' for Inactive)
REMARK    1  A    between atoms: N1_2  and  C3_4 
REMARK    2  A    between atoms: C3_4  and  C4_5 
REMARK    3  A    between atoms: C4_5  and  C5_6 
REMARK    4  A    between atoms: C5_6  and  N2_7 
REMARK    5  A    between atoms: N2_7  and  S1_9 
REMARK    6  A    between atoms: S1_9  and  C6_12 
REMARK    7  A    between atoms: C8_16  and  C9_17 
REMARK       I    between atoms: C9_17  and  N4_19 
REMARK    8  A    between atoms: N4_19  and  C10_21 
REMARK    9  A    between atoms: C10_21  and  C11_22 
REMARK       I    between atoms: C11_22  and  N5_24 
REMARK   10  A    between atoms: N5_24  and  C12_26 
REMARK   11  A    between atoms: C12_26  and  C13_27 
REMARK   12  A    between atoms: C13_27  and  C14_28 
REMARK   13  A    between atoms: C15_29  and  N6_30 
REMARK   14  A    between atoms: C16_35  and  C17_36 
REMARK   15  A    between atoms: C17_36  and  O5_37 
REMARK   16  A    between atoms: O5_37  and  C18_38 
ROOT
HETATM    1  C11 UNL     1      38.787  -5.753  -0.460  1.00  0.00     0.235 C 
HETATM    2  O4  UNL     1      39.732  -5.736  -1.309  1.00  0.00    -0.272 OA
HETATM    3  N5  UNL     1      37.466  -5.722  -0.953  1.00  0.00    -0.359 N 
ATOM      4  H5  UNL     1      36.680  -5.720  -0.304  1.00  0.00     0.162 HD
ENDROOT
BRANCH   3   5
HETATM    5  C12 UNL     1      37.226  -5.694  -2.374  1.00  0.00     0.127 C 
BRANCH   5   6
HETATM    6  C13 UNL     1      35.878  -5.289  -2.806  1.00  0.00     0.063 C 
BRANCH   6   7
HETATM    7  C14 UNL     1      34.800  -6.256  -2.828  1.00  0.00    -0.002 A 
HETATM    8  C15 UNL     1      34.020  -6.455  -1.695  1.00  0.00     0.106 A 
HETATM    9  N7  UNL     1      33.124  -7.457  -1.623  1.00  0.00    -0.343 N 
HETATM   10  C16 UNL     1      32.937  -8.301  -2.632  1.00  0.00     0.046 A 
ATOM     11  H7  UNL     1      32.575  -7.571  -0.772  1.00  0.00     0.167 HD
HETATM   12  C24 UNL     1      33.668  -8.152  -3.782  1.00  0.00    -0.000 A 
HETATM   13  C25 UNL     1      33.530  -9.080  -4.785  1.00  0.00     0.014 A 
HETATM   14  C29 UNL     1      34.619  -7.118  -3.896  1.00  0.00    -0.014 A 
HETATM   15  C26 UNL     1      34.336  -8.974  -5.906  1.00  0.00     0.001 A 
HETATM   16  C27 UNL     1      35.263  -7.980  -6.035  1.00  0.00     0.001 A 
HETATM   17  C28 UNL     1      35.408  -7.031  -5.014  1.00  0.00     0.013 A 
BRANCH   8  18
HETATM   18  N6  UNL     1      34.133  -5.657  -0.709  1.00  0.00    -0.385 N 
ATOM     19  H62 UNL     1      34.071  -4.652  -0.877  1.00  0.00     0.157 HD
ATOM     20  H61 UNL     1      34.304  -6.032   0.224  1.00  0.00     0.157 HD
ENDBRANCH   8  18
BRANCH  10  21
HETATM   21  C17 UNL     1      31.895  -9.435  -2.507  1.00  0.00     0.233 C 
BRANCH  21  22
HETATM   22  O5  UNL     1      32.542 -10.433  -1.904  1.00  0.00    -0.345 OA
BRANCH  22  23
HETATM   23  C18 UNL     1      33.028 -11.600  -1.646  1.00  0.00     0.071 A 
HETATM   24  C19 UNL     1      32.785 -12.382  -0.547  1.00  0.00     0.040 A 
HETATM   25  C20 UNL     1      33.388 -13.591  -0.376  1.00  0.00     0.047 A 
HETATM   26  C21 UNL     1      34.257 -14.046  -1.321  1.00  0.00     0.138 A 
HETATM   27  F1  UNL     1      34.863 -15.246  -1.085  1.00  0.00    -0.204 F 
HETATM   28  C22 UNL     1      34.548 -13.321  -2.454  1.00  0.00     0.075 A 
HETATM   29 CL1  UNL     1      35.681 -13.962  -3.618  1.00  0.00    -0.081 Cl
HETATM   30  C23 UNL     1      33.942 -12.120  -2.610  1.00  0.00     0.063 A 
ENDBRANCH  22  23
ENDBRANCH  21  22
ENDBRANCH  10  21
ENDBRANCH   6   7
ENDBRANCH   5   6
ENDBRANCH   3   5
BRANCH   1  31
HETATM   31  C10 UNL     1      39.168  -5.807   1.005  1.00  0.00     0.225 C 
BRANCH  31  32
HETATM   32  N4  UNL     1      38.370  -6.941   1.520  1.00  0.00    -0.347 N 
HETATM   33  C9  UNL     1      37.411  -6.653   2.481  1.00  0.00     0.268 C 
HETATM   34  O3  UNL     1      37.235  -5.400   2.756  1.00  0.00    -0.266 OA
ATOM     35  H4  UNL     1      38.518  -7.892   1.183  1.00  0.00     0.163 HD
BRANCH  33  36
HETATM   36  C8  UNL     1      36.608  -7.621   3.224  1.00  0.00     0.102 A 
HETATM   37  N3  UNL     1      35.607  -7.527   4.071  1.00  0.00    -0.360 N 
HETATM   38  C7  UNL     1      35.038  -8.756   4.309  1.00  0.00     0.113 A 
ATOM     39  H3  UNL     1      35.292  -6.655   4.497  1.00  0.00     0.165 HD
HETATM   40  C6  UNL     1      35.720  -9.686   3.573  1.00  0.00     0.097 A 
HETATM   41  C30 UNL     1      36.697  -8.993   2.905  1.00  0.00     0.062 A 
BRANCH  40  42
HETATM   42  S1  UNL     1      35.413 -11.390   3.294  1.00  0.00     0.260 S 
HETATM   43  O1  UNL     1      35.367 -11.642   1.802  1.00  0.00    -0.200 OA
HETATM   44  O2  UNL     1      36.548 -12.231   3.825  1.00  0.00    -0.200 OA
BRANCH  42  45
HETATM   45  N2  UNL     1      33.936 -11.915   4.006  1.00  0.00    -0.315 N 
ATOM     46  H2  UNL     1      32.995 -11.807   3.628  1.00  0.00     0.172 HD
BRANCH  45  47
HETATM   47  C5  UNL     1      34.313 -12.540   5.252  1.00  0.00     0.137 C 
BRANCH  47  48
HETATM   48  C4  UNL     1      33.896 -13.948   5.444  1.00  0.00     0.064 C 
BRANCH  48  49
HETATM   49  C3  UNL     1      35.134 -14.814   5.365  1.00  0.00     0.058 C 
BRANCH  49  50
HETATM   50  N1  UNL     1      35.426 -15.377   4.117  1.00  0.00    -0.402 N 
HETATM   51  C1  UNL     1      34.443 -15.441   3.121  1.00  0.00     0.148 C 
HETATM   52  C2  UNL     1      36.582 -16.192   3.999  1.00  0.00     0.148 C 
ENDBRANCH  49  50
ENDBRANCH  48  49
ENDBRANCH  47  48
ENDBRANCH  45  47
ENDBRANCH  42  45
ENDBRANCH  40  42
ENDBRANCH  33  36
ENDBRANCH  31  32
ENDBRANCH   1  31
TORSDOF 16
ENDMDL
