MODEL 1
REMARK VINA RESULT: -8.816563081      0.000      0.000
REMARK  19 active torsions:
REMARK  status: ('A' for Active; 'I' for Inactive)
REMARK    1  A    between atoms: N1_1  and  C1_5 
REMARK    2  A    between atoms: C1_5  and  C2_6 
REMARK    3  A    between atoms: C2_6  and  C3_7 
REMARK    4  A    between atoms: C3_7  and  C4_8 
REMARK    5  A    between atoms: C4_8  and  N2_9 
REMARK    6  A    between atoms: N2_9  and  C5_11 
REMARK    7  A    between atoms: C5_11  and  N3_13 
REMARK    8  A    between atoms: N3_13  and  C6_15 
REMARK    9  A    between atoms: C6_15  and  C7_16 
REMARK   10  A    between atoms: C9_18  and  N4_19 
REMARK   11  A    between atoms: N4_19  and  S2_21 
REMARK   12  A    between atoms: S2_21  and  C10_24 
REMARK   13  A    between atoms: C13_27  and  C14_28 
REMARK       I    between atoms: C14_28  and  N5_30 
REMARK   14  A    between atoms: N5_30  and  C15_32 
REMARK   15  A    between atoms: C15_32  and  C16_33 
REMARK   16  A    between atoms: C16_33  and  C17_34 
REMARK   17  A    between atoms: C17_34  and  C18_35 
REMARK   18  A    between atoms: C18_35  and  N6_36 
REMARK       I    between atoms: N6_36  and  C19_38 
REMARK   19  A    between atoms: C19_38  and  C20_40 
ROOT
HETATM    1  S2  UNL     1      37.475  -5.423   2.043  1.00  0.00     0.264 S 
HETATM    2  O1  UNL     1      36.725  -4.528   2.973  1.00  0.00    -0.200 OA
HETATM    3  O2  UNL     1      38.970  -5.261   2.268  1.00  0.00    -0.200 OA
ENDROOT
BRANCH   1   4
HETATM    4  N4  UNL     1      37.062  -5.047   0.426  1.00  0.00    -0.266 N 
ATOM      5  H4  UNL     1      37.786  -4.737  -0.222  1.00  0.00     0.180 HD
BRANCH   4   6
HETATM    6  C9  UNL     1      35.862  -5.151   0.027  1.00  0.00     0.117 A 
HETATM    7  C8  UNL     1      35.347  -6.252  -0.610  1.00  0.00     0.075 A 
HETATM    8  C7  UNL     1      33.993  -6.300  -0.993  1.00  0.00     0.031 A 
HETATM    9  N8  UNL     1      33.250  -5.235  -0.711  1.00  0.00    -0.354 N 
HETATM   10  C28 UNL     1      33.734  -4.150  -0.090  1.00  0.00     0.182 A 
ATOM     11  H8  UNL     1      32.266  -5.245  -0.979  1.00  0.00     0.166 HD
HETATM   12  N7  UNL     1      35.024  -4.129   0.265  1.00  0.00    -0.338 N 
ATOM     13  H7  UNL     1      35.386  -3.300   0.737  1.00  0.00     0.168 HD
BRANCH   8  14
HETATM   14  C6  UNL     1      33.440  -7.501  -1.658  1.00  0.00     0.179 C 
BRANCH  14  15
HETATM   15  N3  UNL     1      33.456  -8.674  -0.827  1.00  0.00    -0.362 N 
ATOM     16  H3  UNL     1      33.289  -8.534   0.170  1.00  0.00     0.162 HD
BRANCH  15  17
HETATM   17  C5  UNL     1      33.679  -9.985  -1.248  1.00  0.00     0.167 C 
HETATM   18  S1  UNL     1      33.983 -10.269  -2.851  1.00  0.00    -0.041 SA
BRANCH  17  19
HETATM   19  N2  UNL     1      33.655 -11.079  -0.380  1.00  0.00    -0.367 N 
ATOM     20  H2  UNL     1      34.419 -11.212   0.282  1.00  0.00     0.161 HD
BRANCH  19  21
HETATM   21  C4  UNL     1      32.563 -12.027  -0.405  1.00  0.00     0.122 C 
BRANCH  21  22
HETATM   22  C3  UNL     1      33.075 -13.443  -0.535  1.00  0.00     0.021 C 
BRANCH  22  23
HETATM   23  C2  UNL     1      33.194 -13.871  -1.977  1.00  0.00     0.029 C 
BRANCH  23  24
HETATM   24  C1  UNL     1      34.638 -13.935  -2.426  1.00  0.00     0.229 C 
BRANCH  24  25
HETATM   25  N1  UNL     1      35.143 -15.268  -2.161  1.00  0.00    -0.079 N 
ATOM     26  H13 UNL     1      35.996 -15.260  -1.602  1.00  0.00     0.274 HD
ATOM     27  H12 UNL     1      34.554 -15.788  -1.510  1.00  0.00     0.274 HD
ATOM     28  H11 UNL     1      35.263 -15.751  -3.052  1.00  0.00     0.274 HD
ENDBRANCH  24  25
ENDBRANCH  23  24
ENDBRANCH  22  23
ENDBRANCH  21  22
ENDBRANCH  19  21
ENDBRANCH  17  19
ENDBRANCH  15  17
ENDBRANCH  14  15
ENDBRANCH   8  14
ENDBRANCH   4   6
ENDBRANCH   1   4
BRANCH   1  29
HETATM   29  C10 UNL     1      37.030  -7.086   2.436  1.00  0.00     0.081 A 
HETATM   30  C11 UNL     1      37.303  -8.111   1.563  1.00  0.00     0.026 A 
HETATM   31  C12 UNL     1      36.961  -9.413   1.883  1.00  0.00     0.020 A 
HETATM   32  C13 UNL     1      36.329  -9.751   3.087  1.00  0.00     0.053 A 
HETATM   33  C26 UNL     1      36.063  -8.710   3.948  1.00  0.00     0.051 A 
HETATM   34 CL1  UNL     1      35.291  -9.020   5.501  1.00  0.00    -0.083 Cl
HETATM   35  C27 UNL     1      36.409  -7.396   3.624  1.00  0.00     0.050 A 
BRANCH  32  36
HETATM   36  C14 UNL     1      35.988 -11.141   3.363  1.00  0.00     0.253 C 
HETATM   37  O3  UNL     1      36.866 -11.885   3.855  1.00  0.00    -0.268 OA
HETATM   38  N5  UNL     1      34.705 -11.704   3.102  1.00  0.00    -0.357 N 
ATOM     39  H5  UNL     1      33.997 -11.090   2.701  1.00  0.00     0.162 HD
BRANCH  38  40
HETATM   40  C15 UNL     1      34.333 -13.057   3.356  1.00  0.00     0.123 C 
BRANCH  40  41
HETATM   41  C16 UNL     1      33.579 -13.195   4.627  1.00  0.00     0.021 C 
BRANCH  41  42
HETATM   42  C17 UNL     1      34.087 -14.322   5.502  1.00  0.00     0.021 C 
BRANCH  42  43
HETATM   43  C18 UNL     1      35.544 -14.557   5.333  1.00  0.00     0.123 C 
BRANCH  43  44
HETATM   44  N6  UNL     1      36.352 -13.633   6.134  1.00  0.00    -0.357 N 
HETATM   45  C19 UNL     1      37.462 -14.073   6.851  1.00  0.00     0.254 C 
HETATM   46  O4  UNL     1      37.803 -15.323   6.800  1.00  0.00    -0.268 OA
ATOM     47  H6  UNL     1      36.096 -12.646   6.167  1.00  0.00     0.162 HD
BRANCH  45  48
HETATM   48  C20 UNL     1      38.299 -13.193   7.683  1.00  0.00     0.070 A 
HETATM   49  C21 UNL     1      38.274 -13.371   9.070  1.00  0.00     0.020 A 
HETATM   50  C22 UNL     1      39.035 -12.611   9.905  1.00  0.00     0.001 A 
HETATM   51  C23 UNL     1      39.878 -11.618   9.421  1.00  0.00     0.003 A 
HETATM   52  C24 UNL     1      39.893 -11.454   8.056  1.00  0.00     0.043 A 
HETATM   53  C25 UNL     1      39.116 -12.228   7.188  1.00  0.00     0.132 A 
HETATM   54  F1  UNL     1      39.230 -11.923   5.885  1.00  0.00    -0.205 F 
ENDBRANCH  45  48
ENDBRANCH  43  44
ENDBRANCH  42  43
ENDBRANCH  41  42
ENDBRANCH  40  41
ENDBRANCH  38  40
ENDBRANCH  32  36
ENDBRANCH   1  29
TORSDOF 19
ENDMDL
MODEL 2
REMARK VINA RESULT: -8.287582130      1.193      1.625
REMARK  19 active torsions:
REMARK  status: ('A' for Active; 'I' for Inactive)
REMARK    1  A    between atoms: N1_1  and  C1_5 
REMARK    2  A    between atoms: C1_5  and  C2_6 
REMARK    3  A    between atoms: C2_6  and  C3_7 
REMARK    4  A    between atoms: C3_7  and  C4_8 
REMARK    5  A    between atoms: C4_8  and  N2_9 
REMARK    6  A    between atoms: N2_9  and  C5_11 
REMARK    7  A    between atoms: C5_11  and  N3_13 
REMARK    8  A    between atoms: N3_13  and  C6_15 
REMARK    9  A    between atoms: C6_15  and  C7_16 
REMARK   10  A    between atoms: C9_18  and  N4_19 
REMARK   11  A    between atoms: N4_19  and  S2_21 
REMARK   12  A    between atoms: S2_21  and  C10_24 
REMARK   13  A    between atoms: C13_27  and  C14_28 
REMARK       I    between atoms: C14_28  and  N5_30 
REMARK   14  A    between atoms: N5_30  and  C15_32 
REMARK   15  A    between atoms: C15_32  and  C16_33 
REMARK   16  A    between atoms: C16_33  and  C17_34 
REMARK   17  A    between atoms: C17_34  and  C18_35 
REMARK   18  A    between atoms: C18_35  and  N6_36 
REMARK       I    between atoms: N6_36  and  C19_38 
REMARK   19  A    between atoms: C19_38  and  C20_40 
ROOT
HETATM    1  S2  UNL     1      37.052  -5.397   2.104  1.00  0.00     0.264 S 
HETATM    2  O1  UNL     1      36.840  -4.603   3.350  1.00  0.00    -0.200 OA
HETATM    3  O2  UNL     1      38.503  -5.284   1.664  1.00  0.00    -0.200 OA
ENDROOT
BRANCH   1   4
HETATM    4  N4  UNL     1      36.001  -4.834   0.878  1.00  0.00    -0.266 N 
ATOM      5  H4  UNL     1      35.251  -4.185   1.113  1.00  0.00     0.180 HD
BRANCH   4   6
HETATM    6  C9  UNL     1      36.148  -5.218  -0.323  1.00  0.00     0.117 A 
HETATM    7  C8  UNL     1      35.145  -5.738  -1.101  1.00  0.00     0.075 A 
HETATM    8  C7  UNL     1      35.385  -6.112  -2.437  1.00  0.00     0.031 A 
HETATM    9  N8  UNL     1      36.619  -5.939  -2.898  1.00  0.00    -0.354 N 
HETATM   10  C28 UNL     1      37.613  -5.434  -2.154  1.00  0.00     0.182 A 
ATOM     11  H8  UNL     1      36.819  -6.204  -3.863  1.00  0.00     0.166 HD
HETATM   12  N7  UNL     1      37.360  -5.084  -0.887  1.00  0.00    -0.338 N 
ATOM     13  H7  UNL     1      38.120  -4.701  -0.326  1.00  0.00     0.168 HD
BRANCH   8  14
HETATM   14  C6  UNL     1      34.292  -6.651  -3.277  1.00  0.00     0.179 C 
BRANCH  14  15
HETATM   15  N3  UNL     1      33.271  -7.328  -2.522  1.00  0.00    -0.362 N 
ATOM     16  H3  UNL     1      32.926  -6.854  -1.687  1.00  0.00     0.162 HD
BRANCH  15  17
HETATM   17  C5  UNL     1      32.706  -8.568  -2.820  1.00  0.00     0.167 C 
HETATM   18  S1  UNL     1      32.681  -9.078  -4.395  1.00  0.00    -0.041 SA
BRANCH  17  19
HETATM   19  N2  UNL     1      32.154  -9.407  -1.849  1.00  0.00    -0.367 N 
ATOM     20  H2  UNL     1      31.293  -9.130  -1.377  1.00  0.00     0.161 HD
BRANCH  19  21
HETATM   21  C4  UNL     1      32.783 -10.662  -1.502  1.00  0.00     0.122 C 
BRANCH  21  22
HETATM   22  C3  UNL     1      34.147 -10.436  -0.893  1.00  0.00     0.021 C 
BRANCH  22  23
HETATM   23  C2  UNL     1      34.729 -11.708  -0.325  1.00  0.00     0.029 C 
BRANCH  23  24
HETATM   24  C1  UNL     1      33.678 -12.785  -0.167  1.00  0.00     0.229 C 
BRANCH  24  25
HETATM   25  N1  UNL     1      34.319 -14.077  -0.311  1.00  0.00    -0.079 N 
ATOM     26  H13 UNL     1      35.285 -14.074   0.016  1.00  0.00     0.274 HD
ATOM     27  H12 UNL     1      33.953 -14.771   0.342  1.00  0.00     0.274 HD
ATOM     28  H11 UNL     1      34.236 -14.372  -1.284  1.00  0.00     0.274 HD
ENDBRANCH  24  25
ENDBRANCH  23  24
ENDBRANCH  22  23
ENDBRANCH  21  22
ENDBRANCH  19  21
ENDBRANCH  17  19
ENDBRANCH  15  17
ENDBRANCH  14  15
ENDBRANCH   8  14
ENDBRANCH   4   6
ENDBRANCH   1   4
BRANCH   1  29
HETATM   29  C10 UNL     1      36.719  -7.088   2.491  1.00  0.00     0.081 A 
HETATM   30  C11 UNL     1      37.033  -8.087   1.603  1.00  0.00     0.026 A 
HETATM   31  C12 UNL     1      36.779  -9.410   1.918  1.00  0.00     0.020 A 
HETATM   32  C13 UNL     1      36.198  -9.796   3.134  1.00  0.00     0.053 A 
HETATM   33  C26 UNL     1      35.889  -8.780   4.010  1.00  0.00     0.051 A 
HETATM   34 CL1  UNL     1      35.175  -9.149   5.578  1.00  0.00    -0.083 Cl
HETATM   35  C27 UNL     1      36.147  -7.445   3.691  1.00  0.00     0.050 A 
BRANCH  32  36
HETATM   36  C14 UNL     1      35.949 -11.206   3.404  1.00  0.00     0.253 C 
HETATM   37  O3  UNL     1      36.897 -11.912   3.813  1.00  0.00    -0.268 OA
HETATM   38  N5  UNL     1      34.680 -11.830   3.227  1.00  0.00    -0.357 N 
ATOM     39  H5  UNL     1      33.913 -11.246   2.893  1.00  0.00     0.162 HD
BRANCH  38  40
HETATM   40  C15 UNL     1      34.396 -13.205   3.478  1.00  0.00     0.123 C 
BRANCH  40  41
HETATM   41  C16 UNL     1      33.597 -13.388   4.715  1.00  0.00     0.021 C 
BRANCH  41  42
HETATM   42  C17 UNL     1      34.173 -14.433   5.648  1.00  0.00     0.021 C 
BRANCH  42  43
HETATM   43  C18 UNL     1      35.628 -14.643   5.433  1.00  0.00     0.123 C 
BRANCH  43  44
HETATM   44  N6  UNL     1      36.445 -13.692   6.191  1.00  0.00    -0.357 N 
HETATM   45  C19 UNL     1      37.510 -14.118   6.981  1.00  0.00     0.254 C 
HETATM   46  O4  UNL     1      37.801 -15.380   7.038  1.00  0.00    -0.268 OA
ATOM     47  H6  UNL     1      36.229 -12.696   6.139  1.00  0.00     0.162 HD
BRANCH  45  48
HETATM   48  C20 UNL     1      38.353 -13.209   7.775  1.00  0.00     0.070 A 
HETATM   49  C21 UNL     1      38.350 -13.348   9.167  1.00  0.00     0.020 A 
HETATM   50  C22 UNL     1      39.118 -12.559   9.969  1.00  0.00     0.001 A 
HETATM   51  C23 UNL     1      39.947 -11.575   9.445  1.00  0.00     0.003 A 
HETATM   52  C24 UNL     1      39.941 -11.450   8.075  1.00  0.00     0.043 A 
HETATM   53  C25 UNL     1      39.156 -12.254   7.241  1.00  0.00     0.132 A 
HETATM   54  F1  UNL     1      39.250 -11.985   5.929  1.00  0.00    -0.205 F 
ENDBRANCH  45  48
ENDBRANCH  43  44
ENDBRANCH  42  43
ENDBRANCH  41  42
ENDBRANCH  40  41
ENDBRANCH  38  40
ENDBRANCH  32  36
ENDBRANCH   1  29
TORSDOF 19
ENDMDL
MODEL 3
REMARK VINA RESULT: -8.262521195      3.466      5.880
REMARK  19 active torsions:
REMARK  status: ('A' for Active; 'I' for Inactive)
REMARK    1  A    between atoms: N1_1  and  C1_5 
REMARK    2  A    between atoms: C1_5  and  C2_6 
REMARK    3  A    between atoms: C2_6  and  C3_7 
REMARK    4  A    between atoms: C3_7  and  C4_8 
REMARK    5  A    between atoms: C4_8  and  N2_9 
REMARK    6  A    between atoms: N2_9  and  C5_11 
REMARK    7  A    between atoms: C5_11  and  N3_13 
REMARK    8  A    between atoms: N3_13  and  C6_15 
REMARK    9  A    between atoms: C6_15  and  C7_16 
REMARK   10  A    between atoms: C9_18  and  N4_19 
REMARK   11  A    between atoms: N4_19  and  S2_21 
REMARK   12  A    between atoms: S2_21  and  C10_24 
REMARK   13  A    between atoms: C13_27  and  C14_28 
REMARK       I    between atoms: C14_28  and  N5_30 
REMARK   14  A    between atoms: N5_30  and  C15_32 
REMARK   15  A    between atoms: C15_32  and  C16_33 
REMARK   16  A    between atoms: C16_33  and  C17_34 
REMARK   17  A    between atoms: C17_34  and  C18_35 
REMARK   18  A    between atoms: C18_35  and  N6_36 
REMARK       I    between atoms: N6_36  and  C19_38 
REMARK   19  A    between atoms: C19_38  and  C20_40 
ROOT
HETATM    1  S2  UNL     1      32.380  -8.904  -3.429  1.00  0.00     0.264 S 
HETATM    2  O1  UNL     1      32.755 -10.022  -4.344  1.00  0.00    -0.200 OA
HETATM    3  O2  UNL     1      30.914  -9.027  -3.042  1.00  0.00    -0.200 OA
ENDROOT
BRANCH   1   4
HETATM    4  N4  UNL     1      32.679  -7.406  -4.200  1.00  0.00    -0.266 N 
ATOM      5  H4  UNL     1      31.990  -6.657  -4.135  1.00  0.00     0.180 HD
BRANCH   4   6
HETATM    6  C9  UNL     1      33.752  -7.220  -4.851  1.00  0.00     0.117 A 
HETATM    7  C8  UNL     1      34.854  -6.565  -4.362  1.00  0.00     0.075 A 
HETATM    8  C7  UNL     1      36.019  -6.428  -5.140  1.00  0.00     0.031 A 
HETATM    9  N8  UNL     1      35.995  -6.959  -6.358  1.00  0.00    -0.354 N 
HETATM   10  C28 UNL     1      34.929  -7.602  -6.854  1.00  0.00     0.182 A 
ATOM     11  H8  UNL     1      36.827  -6.872  -6.942  1.00  0.00     0.166 HD
HETATM   12  N7  UNL     1      33.833  -7.720  -6.095  1.00  0.00    -0.338 N 
ATOM     13  H7  UNL     1      33.025  -8.210  -6.477  1.00  0.00     0.168 HD
BRANCH   8  14
HETATM   14  C6  UNL     1      37.213  -5.740  -4.598  1.00  0.00     0.179 C 
BRANCH  14  15
HETATM   15  N3  UNL     1      37.687  -6.307  -3.363  1.00  0.00    -0.362 N 
ATOM     16  H3  UNL     1      37.859  -7.312  -3.354  1.00  0.00     0.162 HD
BRANCH  15  17
HETATM   17  C5  UNL     1      37.935  -5.616  -2.176  1.00  0.00     0.167 C 
HETATM   18  S1  UNL     1      37.108  -4.213  -1.880  1.00  0.00    -0.041 SA
BRANCH  17  19
HETATM   19  N2  UNL     1      38.855  -6.051  -1.220  1.00  0.00    -0.367 N 
ATOM     20  H2  UNL     1      39.596  -6.697  -1.492  1.00  0.00     0.161 HD
BRANCH  19  21
HETATM   21  C4  UNL     1      38.774  -5.600   0.152  1.00  0.00     0.122 C 
BRANCH  21  22
HETATM   22  C3  UNL     1      38.791  -6.769   1.111  1.00  0.00     0.021 C 
BRANCH  22  23
HETATM   23  C2  UNL     1      38.139  -6.427   2.428  1.00  0.00     0.029 C 
BRANCH  23  24
HETATM   24  C1  UNL     1      37.093  -5.344   2.273  1.00  0.00     0.229 C 
BRANCH  24  25
HETATM   25  N1  UNL     1      36.267  -5.329   3.465  1.00  0.00    -0.079 N 
ATOM     26  H13 UNL     1      36.183  -6.250   3.894  1.00  0.00     0.274 HD
ATOM     27  H12 UNL     1      36.716  -4.851   4.246  1.00  0.00     0.274 HD
ATOM     28  H11 UNL     1      35.362  -4.925   3.225  1.00  0.00     0.274 HD
ENDBRANCH  24  25
ENDBRANCH  23  24
ENDBRANCH  22  23
ENDBRANCH  21  22
ENDBRANCH  19  21
ENDBRANCH  17  19
ENDBRANCH  15  17
ENDBRANCH  14  15
ENDBRANCH   8  14
ENDBRANCH   4   6
ENDBRANCH   1   4
BRANCH   1  29
HETATM   29  C10 UNL     1      33.357  -9.065  -1.967  1.00  0.00     0.081 A 
HETATM   30  C11 UNL     1      33.810  -7.954  -1.298  1.00  0.00     0.026 A 
HETATM   31  C12 UNL     1      34.566  -8.089  -0.147  1.00  0.00     0.020 A 
HETATM   32  C13 UNL     1      34.906  -9.339   0.388  1.00  0.00     0.053 A 
HETATM   33  C26 UNL     1      34.443 -10.440  -0.297  1.00  0.00     0.051 A 
HETATM   34 CL1  UNL     1      34.791 -12.062   0.297  1.00  0.00    -0.083 Cl
HETATM   35  C27 UNL     1      33.680 -10.302  -1.458  1.00  0.00     0.050 A 
BRANCH  32  36
HETATM   36  C14 UNL     1      35.711  -9.415   1.601  1.00  0.00     0.253 C 
HETATM   37  O3  UNL     1      36.813 -10.005   1.550  1.00  0.00    -0.268 OA
HETATM   38  N5  UNL     1      35.311  -8.853   2.848  1.00  0.00    -0.357 N 
ATOM     39  H5  UNL     1      34.411  -8.374   2.880  1.00  0.00     0.162 HD
BRANCH  38  40
HETATM   40  C15 UNL     1      36.068  -8.908   4.056  1.00  0.00     0.123 C 
BRANCH  40  41
HETATM   41  C16 UNL     1      35.299  -9.530   5.162  1.00  0.00     0.021 C 
BRANCH  41  42
HETATM   42  C17 UNL     1      35.245 -11.041   5.075  1.00  0.00     0.021 C 
BRANCH  42  43
HETATM   43  C18 UNL     1      36.590 -11.647   4.906  1.00  0.00     0.123 C 
BRANCH  43  44
HETATM   44  N6  UNL     1      37.356 -11.658   6.155  1.00  0.00    -0.357 N 
HETATM   45  C19 UNL     1      38.078 -12.780   6.555  1.00  0.00     0.254 C 
HETATM   46  O4  UNL     1      38.090 -13.835   5.802  1.00  0.00    -0.268 OA
ATOM     47  H6  UNL     1      37.361 -10.825   6.744  1.00  0.00     0.162 HD
BRANCH  45  48
HETATM   48  C20 UNL     1      38.851 -12.851   7.806  1.00  0.00     0.070 A 
HETATM   49  C21 UNL     1      38.595 -13.910   8.684  1.00  0.00     0.020 A 
HETATM   50  C22 UNL     1      39.282 -14.057   9.851  1.00  0.00     0.001 A 
HETATM   51  C23 UNL     1      40.275 -13.161  10.229  1.00  0.00     0.003 A 
HETATM   52  C24 UNL     1      40.516 -12.126   9.357  1.00  0.00     0.043 A 
HETATM   53  C25 UNL     1      39.817 -11.964   8.156  1.00  0.00     0.132 A 
HETATM   54  F1  UNL     1      40.159 -10.887   7.431  1.00  0.00    -0.205 F 
ENDBRANCH  45  48
ENDBRANCH  43  44
ENDBRANCH  42  43
ENDBRANCH  41  42
ENDBRANCH  40  41
ENDBRANCH  38  40
ENDBRANCH  32  36
ENDBRANCH   1  29
TORSDOF 19
ENDMDL
MODEL 4
REMARK VINA RESULT: -8.262435988      2.244      3.794
REMARK  19 active torsions:
REMARK  status: ('A' for Active; 'I' for Inactive)
REMARK    1  A    between atoms: N1_1  and  C1_5 
REMARK    2  A    between atoms: C1_5  and  C2_6 
REMARK    3  A    between atoms: C2_6  and  C3_7 
REMARK    4  A    between atoms: C3_7  and  C4_8 
REMARK    5  A    between atoms: C4_8  and  N2_9 
REMARK    6  A    between atoms: N2_9  and  C5_11 
REMARK    7  A    between atoms: C5_11  and  N3_13 
REMARK    8  A    between atoms: N3_13  and  C6_15 
REMARK    9  A    between atoms: C6_15  and  C7_16 
REMARK   10  A    between atoms: C9_18  and  N4_19 
REMARK   11  A    between atoms: N4_19  and  S2_21 
REMARK   12  A    between atoms: S2_21  and  C10_24 
REMARK   13  A    between atoms: C13_27  and  C14_28 
REMARK       I    between atoms: C14_28  and  N5_30 
REMARK   14  A    between atoms: N5_30  and  C15_32 
REMARK   15  A    between atoms: C15_32  and  C16_33 
REMARK   16  A    between atoms: C16_33  and  C17_34 
REMARK   17  A    between atoms: C17_34  and  C18_35 
REMARK   18  A    between atoms: C18_35  and  N6_36 
REMARK       I    between atoms: N6_36  and  C19_38 
REMARK   19  A    between atoms: C19_38  and  C20_40 
ROOT
HETATM    1  S2  UNL     1      37.435  -5.375   2.120  1.00  0.00     0.264 S 
HETATM    2  O1  UNL     1      36.645  -4.490   3.028  1.00  0.00    -0.200 OA
HETATM    3  O2  UNL     1      38.919  -5.200   2.398  1.00  0.00    -0.200 OA
ENDROOT
BRANCH   1   4
HETATM    4  N4  UNL     1      37.074  -4.996   0.491  1.00  0.00    -0.266 N 
ATOM      5  H4  UNL     1      37.817  -4.677  -0.130  1.00  0.00     0.180 HD
BRANCH   4   6
HETATM    6  C9  UNL     1      35.890  -5.109   0.051  1.00  0.00     0.117 A 
HETATM    7  C8  UNL     1      35.450  -6.138  -0.743  1.00  0.00     0.075 A 
HETATM    8  C7  UNL     1      34.109  -6.206  -1.163  1.00  0.00     0.031 A 
HETATM    9  N8  UNL     1      33.301  -5.232  -0.759  1.00  0.00    -0.354 N 
HETATM   10  C28 UNL     1      33.710  -4.217   0.015  1.00  0.00     0.182 A 
ATOM     11  H8  UNL     1      32.324  -5.257  -1.052  1.00  0.00     0.166 HD
HETATM   12  N7  UNL     1      34.990  -4.175   0.404  1.00  0.00    -0.338 N 
ATOM     13  H7  UNL     1      35.296  -3.401   0.993  1.00  0.00     0.168 HD
BRANCH   8  14
HETATM   14  C6  UNL     1      33.637  -7.332  -2.000  1.00  0.00     0.179 C 
BRANCH  14  15
HETATM   15  N3  UNL     1      34.682  -7.945  -2.776  1.00  0.00    -0.362 N 
ATOM     16  H3  UNL     1      35.282  -8.613  -2.291  1.00  0.00     0.162 HD
BRANCH  15  17
HETATM   17  C5  UNL     1      34.955  -7.717  -4.124  1.00  0.00     0.167 C 
HETATM   18  S1  UNL     1      33.745  -7.933  -5.233  1.00  0.00    -0.041 SA
BRANCH  17  19
HETATM   19  N2  UNL     1      36.210  -7.316  -4.591  1.00  0.00    -0.367 N 
ATOM     20  H2  UNL     1      36.570  -7.704  -5.462  1.00  0.00     0.161 HD
BRANCH  19  21
HETATM   21  C4  UNL     1      37.007  -6.358  -3.856  1.00  0.00     0.122 C 
BRANCH  21  22
HETATM   22  C3  UNL     1      38.452  -6.401  -4.296  1.00  0.00     0.021 C 
BRANCH  22  23
HETATM   23  C2  UNL     1      38.973  -5.032  -4.657  1.00  0.00     0.029 C 
BRANCH  23  24
HETATM   24  C1  UNL     1      39.005  -4.821  -6.156  1.00  0.00     0.229 C 
BRANCH  24  25
HETATM   25  N1  UNL     1      40.139  -3.977  -6.476  1.00  0.00    -0.079 N 
ATOM     26  H13 UNL     1      40.301  -3.902  -7.481  1.00  0.00     0.274 HD
ATOM     27  H12 UNL     1      39.958  -2.990  -6.291  1.00  0.00     0.274 HD
ATOM     28  H11 UNL     1      40.955  -4.327  -5.974  1.00  0.00     0.274 HD
ENDBRANCH  24  25
ENDBRANCH  23  24
ENDBRANCH  22  23
ENDBRANCH  21  22
ENDBRANCH  19  21
ENDBRANCH  17  19
ENDBRANCH  15  17
ENDBRANCH  14  15
ENDBRANCH   8  14
ENDBRANCH   4   6
ENDBRANCH   1   4
BRANCH   1  29
HETATM   29  C10 UNL     1      36.992  -7.043   2.491  1.00  0.00     0.081 A 
HETATM   30  C11 UNL     1      37.274  -8.058   1.609  1.00  0.00     0.026 A 
HETATM   31  C12 UNL     1      36.933  -9.364   1.911  1.00  0.00     0.020 A 
HETATM   32  C13 UNL     1      36.294  -9.718   3.107  1.00  0.00     0.053 A 
HETATM   33  C26 UNL     1      36.018  -8.687   3.977  1.00  0.00     0.051 A 
HETATM   34 CL1  UNL     1      35.236  -9.017   5.521  1.00  0.00    -0.083 Cl
HETATM   35  C27 UNL     1      36.363  -7.369   3.671  1.00  0.00     0.050 A 
BRANCH  32  36
HETATM   36  C14 UNL     1      35.955 -11.112   3.365  1.00  0.00     0.253 C 
HETATM   37  O3  UNL     1      36.848 -11.873   3.798  1.00  0.00    -0.268 OA
HETATM   38  N5  UNL     1      34.657 -11.659   3.148  1.00  0.00    -0.357 N 
ATOM     39  H5  UNL     1      33.935 -11.031   2.795  1.00  0.00     0.162 HD
BRANCH  38  40
HETATM   40  C15 UNL     1      34.286 -13.016   3.386  1.00  0.00     0.123 C 
BRANCH  40  41
HETATM   41  C16 UNL     1      33.648 -13.190   4.714  1.00  0.00     0.021 C 
BRANCH  41  42
HETATM   42  C17 UNL     1      34.164 -14.398   5.469  1.00  0.00     0.021 C 
BRANCH  42  43
HETATM   43  C18 UNL     1      35.620 -14.611   5.268  1.00  0.00     0.123 C 
BRANCH  43  44
HETATM   44  N6  UNL     1      36.433 -13.670   6.043  1.00  0.00    -0.357 N 
HETATM   45  C19 UNL     1      37.449 -14.110   6.888  1.00  0.00     0.254 C 
HETATM   46  O4  UNL     1      37.698 -15.380   6.981  1.00  0.00    -0.268 OA
ATOM     47  H6  UNL     1      36.250 -12.669   5.962  1.00  0.00     0.162 HD
BRANCH  45  48
HETATM   48  C20 UNL     1      38.284 -13.211   7.700  1.00  0.00     0.070 A 
HETATM   49  C21 UNL     1      38.275 -13.374   9.089  1.00  0.00     0.020 A 
HETATM   50  C22 UNL     1      39.036 -12.595   9.908  1.00  0.00     0.001 A 
HETATM   51  C23 UNL     1      39.862 -11.598   9.403  1.00  0.00     0.003 A 
HETATM   52  C24 UNL     1      39.861 -11.450   8.036  1.00  0.00     0.043 A 
HETATM   53  C25 UNL     1      39.085 -12.243   7.185  1.00  0.00     0.132 A 
HETATM   54  F1  UNL     1      39.182 -11.952   5.878  1.00  0.00    -0.205 F 
ENDBRANCH  45  48
ENDBRANCH  43  44
ENDBRANCH  42  43
ENDBRANCH  41  42
ENDBRANCH  40  41
ENDBRANCH  38  40
ENDBRANCH  32  36
ENDBRANCH   1  29
TORSDOF 19
ENDMDL
MODEL 5
REMARK VINA RESULT: -8.195824910      2.918      3.933
REMARK  19 active torsions:
REMARK  status: ('A' for Active; 'I' for Inactive)
REMARK    1  A    between atoms: N1_1  and  C1_5 
REMARK    2  A    between atoms: C1_5  and  C2_6 
REMARK    3  A    between atoms: C2_6  and  C3_7 
REMARK    4  A    between atoms: C3_7  and  C4_8 
REMARK    5  A    between atoms: C4_8  and  N2_9 
REMARK    6  A    between atoms: N2_9  and  C5_11 
REMARK    7  A    between atoms: C5_11  and  N3_13 
REMARK    8  A    between atoms: N3_13  and  C6_15 
REMARK    9  A    between atoms: C6_15  and  C7_16 
REMARK   10  A    between atoms: C9_18  and  N4_19 
REMARK   11  A    between atoms: N4_19  and  S2_21 
REMARK   12  A    between atoms: S2_21  and  C10_24 
REMARK   13  A    between atoms: C13_27  and  C14_28 
REMARK       I    between atoms: C14_28  and  N5_30 
REMARK   14  A    between atoms: N5_30  and  C15_32 
REMARK   15  A    between atoms: C15_32  and  C16_33 
REMARK   16  A    between atoms: C16_33  and  C17_34 
REMARK   17  A    between atoms: C17_34  and  C18_35 
REMARK   18  A    between atoms: C18_35  and  N6_36 
REMARK       I    between atoms: N6_36  and  C19_38 
REMARK   19  A    between atoms: C19_38  and  C20_40 
ROOT
HETATM    1  S2  UNL     1      37.391  -6.412   1.107  1.00  0.00     0.264 S 
HETATM    2  O1  UNL     1      37.279  -5.188   1.955  1.00  0.00    -0.200 OA
HETATM    3  O2  UNL     1      38.850  -6.670   0.769  1.00  0.00    -0.200 OA
ENDROOT
BRANCH   1   4
HETATM    4  N4  UNL     1      36.465  -6.210  -0.317  1.00  0.00    -0.266 N 
ATOM      5  H4  UNL     1      35.827  -6.949  -0.615  1.00  0.00     0.180 HD
BRANCH   4   6
HETATM    6  C9  UNL     1      36.566  -5.149  -1.006  1.00  0.00     0.117 A 
HETATM    7  C8  UNL     1      35.567  -4.636  -1.794  1.00  0.00     0.075 A 
HETATM    8  C7  UNL     1      35.749  -3.435  -2.504  1.00  0.00     0.031 A 
HETATM    9  N8  UNL     1      36.926  -2.832  -2.374  1.00  0.00    -0.354 N 
HETATM   10  C28 UNL     1      37.915  -3.317  -1.610  1.00  0.00     0.182 A 
ATOM     11  H8  UNL     1      37.084  -1.960  -2.879  1.00  0.00     0.166 HD
HETATM   12  N7  UNL     1      37.717  -4.460  -0.944  1.00  0.00    -0.338 N 
ATOM     13  H7  UNL     1      38.473  -4.825  -0.365  1.00  0.00     0.168 HD
BRANCH   8  14
HETATM   14  C6  UNL     1      34.658  -2.875  -3.334  1.00  0.00     0.179 C 
BRANCH  14  15
HETATM   15  N3  UNL     1      33.672  -3.851  -3.714  1.00  0.00    -0.362 N 
ATOM     16  H3  UNL     1      33.019  -4.151  -2.990  1.00  0.00     0.162 HD
BRANCH  15  17
HETATM   17  C5  UNL     1      33.521  -4.427  -4.975  1.00  0.00     0.167 C 
HETATM   18  S1  UNL     1      34.772  -4.329  -6.055  1.00  0.00    -0.041 SA
BRANCH  17  19
HETATM   19  N2  UNL     1      32.356  -5.086  -5.378  1.00  0.00    -0.367 N 
ATOM     20  H2  UNL     1      31.447  -4.689  -5.140  1.00  0.00     0.161 HD
BRANCH  19  21
HETATM   21  C4  UNL     1      32.419  -6.322  -6.126  1.00  0.00     0.122 C 
BRANCH  21  22
HETATM   22  C3  UNL     1      31.096  -7.051  -6.084  1.00  0.00     0.021 C 
BRANCH  22  23
HETATM   23  C2  UNL     1      31.259  -8.490  -5.659  1.00  0.00     0.029 C 
BRANCH  23  24
HETATM   24  C1  UNL     1      32.049  -8.611  -4.374  1.00  0.00     0.229 C 
BRANCH  24  25
HETATM   25  N1  UNL     1      31.167  -9.111  -3.338  1.00  0.00    -0.079 N 
ATOM     26  H13 UNL     1      30.813  -8.370  -2.733  1.00  0.00     0.274 HD
ATOM     27  H12 UNL     1      30.271  -9.431  -3.706  1.00  0.00     0.274 HD
ATOM     28  H11 UNL     1      31.660  -9.838  -2.818  1.00  0.00     0.274 HD
ENDBRANCH  24  25
ENDBRANCH  23  24
ENDBRANCH  22  23
ENDBRANCH  21  22
ENDBRANCH  19  21
ENDBRANCH  17  19
ENDBRANCH  15  17
ENDBRANCH  14  15
ENDBRANCH   8  14
ENDBRANCH   4   6
ENDBRANCH   1   4
BRANCH   1  29
HETATM   29  C10 UNL     1      36.791  -7.772   2.060  1.00  0.00     0.081 A 
HETATM   30  C11 UNL     1      36.762  -7.711   3.432  1.00  0.00     0.026 A 
HETATM   31  C12 UNL     1      36.281  -8.777   4.171  1.00  0.00     0.020 A 
HETATM   32  C13 UNL     1      35.808  -9.954   3.574  1.00  0.00     0.053 A 
HETATM   33  C26 UNL     1      35.846  -9.996   2.199  1.00  0.00     0.051 A 
HETATM   34 CL1  UNL     1      35.257 -11.418   1.341  1.00  0.00    -0.083 Cl
HETATM   35  C27 UNL     1      36.332  -8.919   1.454  1.00  0.00     0.050 A 
BRANCH  32  36
HETATM   36  C14 UNL     1      35.319 -11.045   4.408  1.00  0.00     0.253 C 
HETATM   37  O3  UNL     1      35.959 -11.339   5.442  1.00  0.00    -0.268 OA
HETATM   38  N5  UNL     1      34.147 -11.800   4.110  1.00  0.00    -0.357 N 
ATOM     39  H5  UNL     1      33.632 -11.552   3.266  1.00  0.00     0.162 HD
BRANCH  38  40
HETATM   40  C15 UNL     1      33.638 -12.874   4.898  1.00  0.00     0.123 C 
BRANCH  40  41
HETATM   41  C16 UNL     1      33.875 -14.191   4.255  1.00  0.00     0.021 C 
BRANCH  41  42
HETATM   42  C17 UNL     1      35.343 -14.546   4.147  1.00  0.00     0.021 C 
BRANCH  42  43
HETATM   43  C18 UNL     1      35.888 -15.095   5.416  1.00  0.00     0.123 C 
BRANCH  43  44
HETATM   44  N6  UNL     1      36.603 -14.082   6.198  1.00  0.00    -0.357 N 
HETATM   45  C19 UNL     1      37.709 -14.414   6.976  1.00  0.00     0.254 C 
HETATM   46  O4  UNL     1      38.131 -15.639   7.001  1.00  0.00    -0.268 OA
ATOM     47  H6  UNL     1      36.283 -13.114   6.171  1.00  0.00     0.162 HD
BRANCH  45  48
HETATM   48  C20 UNL     1      38.454 -13.442   7.792  1.00  0.00     0.070 A 
HETATM   49  C21 UNL     1      39.093 -12.381   7.141  1.00  0.00     0.020 A 
HETATM   50  C22 UNL     1      39.786 -11.430   7.828  1.00  0.00     0.001 A 
HETATM   51  C23 UNL     1      39.892 -11.464   9.213  1.00  0.00     0.003 A 
HETATM   52  C24 UNL     1      39.258 -12.511   9.840  1.00  0.00     0.043 A 
HETATM   53  C25 UNL     1      38.545 -13.494   9.146  1.00  0.00     0.132 A 
HETATM   54  F1  UNL     1      38.007 -14.461   9.907  1.00  0.00    -0.205 F 
ENDBRANCH  45  48
ENDBRANCH  43  44
ENDBRANCH  42  43
ENDBRANCH  41  42
ENDBRANCH  40  41
ENDBRANCH  38  40
ENDBRANCH  32  36
ENDBRANCH   1  29
TORSDOF 19
ENDMDL
