MODEL 1
REMARK VINA RESULT: -10.451715846      0.000      0.000
REMARK  7 active torsions:
REMARK  status: ('A' for Active; 'I' for Inactive)
REMARK    1  A    between atoms: C4_4  and  C5_5 
REMARK    2  A    between atoms: C5_5  and  C6_6 
REMARK    3  A    between atoms: C6_6  and  C7_7 
REMARK    4  A    between atoms: C7_7  and  C8_8 
REMARK    5  A    between atoms: C8_8  and  C9_9 
REMARK    6  A    between atoms: C9_9  and  N1_10 
REMARK    7  A    between atoms: N1_10  and  C10_12 
ROOT
HETATM    1  C10 UNL     1      31.387  18.818  45.371  1.00  0.00     0.042 A 
HETATM    2  C11 UNL     1      32.326  18.006  44.720  1.00  0.00     0.047 A 
HETATM    3  C12 UNL     1      32.656  18.189  43.413  1.00  0.00     0.090 A 
HETATM    4  N2  UNL     1      32.070  19.171  42.727  1.00  0.00    -0.365 N 
ATOM      5  H2  UNL     1      32.317  19.308  41.748  1.00  0.00     0.165 HD
HETATM    6  C13 UNL     1      31.162  19.983  43.292  1.00  0.00     0.045 A 
HETATM    7  C14 UNL     1      30.570  20.988  42.570  1.00  0.00     0.031 A 
HETATM    8  C15 UNL     1      29.644  21.838  43.095  1.00  0.00     0.014 A 
HETATM    9  C16 UNL     1      29.308  21.657  44.414  1.00  0.00    -0.025 A 
HETATM   10  C17 UNL     1      28.361  22.518  44.974  1.00  0.00     0.012 A 
HETATM   11  C18 UNL     1      27.975  22.397  46.285  1.00  0.00     0.001 A 
HETATM   12  C19 UNL     1      28.534  21.409  47.063  1.00  0.00     0.001 A 
HETATM   13  C20 UNL     1      29.486  20.530  46.528  1.00  0.00     0.013 A 
HETATM   14  C21 UNL     1      29.855  20.667  45.226  1.00  0.00    -0.011 A 
HETATM   15  C22 UNL     1      30.803  19.812  44.648  1.00  0.00     0.028 A 
ENDROOT
BRANCH   1  16
HETATM   16  N1  UNL     1      31.138  18.580  46.588  1.00  0.00    -0.389 N 
ATOM     17  H1  UNL     1      30.161  18.603  46.880  1.00  0.00     0.159 HD
BRANCH  16  18
HETATM   18  C9  UNL     1      32.130  18.275  47.603  1.00  0.00     0.119 C 
BRANCH  18  19
HETATM   19  C8  UNL     1      32.792  19.491  48.156  1.00  0.00     0.020 C 
BRANCH  19  20
HETATM   20  C7  UNL     1      32.058  20.097  49.317  1.00  0.00     0.002 C 
BRANCH  20  21
HETATM   21  C6  UNL     1      32.369  19.440  50.625  1.00  0.00     0.005 C 
BRANCH  21  22
HETATM   22  C5  UNL     1      33.225  20.331  51.498  1.00  0.00     0.038 C 
BRANCH  22  23
HETATM   23  C4  UNL     1      34.407  19.629  52.059  1.00  0.00    -0.058 A 
HETATM   24  C3  UNL     1      35.485  19.446  51.207  1.00  0.00     0.007 A 
HETATM   25  C2  UNL     1      36.599  18.809  51.684  1.00  0.00     0.001 A 
HETATM   26  C1  UNL     1      36.652  18.358  52.983  1.00  0.00     0.000 A 
HETATM   27  C24 UNL     1      35.573  18.544  53.833  1.00  0.00     0.001 A 
HETATM   28  C23 UNL     1      34.473  19.174  53.357  1.00  0.00     0.007 A 
ENDBRANCH  22  23
ENDBRANCH  21  22
ENDBRANCH  20  21
ENDBRANCH  19  20
ENDBRANCH  18  19
ENDBRANCH  16  18
ENDBRANCH   1  16
TORSDOF 7
ENDMDL
MODEL 2
REMARK VINA RESULT: -10.375621212      1.518      1.990
REMARK  7 active torsions:
REMARK  status: ('A' for Active; 'I' for Inactive)
REMARK    1  A    between atoms: C4_4  and  C5_5 
REMARK    2  A    between atoms: C5_5  and  C6_6 
REMARK    3  A    between atoms: C6_6  and  C7_7 
REMARK    4  A    between atoms: C7_7  and  C8_8 
REMARK    5  A    between atoms: C8_8  and  C9_9 
REMARK    6  A    between atoms: C9_9  and  N1_10 
REMARK    7  A    between atoms: N1_10  and  C10_12 
ROOT
HETATM    1  C10 UNL     1      31.906  19.208  46.117  1.00  0.00     0.042 A 
HETATM    2  C11 UNL     1      32.021  17.829  45.897  1.00  0.00     0.047 A 
HETATM    3  C12 UNL     1      31.616  17.247  44.734  1.00  0.00     0.090 A 
HETATM    4  N2  UNL     1      31.094  18.011  43.775  1.00  0.00    -0.365 N 
ATOM      5  H2  UNL     1      30.791  17.576  42.904  1.00  0.00     0.165 HD
HETATM    6  C13 UNL     1      30.957  19.339  43.924  1.00  0.00     0.045 A 
HETATM    7  C14 UNL     1      30.418  20.108  42.924  1.00  0.00     0.031 A 
HETATM    8  C15 UNL     1      30.257  21.457  43.025  1.00  0.00     0.014 A 
HETATM    9  C16 UNL     1      30.665  22.048  44.196  1.00  0.00    -0.025 A 
HETATM   10  C17 UNL     1      30.510  23.431  44.321  1.00  0.00     0.012 A 
HETATM   11  C18 UNL     1      30.893  24.089  45.462  1.00  0.00     0.001 A 
HETATM   12  C19 UNL     1      31.442  23.374  46.501  1.00  0.00     0.001 A 
HETATM   13  C20 UNL     1      31.609  21.985  46.403  1.00  0.00     0.013 A 
HETATM   14  C21 UNL     1      31.223  21.351  45.264  1.00  0.00    -0.011 A 
HETATM   15  C22 UNL     1      31.370  19.965  45.121  1.00  0.00     0.028 A 
ENDROOT
BRANCH   1  16
HETATM   16  N1  UNL     1      32.308  19.668  47.226  1.00  0.00    -0.389 N 
ATOM     17  H1  UNL     1      32.544  20.659  47.265  1.00  0.00     0.159 HD
BRANCH  16  18
HETATM   18  C9  UNL     1      32.459  18.898  48.447  1.00  0.00     0.119 C 
BRANCH  18  19
HETATM   19  C8  UNL     1      33.347  19.557  49.447  1.00  0.00     0.020 C 
BRANCH  19  20
HETATM   20  C7  UNL     1      32.605  20.131  50.619  1.00  0.00     0.002 C 
BRANCH  20  21
HETATM   21  C6  UNL     1      33.358  20.025  51.908  1.00  0.00     0.005 C 
BRANCH  21  22
HETATM   22  C5  UNL     1      34.851  19.973  51.672  1.00  0.00     0.038 C 
BRANCH  22  23
HETATM   23  C4  UNL     1      35.566  19.137  52.668  1.00  0.00    -0.058 A 
HETATM   24  C3  UNL     1      35.059  19.132  53.957  1.00  0.00     0.007 A 
HETATM   25  C2  UNL     1      35.685  18.370  54.907  1.00  0.00     0.001 A 
HETATM   26  C1  UNL     1      36.796  17.623  54.593  1.00  0.00     0.000 A 
HETATM   27  C24 UNL     1      37.301  17.628  53.302  1.00  0.00     0.001 A 
HETATM   28  C23 UNL     1      36.679  18.384  52.366  1.00  0.00     0.007 A 
ENDBRANCH  22  23
ENDBRANCH  21  22
ENDBRANCH  20  21
ENDBRANCH  19  20
ENDBRANCH  18  19
ENDBRANCH  16  18
ENDBRANCH   1  16
TORSDOF 7
ENDMDL
MODEL 3
REMARK VINA RESULT: -10.136491832      1.326      3.321
REMARK  7 active torsions:
REMARK  status: ('A' for Active; 'I' for Inactive)
REMARK    1  A    between atoms: C4_4  and  C5_5 
REMARK    2  A    between atoms: C5_5  and  C6_6 
REMARK    3  A    between atoms: C6_6  and  C7_7 
REMARK    4  A    between atoms: C7_7  and  C8_8 
REMARK    5  A    between atoms: C8_8  and  C9_9 
REMARK    6  A    between atoms: C9_9  and  N1_10 
REMARK    7  A    between atoms: N1_10  and  C10_12 
ROOT
HETATM    1  C10 UNL     1      29.634  20.384  46.757  1.00  0.00     0.042 A 
HETATM    2  C11 UNL     1      28.674  21.240  47.316  1.00  0.00     0.047 A 
HETATM    3  C12 UNL     1      28.006  22.160  46.569  1.00  0.00     0.090 A 
HETATM    4  N2  UNL     1      28.270  22.253  45.265  1.00  0.00    -0.365 N 
ATOM      5  H2  UNL     1      27.768  22.942  44.706  1.00  0.00     0.165 HD
HETATM    6  C13 UNL     1      29.178  21.463  44.670  1.00  0.00     0.045 A 
HETATM    7  C14 UNL     1      29.435  21.574  43.327  1.00  0.00     0.031 A 
HETATM    8  C15 UNL     1      30.346  20.798  42.675  1.00  0.00     0.014 A 
HETATM    9  C16 UNL     1      31.022  19.867  43.425  1.00  0.00    -0.025 A 
HETATM   10  C17 UNL     1      31.961  19.060  42.777  1.00  0.00     0.012 A 
HETATM   11  C18 UNL     1      32.675  18.110  43.462  1.00  0.00     0.001 A 
HETATM   12  C19 UNL     1      32.462  17.949  44.811  1.00  0.00     0.001 A 
HETATM   13  C20 UNL     1      31.527  18.745  45.488  1.00  0.00     0.013 A 
HETATM   14  C21 UNL     1      30.829  19.682  44.792  1.00  0.00    -0.011 A 
HETATM   15  C22 UNL     1      29.885  20.500  45.425  1.00  0.00     0.028 A 
ENDROOT
BRANCH   1  16
HETATM   16  N1  UNL     1      30.210  19.557  47.522  1.00  0.00    -0.389 N 
ATOM     17  H1  UNL     1      31.027  19.069  47.156  1.00  0.00     0.159 HD
BRANCH  16  18
HETATM   18  C9  UNL     1      29.801  19.246  48.880  1.00  0.00     0.119 C 
BRANCH  18  19
HETATM   19  C8  UNL     1      30.908  18.693  49.711  1.00  0.00     0.020 C 
BRANCH  19  20
HETATM   20  C7  UNL     1      32.229  18.652  48.999  1.00  0.00     0.002 C 
BRANCH  20  21
HETATM   21  C6  UNL     1      33.186  19.705  49.461  1.00  0.00     0.005 C 
BRANCH  21  22
HETATM   22  C5  UNL     1      32.851  20.180  50.857  1.00  0.00     0.038 C 
BRANCH  22  23
HETATM   23  C4  UNL     1      33.781  19.654  51.887  1.00  0.00    -0.058 A 
HETATM   24  C3  UNL     1      35.121  19.588  51.542  1.00  0.00     0.007 A 
HETATM   25  C2  UNL     1      36.015  19.115  52.465  1.00  0.00     0.001 A 
HETATM   26  C1  UNL     1      35.596  18.711  53.711  1.00  0.00     0.000 A 
HETATM   27  C24 UNL     1      34.255  18.779  54.054  1.00  0.00     0.001 A 
HETATM   28  C23 UNL     1      33.373  19.248  53.138  1.00  0.00     0.007 A 
ENDBRANCH  22  23
ENDBRANCH  21  22
ENDBRANCH  20  21
ENDBRANCH  19  20
ENDBRANCH  18  19
ENDBRANCH  16  18
ENDBRANCH   1  16
TORSDOF 7
ENDMDL
MODEL 4
REMARK VINA RESULT: -10.076066542      1.392      1.760
REMARK  7 active torsions:
REMARK  status: ('A' for Active; 'I' for Inactive)
REMARK    1  A    between atoms: C4_4  and  C5_5 
REMARK    2  A    between atoms: C5_5  and  C6_6 
REMARK    3  A    between atoms: C6_6  and  C7_7 
REMARK    4  A    between atoms: C7_7  and  C8_8 
REMARK    5  A    between atoms: C8_8  and  C9_9 
REMARK    6  A    between atoms: C9_9  and  N1_10 
REMARK    7  A    between atoms: N1_10  and  C10_12 
ROOT
HETATM    1  C10 UNL     1      31.661  19.034  45.556  1.00  0.00     0.042 A 
HETATM    2  C11 UNL     1      31.652  17.712  45.090  1.00  0.00     0.047 A 
HETATM    3  C12 UNL     1      31.173  17.385  43.858  1.00  0.00     0.090 A 
HETATM    4  N2  UNL     1      30.697  18.350  43.071  1.00  0.00    -0.365 N 
ATOM      5  H2  UNL     1      30.338  18.105  42.148  1.00  0.00     0.165 HD
HETATM    6  C13 UNL     1      30.677  19.635  43.460  1.00  0.00     0.045 A 
HETATM    7  C14 UNL     1      30.183  20.613  42.634  1.00  0.00     0.031 A 
HETATM    8  C15 UNL     1      30.140  21.930  42.980  1.00  0.00     0.014 A 
HETATM    9  C16 UNL     1      30.624  22.265  44.221  1.00  0.00    -0.025 A 
HETATM   10  C17 UNL     1      30.590  23.610  44.597  1.00  0.00     0.012 A 
HETATM   11  C18 UNL     1      31.054  24.018  45.822  1.00  0.00     0.001 A 
HETATM   12  C19 UNL     1      31.563  23.085  46.695  1.00  0.00     0.001 A 
HETATM   13  C20 UNL     1      31.608  21.728  46.345  1.00  0.00     0.013 A 
HETATM   14  C21 UNL     1      31.144  21.343  45.127  1.00  0.00    -0.011 A 
HETATM   15  C22 UNL     1      31.169  19.999  44.733  1.00  0.00     0.028 A 
ENDROOT
BRANCH   1  16
HETATM   16  N1  UNL     1      32.124  19.251  46.714  1.00  0.00    -0.389 N 
ATOM     17  H1  UNL     1      32.449  20.196  46.919  1.00  0.00     0.159 HD
BRANCH  16  18
HETATM   18  C9  UNL     1      32.232  18.265  47.773  1.00  0.00     0.119 C 
BRANCH  18  19
HETATM   19  C8  UNL     1      31.272  18.499  48.889  1.00  0.00     0.020 C 
BRANCH  19  20
HETATM   20  C7  UNL     1      31.938  18.714  50.217  1.00  0.00     0.002 C 
BRANCH  20  21
HETATM   21  C6  UNL     1      32.868  19.886  50.233  1.00  0.00     0.005 C 
BRANCH  21  22
HETATM   22  C5  UNL     1      33.206  20.302  51.646  1.00  0.00     0.038 C 
BRANCH  22  23
HETATM   23  C4  UNL     1      34.393  19.596  52.190  1.00  0.00    -0.058 A 
HETATM   24  C3  UNL     1      34.280  19.081  53.471  1.00  0.00     0.007 A 
HETATM   25  C2  UNL     1      35.349  18.417  54.010  1.00  0.00     0.001 A 
HETATM   26  C1  UNL     1      36.516  18.262  53.297  1.00  0.00     0.000 A 
HETATM   27  C24 UNL     1      36.626  18.777  52.016  1.00  0.00     0.001 A 
HETATM   28  C23 UNL     1      35.566  19.434  51.486  1.00  0.00     0.007 A 
ENDBRANCH  22  23
ENDBRANCH  21  22
ENDBRANCH  20  21
ENDBRANCH  19  20
ENDBRANCH  18  19
ENDBRANCH  16  18
ENDBRANCH   1  16
TORSDOF 7
ENDMDL
MODEL 5
REMARK VINA RESULT: -10.041948541      1.345      3.447
REMARK  7 active torsions:
REMARK  status: ('A' for Active; 'I' for Inactive)
REMARK    1  A    between atoms: C4_4  and  C5_5 
REMARK    2  A    between atoms: C5_5  and  C6_6 
REMARK    3  A    between atoms: C6_6  and  C7_7 
REMARK    4  A    between atoms: C7_7  and  C8_8 
REMARK    5  A    between atoms: C8_8  and  C9_9 
REMARK    6  A    between atoms: C9_9  and  N1_10 
REMARK    7  A    between atoms: N1_10  and  C10_12 
ROOT
HETATM    1  C10 UNL     1      29.393  20.556  46.560  1.00  0.00     0.042 A 
HETATM    2  C11 UNL     1      28.437  21.478  47.007  1.00  0.00     0.047 A 
HETATM    3  C12 UNL     1      27.914  22.430  46.187  1.00  0.00     0.090 A 
HETATM    4  N2  UNL     1      28.322  22.490  44.920  1.00  0.00    -0.365 N 
ATOM      5  H2  UNL     1      27.930  23.203  44.306  1.00  0.00     0.165 HD
HETATM    6  C13 UNL     1      29.235  21.636  44.431  1.00  0.00     0.045 A 
HETATM    7  C14 UNL     1      29.642  21.714  43.123  1.00  0.00     0.031 A 
HETATM    8  C15 UNL     1      30.566  20.873  42.577  1.00  0.00     0.014 A 
HETATM    9  C16 UNL     1      31.096  19.910  43.401  1.00  0.00    -0.025 A 
HETATM   10  C17 UNL     1      32.043  19.036  42.863  1.00  0.00     0.012 A 
HETATM   11  C18 UNL     1      32.617  18.051  43.626  1.00  0.00     0.001 A 
HETATM   12  C19 UNL     1      32.249  17.921  44.945  1.00  0.00     0.001 A 
HETATM   13  C20 UNL     1      31.301  18.783  45.513  1.00  0.00     0.013 A 
HETATM   14  C21 UNL     1      30.745  19.754  44.740  1.00  0.00    -0.011 A 
HETATM   15  C22 UNL     1      29.793  20.639  45.262  1.00  0.00     0.028 A 
ENDROOT
BRANCH   1  16
HETATM   16  N1  UNL     1      29.828  19.703  47.388  1.00  0.00    -0.389 N 
ATOM     17  H1  UNL     1      30.178  18.822  47.013  1.00  0.00     0.159 HD
BRANCH  16  18
HETATM   18  C9  UNL     1      29.868  19.877  48.828  1.00  0.00     0.119 C 
BRANCH  18  19
HETATM   19  C8  UNL     1      30.087  18.600  49.565  1.00  0.00     0.020 C 
BRANCH  19  20
HETATM   20  C7  UNL     1      31.267  18.638  50.492  1.00  0.00     0.002 C 
BRANCH  20  21
HETATM   21  C6  UNL     1      32.386  19.497  49.994  1.00  0.00     0.005 C 
BRANCH  21  22
HETATM   22  C5  UNL     1      32.949  20.363  51.098  1.00  0.00     0.038 C 
BRANCH  22  23
HETATM   23  C4  UNL     1      34.072  19.718  51.824  1.00  0.00    -0.058 A 
HETATM   24  C3  UNL     1      33.813  19.282  53.114  1.00  0.00     0.007 A 
HETATM   25  C2  UNL     1      34.819  18.677  53.818  1.00  0.00     0.001 A 
HETATM   26  C1  UNL     1      36.064  18.502  53.261  1.00  0.00     0.000 A 
HETATM   27  C24 UNL     1      36.321  18.938  51.970  1.00  0.00     0.001 A 
HETATM   28  C23 UNL     1      35.323  19.537  51.277  1.00  0.00     0.007 A 
ENDBRANCH  22  23
ENDBRANCH  21  22
ENDBRANCH  20  21
ENDBRANCH  19  20
ENDBRANCH  18  19
ENDBRANCH  16  18
ENDBRANCH   1  16
TORSDOF 7
ENDMDL
