MODEL 1
REMARK VINA RESULT: -9.823645560      0.000      0.000
REMARK  6 active torsions:
REMARK  status: ('A' for Active; 'I' for Inactive)
REMARK    1  A    between atoms: C4_4  and  C5_5 
REMARK    2  A    between atoms: C5_5  and  C6_6 
REMARK    3  A    between atoms: C6_6  and  C7_7 
REMARK    4  A    between atoms: C7_7  and  C8_8 
REMARK    5  A    between atoms: C7_7  and  C13_15 
REMARK    6  A    between atoms: C8_8  and  C9_9 
ROOT
HETATM    1  C7  UNL     1      31.148  19.572  47.331  1.00  0.00     0.025 C 
ENDROOT
BRANCH   1   2
HETATM    2  C6  UNL     1      32.039  20.795  47.304  1.00  0.00     0.014 C 
BRANCH   2   3
HETATM    3  C5  UNL     1      31.124  21.987  47.450  1.00  0.00     0.039 C 
BRANCH   3   4
HETATM    4  C4  UNL     1      30.337  22.227  46.212  1.00  0.00    -0.058 A 
HETATM    5  C3  UNL     1      31.068  22.528  45.078  1.00  0.00     0.007 A 
HETATM    6  C2  UNL     1      30.493  22.776  43.855  1.00  0.00     0.001 A 
HETATM    7  C1  UNL     1      29.109  22.720  43.765  1.00  0.00     0.000 A 
HETATM    8  C23 UNL     1      28.383  22.421  44.895  1.00  0.00     0.001 A 
HETATM    9  C22 UNL     1      28.976  22.170  46.133  1.00  0.00     0.007 A 
ENDBRANCH   3   4
ENDBRANCH   2   3
ENDBRANCH   1   2
BRANCH   1  10
HETATM   10  C8  UNL     1      31.866  18.409  46.629  1.00  0.00     0.066 C 
BRANCH  10  11
HETATM   11  C9  UNL     1      31.815  18.514  45.158  1.00  0.00     0.009 A 
HETATM   12  C10 UNL     1      30.792  19.026  44.391  1.00  0.00     0.026 A 
HETATM   13  C11 UNL     1      31.146  18.937  43.056  1.00  0.00     0.019 A 
HETATM   14  C12 UNL     1      32.403  18.361  43.035  1.00  0.00     0.088 A 
HETATM   15  N1  UNL     1      32.783  18.116  44.307  1.00  0.00    -0.369 N 
ATOM     16  H1  UNL     1      33.669  17.695  44.583  1.00  0.00     0.165 HD
ENDBRANCH  10  11
ENDBRANCH   1  10
BRANCH   1  17
HETATM   17  C13 UNL     1      31.000  19.116  48.718  1.00  0.00    -0.040 A 
HETATM   18  C14 UNL     1      29.780  18.713  49.188  1.00  0.00     0.025 A 
HETATM   19  C15 UNL     1      29.620  18.341  50.530  1.00  0.00     0.089 A 
HETATM   20  N2  UNL     1      30.628  18.360  51.403  1.00  0.00    -0.365 N 
HETATM   21  C16 UNL     1      31.840  18.753  50.963  1.00  0.00     0.042 A 
ATOM     22  H2  UNL     1      30.486  18.085  52.375  1.00  0.00     0.165 HD
HETATM   23  C17 UNL     1      32.918  18.777  51.844  1.00  0.00     0.030 A 
HETATM   24  C21 UNL     1      32.039  19.129  49.639  1.00  0.00    -0.003 A 
HETATM   25  C18 UNL     1      34.151  19.174  51.370  1.00  0.00     0.002 A 
HETATM   26  C19 UNL     1      34.356  19.546  50.065  1.00  0.00     0.001 A 
HETATM   27  C20 UNL     1      33.279  19.522  49.186  1.00  0.00     0.014 A 
ENDBRANCH   1  17
TORSDOF 6
ENDMDL
MODEL 2
REMARK VINA RESULT: -9.773358480      1.469      3.425
REMARK  6 active torsions:
REMARK  status: ('A' for Active; 'I' for Inactive)
REMARK    1  A    between atoms: C4_4  and  C5_5 
REMARK    2  A    between atoms: C5_5  and  C6_6 
REMARK    3  A    between atoms: C6_6  and  C7_7 
REMARK    4  A    between atoms: C7_7  and  C8_8 
REMARK    5  A    between atoms: C7_7  and  C13_15 
REMARK    6  A    between atoms: C8_8  and  C9_9 
ROOT
HETATM    1  C7  UNL     1      31.434  20.022  48.125  1.00  0.00     0.025 C 
ENDROOT
BRANCH   1   2
HETATM    2  C6  UNL     1      30.533  19.197  47.231  1.00  0.00     0.014 C 
BRANCH   2   3
HETATM    3  C5  UNL     1      31.425  18.186  46.551  1.00  0.00     0.039 C 
BRANCH   3   4
HETATM    4  C4  UNL     1      31.617  18.505  45.112  1.00  0.00    -0.058 A 
HETATM    5  C3  UNL     1      30.759  19.449  44.582  1.00  0.00     0.007 A 
HETATM    6  C2  UNL     1      30.804  19.856  43.271  1.00  0.00     0.001 A 
HETATM    7  C1  UNL     1      31.763  19.283  42.446  1.00  0.00     0.000 A 
HETATM    8  C23 UNL     1      32.616  18.343  42.975  1.00  0.00     0.001 A 
HETATM    9  C22 UNL     1      32.563  17.936  44.310  1.00  0.00     0.007 A 
ENDBRANCH   3   4
ENDBRANCH   2   3
ENDBRANCH   1   2
BRANCH   1  10
HETATM   10  C8  UNL     1      30.843  21.432  48.274  1.00  0.00     0.066 C 
BRANCH  10  11
HETATM   11  C9  UNL     1      30.699  22.128  46.981  1.00  0.00     0.009 A 
HETATM   12  C10 UNL     1      31.697  22.700  46.224  1.00  0.00     0.026 A 
HETATM   13  C11 UNL     1      31.136  23.248  45.084  1.00  0.00     0.019 A 
HETATM   14  C12 UNL     1      29.779  22.994  45.170  1.00  0.00     0.088 A 
HETATM   15  N1  UNL     1      29.542  22.321  46.316  1.00  0.00    -0.369 N 
ATOM     16  H1  UNL     1      28.625  22.006  46.631  1.00  0.00     0.165 HD
ENDBRANCH  10  11
ENDBRANCH   1  10
BRANCH   1  17
HETATM   17  C13 UNL     1      31.395  19.472  49.485  1.00  0.00    -0.040 A 
HETATM   18  C14 UNL     1      30.202  19.118  50.054  1.00  0.00     0.025 A 
HETATM   19  C15 UNL     1      30.153  18.656  51.377  1.00  0.00     0.089 A 
HETATM   20  N2  UNL     1      31.242  18.539  52.135  1.00  0.00    -0.365 N 
HETATM   21  C16 UNL     1      32.430  18.880  51.596  1.00  0.00     0.042 A 
ATOM     22  H2  UNL     1      31.180  18.200  53.095  1.00  0.00     0.165 HD
HETATM   23  C17 UNL     1      33.592  18.762  52.356  1.00  0.00     0.030 A 
HETATM   24  C21 UNL     1      32.521  19.342  50.287  1.00  0.00    -0.003 A 
HETATM   25  C18 UNL     1      34.796  19.109  51.780  1.00  0.00     0.002 A 
HETATM   26  C19 UNL     1      34.894  19.565  50.490  1.00  0.00     0.001 A 
HETATM   27  C20 UNL     1      33.734  19.683  49.732  1.00  0.00     0.014 A 
ENDBRANCH   1  17
TORSDOF 6
ENDMDL
MODEL 3
REMARK VINA RESULT: -9.745606643      1.860      5.737
REMARK  6 active torsions:
REMARK  status: ('A' for Active; 'I' for Inactive)
REMARK    1  A    between atoms: C4_4  and  C5_5 
REMARK    2  A    between atoms: C5_5  and  C6_6 
REMARK    3  A    between atoms: C6_6  and  C7_7 
REMARK    4  A    between atoms: C7_7  and  C8_8 
REMARK    5  A    between atoms: C7_7  and  C13_15 
REMARK    6  A    between atoms: C8_8  and  C9_9 
ROOT
HETATM    1  C7  UNL     1      31.491  19.429  47.516  1.00  0.00     0.025 C 
ENDROOT
BRANCH   1   2
HETATM    2  C6  UNL     1      31.389  19.112  48.993  1.00  0.00     0.014 C 
BRANCH   2   3
HETATM    3  C5  UNL     1      31.968  20.302  49.721  1.00  0.00     0.039 C 
BRANCH   3   4
HETATM    4  C4  UNL     1      33.134  19.918  50.558  1.00  0.00    -0.058 A 
HETATM    5  C3  UNL     1      32.899  19.824  51.916  1.00  0.00     0.007 A 
HETATM    6  C2  UNL     1      33.870  19.479  52.826  1.00  0.00     0.001 A 
HETATM    7  C1  UNL     1      35.145  19.216  52.347  1.00  0.00     0.000 A 
HETATM    8  C23 UNL     1      35.377  19.310  50.994  1.00  0.00     0.001 A 
HETATM    9  C22 UNL     1      34.385  19.661  50.077  1.00  0.00     0.007 A 
ENDBRANCH   3   4
ENDBRANCH   2   3
ENDBRANCH   1   2
BRANCH   1  10
HETATM   10  C8  UNL     1      31.206  18.155  46.706  1.00  0.00     0.066 C 
BRANCH  10  11
HETATM   11  C9  UNL     1      31.546  18.301  45.277  1.00  0.00     0.009 A 
HETATM   12  C10 UNL     1      32.736  17.984  44.664  1.00  0.00     0.026 A 
HETATM   13  C11 UNL     1      32.636  18.274  43.315  1.00  0.00     0.019 A 
HETATM   14  C12 UNL     1      31.360  18.773  43.128  1.00  0.00     0.088 A 
HETATM   15  N1  UNL     1      30.725  18.779  44.320  1.00  0.00    -0.369 N 
ATOM     16  H1  UNL     1      29.769  19.097  44.472  1.00  0.00     0.165 HD
ENDBRANCH  10  11
ENDBRANCH   1  10
BRANCH   1  17
HETATM   17  C13 UNL     1      30.403  20.340  47.144  1.00  0.00    -0.040 A 
HETATM   18  C14 UNL     1      29.100  19.996  47.382  1.00  0.00     0.025 A 
HETATM   19  C15 UNL     1      28.055  20.833  46.968  1.00  0.00     0.089 A 
HETATM   20  N2  UNL     1      28.268  21.985  46.333  1.00  0.00    -0.365 N 
HETATM   21  C16 UNL     1      29.544  22.346  46.088  1.00  0.00     0.042 A 
ATOM     22  H2  UNL     1      27.490  22.576  46.041  1.00  0.00     0.165 HD
HETATM   23  C17 UNL     1      29.807  23.548  45.434  1.00  0.00     0.030 A 
HETATM   24  C21 UNL     1      30.609  21.544  46.483  1.00  0.00    -0.003 A 
HETATM   25  C18 UNL     1      31.119  23.901  45.202  1.00  0.00     0.002 A 
HETATM   26  C19 UNL     1      32.176  23.116  45.590  1.00  0.00     0.001 A 
HETATM   27  C20 UNL     1      31.913  21.916  46.242  1.00  0.00     0.014 A 
ENDBRANCH   1  17
TORSDOF 6
ENDMDL
MODEL 4
REMARK VINA RESULT: -9.745503415      0.893      2.332
REMARK  6 active torsions:
REMARK  status: ('A' for Active; 'I' for Inactive)
REMARK    1  A    between atoms: C4_4  and  C5_5 
REMARK    2  A    between atoms: C5_5  and  C6_6 
REMARK    3  A    between atoms: C6_6  and  C7_7 
REMARK    4  A    between atoms: C7_7  and  C8_8 
REMARK    5  A    between atoms: C7_7  and  C13_15 
REMARK    6  A    between atoms: C8_8  and  C9_9 
ROOT
HETATM    1  C7  UNL     1      31.970  19.930  47.062  1.00  0.00     0.025 C 
ENDROOT
BRANCH   1   2
HETATM    2  C6  UNL     1      32.602  21.219  46.582  1.00  0.00     0.014 C 
BRANCH   2   3
HETATM    3  C5  UNL     1      31.588  22.308  46.840  1.00  0.00     0.039 C 
BRANCH   3   4
HETATM    4  C4  UNL     1      30.625  22.437  45.715  1.00  0.00    -0.058 A 
HETATM    5  C3  UNL     1      29.287  22.429  46.060  1.00  0.00     0.007 A 
HETATM    6  C2  UNL     1      28.272  22.540  45.140  1.00  0.00     0.001 A 
HETATM    7  C1  UNL     1      28.619  22.664  43.801  1.00  0.00     0.000 A 
HETATM    8  C23 UNL     1      29.952  22.672  43.460  1.00  0.00     0.001 A 
HETATM    9  C22 UNL     1      30.976  22.559  44.402  1.00  0.00     0.007 A 
ENDBRANCH   3   4
ENDBRANCH   2   3
ENDBRANCH   1   2
BRANCH   1  10
HETATM   10  C8  UNL     1      32.548  18.755  46.259  1.00  0.00     0.066 C 
BRANCH  10  11
HETATM   11  C9  UNL     1      32.057  18.720  44.867  1.00  0.00     0.009 A 
HETATM   12  C10 UNL     1      30.791  19.019  44.421  1.00  0.00     0.026 A 
HETATM   13  C11 UNL     1      30.752  18.861  43.046  1.00  0.00     0.019 A 
HETATM   14  C12 UNL     1      32.022  18.460  42.675  1.00  0.00     0.088 A 
HETATM   15  N1  UNL     1      32.787  18.384  43.785  1.00  0.00    -0.369 N 
ATOM     16  H1  UNL     1      33.770  18.112  43.801  1.00  0.00     0.165 HD
ENDBRANCH  10  11
ENDBRANCH   1  10
BRANCH   1  17
HETATM   17  C13 UNL     1      32.400  19.668  48.440  1.00  0.00    -0.040 A 
HETATM   18  C14 UNL     1      33.715  19.809  48.793  1.00  0.00     0.025 A 
HETATM   19  C15 UNL     1      34.142  19.495  50.091  1.00  0.00     0.089 A 
HETATM   20  N2  UNL     1      33.309  19.051  51.031  1.00  0.00    -0.365 N 
HETATM   21  C16 UNL     1      32.009  18.904  50.707  1.00  0.00     0.042 A 
ATOM     22  H2  UNL     1      33.645  18.829  51.968  1.00  0.00     0.165 HD
HETATM   23  C17 UNL     1      31.106  18.450  51.667  1.00  0.00     0.030 A 
HETATM   24  C21 UNL     1      31.545  19.205  49.431  1.00  0.00    -0.003 A 
HETATM   25  C18 UNL     1      29.780  18.316  51.316  1.00  0.00     0.002 A 
HETATM   26  C19 UNL     1      29.314  18.612  50.059  1.00  0.00     0.001 A 
HETATM   27  C20 UNL     1      30.215  19.065  49.102  1.00  0.00     0.014 A 
ENDBRANCH   1  17
TORSDOF 6
ENDMDL
MODEL 5
REMARK VINA RESULT: -9.508863928      1.550      3.384
REMARK  6 active torsions:
REMARK  status: ('A' for Active; 'I' for Inactive)
REMARK    1  A    between atoms: C4_4  and  C5_5 
REMARK    2  A    between atoms: C5_5  and  C6_6 
REMARK    3  A    between atoms: C6_6  and  C7_7 
REMARK    4  A    between atoms: C7_7  and  C8_8 
REMARK    5  A    between atoms: C7_7  and  C13_15 
REMARK    6  A    between atoms: C8_8  and  C9_9 
ROOT
HETATM    1  C7  UNL     1      31.546  19.857  48.354  1.00  0.00     0.025 C 
ENDROOT
BRANCH   1   2
HETATM    2  C6  UNL     1      30.764  18.832  47.559  1.00  0.00     0.014 C 
BRANCH   2   3
HETATM    3  C5  UNL     1      31.771  18.113  46.694  1.00  0.00     0.039 C 
BRANCH   3   4
HETATM    4  C4  UNL     1      31.660  18.521  45.269  1.00  0.00    -0.058 A 
HETATM    5  C3  UNL     1      32.626  18.018  44.419  1.00  0.00     0.007 A 
HETATM    6  C2  UNL     1      32.664  18.298  43.074  1.00  0.00     0.001 A 
HETATM    7  C1  UNL     1      31.681  19.129  42.555  1.00  0.00     0.000 A 
HETATM    8  C23 UNL     1      30.720  19.629  43.404  1.00  0.00     0.001 A 
HETATM    9  C22 UNL     1      30.689  19.338  44.769  1.00  0.00     0.007 A 
ENDBRANCH   3   4
ENDBRANCH   2   3
ENDBRANCH   1   2
BRANCH   1  10
HETATM   10  C8  UNL     1      30.727  21.154  48.448  1.00  0.00     0.066 C 
BRANCH  10  11
HETATM   11  C9  UNL     1      30.696  21.901  47.177  1.00  0.00     0.009 A 
HETATM   12  C10 UNL     1      31.771  22.384  46.465  1.00  0.00     0.026 A 
HETATM   13  C11 UNL     1      31.305  23.025  45.330  1.00  0.00     0.019 A 
HETATM   14  C12 UNL     1      29.927  22.918  45.374  1.00  0.00     0.088 A 
HETATM   15  N1  UNL     1      29.586  22.239  46.490  1.00  0.00    -0.369 N 
ATOM     16  H1  UNL     1      28.632  22.016  46.771  1.00  0.00     0.165 HD
ENDBRANCH  10  11
ENDBRANCH   1  10
BRANCH   1  17
HETATM   17  C13 UNL     1      31.658  19.402  49.744  1.00  0.00    -0.040 A 
HETATM   18  C14 UNL     1      30.540  19.043  50.448  1.00  0.00     0.025 A 
HETATM   19  C15 UNL     1      30.635  18.673  51.796  1.00  0.00     0.089 A 
HETATM   20  N2  UNL     1      31.795  18.652  52.453  1.00  0.00    -0.365 N 
HETATM   21  C16 UNL     1      32.910  19.001  51.782  1.00  0.00     0.042 A 
ATOM     22  H2  UNL     1      31.837  18.379  53.435  1.00  0.00     0.165 HD
HETATM   23  C17 UNL     1      34.142  18.982  52.433  1.00  0.00     0.030 A 
HETATM   24  C21 UNL     1      32.858  19.374  50.442  1.00  0.00    -0.003 A 
HETATM   25  C18 UNL     1      35.270  19.335  51.723  1.00  0.00     0.002 A 
HETATM   26  C19 UNL     1      35.228  19.703  50.402  1.00  0.00     0.001 A 
HETATM   27  C20 UNL     1      33.998  19.722  49.752  1.00  0.00     0.014 A 
ENDBRANCH   1  17
TORSDOF 6
ENDMDL
