MODEL 1
REMARK VINA RESULT: -8.068391879      0.000      0.000
REMARK  6 active torsions:
REMARK  status: ('A' for Active; 'I' for Inactive)
REMARK    1  A    between atoms: C4_4  and  C5_5 
REMARK    2  A    between atoms: C5_5  and  C6_6 
REMARK    3  A    between atoms: C5_5  and  C17_19 
REMARK    4  A    between atoms: C6_6  and  C7_7 
REMARK    5  A    between atoms: C7_7  and  C8_8 
REMARK    6  A    between atoms: C8_8  and  C9_9 
ROOT
HETATM    1  C5  UNL     1      31.647  19.957  48.400  1.00  0.00     0.051 C 
ENDROOT
BRANCH   1   2
HETATM    2  C4  UNL     1      31.890  19.282  47.088  1.00  0.00    -0.050 A 
HETATM    3  C3  UNL     1      32.656  19.816  46.077  1.00  0.00     0.008 A 
HETATM    4  C2  UNL     1      32.856  19.163  44.881  1.00  0.00     0.001 A 
HETATM    5  C1  UNL     1      32.278  17.938  44.681  1.00  0.00     0.000 A 
HETATM    6  C23 UNL     1      31.495  17.360  45.675  1.00  0.00     0.001 A 
HETATM    7  C22 UNL     1      31.313  18.025  46.846  1.00  0.00     0.008 A 
ENDBRANCH   1   2
BRANCH   1   8
HETATM    8  C6  UNL     1      30.185  19.984  48.665  1.00  0.00     0.014 C 
BRANCH   8   9
HETATM    9  C7  UNL     1      29.579  21.370  48.522  1.00  0.00     0.006 C 
BRANCH   9  10
HETATM   10  C8  UNL     1      28.819  21.371  47.206  1.00  0.00     0.041 C 
BRANCH  10  11
HETATM   11  C9  UNL     1      29.628  21.948  46.114  1.00  0.00    -0.030 A 
HETATM   12  C10 UNL     1      30.379  23.092  46.088  1.00  0.00     0.096 A 
HETATM   13  N1  UNL     1      30.952  23.225  44.879  1.00  0.00    -0.365 N 
HETATM   14  C11 UNL     1      30.588  22.176  44.095  1.00  0.00     0.042 A 
ATOM     15  H1  UNL     1      31.563  23.992  44.595  1.00  0.00     0.165 HD
HETATM   16  C12 UNL     1      30.910  21.864  42.786  1.00  0.00     0.030 A 
HETATM   17  C16 UNL     1      29.760  21.376  44.868  1.00  0.00    -0.002 A 
HETATM   18  C13 UNL     1      30.390  20.710  42.221  1.00  0.00     0.002 A 
HETATM   19  C14 UNL     1      29.566  19.905  42.974  1.00  0.00     0.001 A 
HETATM   20  C15 UNL     1      29.250  20.224  44.277  1.00  0.00     0.014 A 
ENDBRANCH  10  11
ENDBRANCH   9  10
ENDBRANCH   8   9
ENDBRANCH   1   8
BRANCH   1  21
HETATM   21  C17 UNL     1      32.453  19.388  49.475  1.00  0.00    -0.047 A 
HETATM   22  C18 UNL     1      31.957  18.507  50.405  1.00  0.00     0.025 A 
HETATM   23  C19 UNL     1      32.777  17.995  51.417  1.00  0.00     0.088 A 
HETATM   24  N2  UNL     1      34.079  18.361  51.499  1.00  0.00    -0.375 N 
HETATM   25  C20 UNL     1      34.586  19.221  50.600  1.00  0.00     0.088 A 
ATOM     26  H2  UNL     1      34.672  17.985  52.239  1.00  0.00     0.164 HD
HETATM   27  C21 UNL     1      33.787  19.733  49.597  1.00  0.00     0.025 A 
ENDBRANCH   1  21
TORSDOF 6
ENDMDL
MODEL 2
REMARK VINA RESULT: -7.919786364      1.440      2.354
REMARK  6 active torsions:
REMARK  status: ('A' for Active; 'I' for Inactive)
REMARK    1  A    between atoms: C4_4  and  C5_5 
REMARK    2  A    between atoms: C5_5  and  C6_6 
REMARK    3  A    between atoms: C5_5  and  C17_19 
REMARK    4  A    between atoms: C6_6  and  C7_7 
REMARK    5  A    between atoms: C7_7  and  C8_8 
REMARK    6  A    between atoms: C8_8  and  C9_9 
ROOT
HETATM    1  C5  UNL     1      32.299  19.782  49.652  1.00  0.00     0.051 C 
ENDROOT
BRANCH   1   2
HETATM    2  C4  UNL     1      32.289  19.282  48.244  1.00  0.00    -0.050 A 
HETATM    3  C3  UNL     1      31.749  18.077  47.856  1.00  0.00     0.008 A 
HETATM    4  C2  UNL     1      31.760  17.650  46.547  1.00  0.00     0.001 A 
HETATM    5  C1  UNL     1      32.327  18.446  45.588  1.00  0.00     0.000 A 
HETATM    6  C23 UNL     1      32.887  19.672  45.933  1.00  0.00     0.001 A 
HETATM    7  C22 UNL     1      32.862  20.070  47.233  1.00  0.00     0.008 A 
ENDBRANCH   1   2
BRANCH   1   8
HETATM    8  C6  UNL     1      30.938  19.628  50.229  1.00  0.00     0.014 C 
BRANCH   8   9
HETATM    9  C7  UNL     1      29.839  19.663  49.180  1.00  0.00     0.006 C 
BRANCH   9  10
HETATM   10  C8  UNL     1      29.637  21.124  48.818  1.00  0.00     0.041 C 
BRANCH  10  11
HETATM   11  C9  UNL     1      29.280  21.284  47.394  1.00  0.00    -0.030 A 
HETATM   12  C10 UNL     1      28.232  20.759  46.688  1.00  0.00     0.096 A 
HETATM   13  N1  UNL     1      28.298  21.173  45.410  1.00  0.00    -0.365 N 
HETATM   14  C11 UNL     1      29.386  21.974  45.258  1.00  0.00     0.042 A 
ATOM     15  H1  UNL     1      27.637  20.927  44.673  1.00  0.00     0.165 HD
HETATM   16  C12 UNL     1      29.880  22.636  44.147  1.00  0.00     0.030 A 
HETATM   17  C16 UNL     1      30.000  22.043  46.499  1.00  0.00    -0.002 A 
HETATM   18  C13 UNL     1      31.030  23.398  44.274  1.00  0.00     0.002 A 
HETATM   19  C14 UNL     1      31.654  23.478  45.499  1.00  0.00     0.001 A 
HETATM   20  C15 UNL     1      31.154  22.815  46.600  1.00  0.00     0.014 A 
ENDBRANCH  10  11
ENDBRANCH   9  10
ENDBRANCH   8   9
ENDBRANCH   1   8
BRANCH   1  21
HETATM   21  C17 UNL     1      33.370  19.188  50.446  1.00  0.00    -0.047 A 
HETATM   22  C18 UNL     1      33.177  18.129  51.300  1.00  0.00     0.025 A 
HETATM   23  C19 UNL     1      34.243  17.601  52.039  1.00  0.00     0.088 A 
HETATM   24  N2  UNL     1      35.486  18.126  51.925  1.00  0.00    -0.375 N 
HETATM   25  C20 UNL     1      35.698  19.161  51.096  1.00  0.00     0.088 A 
ATOM     26  H2  UNL     1      36.259  17.738  52.467  1.00  0.00     0.164 HD
HETATM   27  C21 UNL     1      34.656  19.691  50.361  1.00  0.00     0.025 A 
ENDBRANCH   1  21
TORSDOF 6
ENDMDL
MODEL 3
REMARK VINA RESULT: -7.916028575      1.986      4.285
REMARK  6 active torsions:
REMARK  status: ('A' for Active; 'I' for Inactive)
REMARK    1  A    between atoms: C4_4  and  C5_5 
REMARK    2  A    between atoms: C5_5  and  C6_6 
REMARK    3  A    between atoms: C5_5  and  C17_19 
REMARK    4  A    between atoms: C6_6  and  C7_7 
REMARK    5  A    between atoms: C7_7  and  C8_8 
REMARK    6  A    between atoms: C8_8  and  C9_9 
ROOT
HETATM    1  C5  UNL     1      31.692  18.433  49.807  1.00  0.00     0.051 C 
ENDROOT
BRANCH   1   2
HETATM    2  C4  UNL     1      32.844  18.685  50.726  1.00  0.00    -0.050 A 
HETATM    3  C3  UNL     1      33.257  19.936  51.120  1.00  0.00     0.008 A 
HETATM    4  C2  UNL     1      34.325  20.127  51.968  1.00  0.00     0.001 A 
HETATM    5  C1  UNL     1      35.007  19.039  52.442  1.00  0.00     0.000 A 
HETATM    6  C23 UNL     1      34.625  17.753  52.071  1.00  0.00     0.001 A 
HETATM    7  C22 UNL     1      33.567  17.593  51.232  1.00  0.00     0.008 A 
ENDBRANCH   1   2
BRANCH   1   8
HETATM    8  C6  UNL     1      30.498  19.153  50.320  1.00  0.00     0.014 C 
BRANCH   8   9
HETATM    9  C7  UNL     1      29.450  19.410  49.250  1.00  0.00     0.006 C 
BRANCH   9  10
HETATM   10  C8  UNL     1      29.540  20.888  48.908  1.00  0.00     0.041 C 
BRANCH  10  11
HETATM   11  C9  UNL     1      29.237  21.133  47.484  1.00  0.00    -0.030 A 
HETATM   12  C10 UNL     1      28.205  20.667  46.713  1.00  0.00     0.096 A 
HETATM   13  N1  UNL     1      28.324  21.151  45.464  1.00  0.00    -0.365 N 
HETATM   14  C11 UNL     1      29.431  21.937  45.395  1.00  0.00     0.042 A 
ATOM     15  H1  UNL     1      27.686  20.958  44.692  1.00  0.00     0.165 HD
HETATM   16  C12 UNL     1      29.976  22.649  44.340  1.00  0.00     0.030 A 
HETATM   17  C16 UNL     1      30.002  21.926  46.658  1.00  0.00    -0.002 A 
HETATM   18  C13 UNL     1      31.134  23.380  44.549  1.00  0.00     0.002 A 
HETATM   19  C14 UNL     1      31.715  23.380  45.798  1.00  0.00     0.001 A 
HETATM   20  C15 UNL     1      31.165  22.668  46.842  1.00  0.00     0.014 A 
ENDBRANCH  10  11
ENDBRANCH   9  10
ENDBRANCH   8   9
ENDBRANCH   1   8
BRANCH   1  21
HETATM   21  C17 UNL     1      32.021  18.712  48.413  1.00  0.00    -0.047 A 
HETATM   22  C18 UNL     1      32.882  19.711  48.027  1.00  0.00     0.025 A 
HETATM   23  C19 UNL     1      33.160  19.935  46.673  1.00  0.00     0.088 A 
HETATM   24  N2  UNL     1      32.583  19.168  45.716  1.00  0.00    -0.375 N 
HETATM   25  C20 UNL     1      31.739  18.186  46.071  1.00  0.00     0.088 A 
ATOM     26  H2  UNL     1      32.789  19.336  44.731  1.00  0.00     0.164 HD
HETATM   27  C21 UNL     1      31.457  17.954  47.403  1.00  0.00     0.025 A 
ENDBRANCH   1  21
TORSDOF 6
ENDMDL
MODEL 4
REMARK VINA RESULT: -7.899727953      2.093      7.238
REMARK  6 active torsions:
REMARK  status: ('A' for Active; 'I' for Inactive)
REMARK    1  A    between atoms: C4_4  and  C5_5 
REMARK    2  A    between atoms: C5_5  and  C6_6 
REMARK    3  A    between atoms: C5_5  and  C17_19 
REMARK    4  A    between atoms: C6_6  and  C7_7 
REMARK    5  A    between atoms: C7_7  and  C8_8 
REMARK    6  A    between atoms: C8_8  and  C9_9 
ROOT
HETATM    1  C5  UNL     1      31.360  20.403  47.343  1.00  0.00     0.051 C 
ENDROOT
BRANCH   1   2
HETATM    2  C4  UNL     1      30.244  21.226  46.786  1.00  0.00    -0.050 A 
HETATM    3  C3  UNL     1      28.910  20.931  46.951  1.00  0.00     0.008 A 
HETATM    4  C2  UNL     1      27.910  21.714  46.421  1.00  0.00     0.001 A 
HETATM    5  C1  UNL     1      28.243  22.830  45.702  1.00  0.00     0.000 A 
HETATM    6  C23 UNL     1      29.579  23.169  45.508  1.00  0.00     0.001 A 
HETATM    7  C22 UNL     1      30.547  22.378  46.042  1.00  0.00     0.008 A 
ENDBRANCH   1   2
BRANCH   1   8
HETATM    8  C6  UNL     1      31.023  20.011  48.736  1.00  0.00     0.014 C 
BRANCH   8   9
HETATM    9  C7  UNL     1      31.881  20.714  49.776  1.00  0.00     0.006 C 
BRANCH   9  10
HETATM   10  C8  UNL     1      33.163  19.907  49.890  1.00  0.00     0.041 C 
BRANCH  10  11
HETATM   11  C9  UNL     1      33.441  19.528  51.290  1.00  0.00    -0.030 A 
HETATM   12  C10 UNL     1      32.599  19.472  52.368  1.00  0.00     0.096 A 
HETATM   13  N1  UNL     1      33.285  19.072  53.453  1.00  0.00    -0.365 N 
HETATM   14  C11 UNL     1      34.582  18.860  53.107  1.00  0.00     0.042 A 
ATOM     15  H1  UNL     1      32.894  18.947  54.388  1.00  0.00     0.165 HD
HETATM   16  C12 UNL     1      35.669  18.449  53.859  1.00  0.00     0.030 A 
HETATM   17  C16 UNL     1      34.680  19.146  51.754  1.00  0.00    -0.002 A 
HETATM   18  C13 UNL     1      36.902  18.314  53.243  1.00  0.00     0.002 A 
HETATM   19  C14 UNL     1      37.017  18.594  51.899  1.00  0.00     0.001 A 
HETATM   20  C15 UNL     1      35.929  19.004  51.159  1.00  0.00     0.014 A 
ENDBRANCH  10  11
ENDBRANCH   9  10
ENDBRANCH   8   9
ENDBRANCH   1   8
BRANCH   1  21
HETATM   21  C17 UNL     1      31.723  19.293  46.467  1.00  0.00    -0.047 A 
HETATM   22  C18 UNL     1      32.124  18.064  46.933  1.00  0.00     0.025 A 
HETATM   23  C19 UNL     1      32.463  17.036  46.046  1.00  0.00     0.088 A 
HETATM   24  N2  UNL     1      32.402  17.235  44.707  1.00  0.00    -0.375 N 
HETATM   25  C20 UNL     1      32.012  18.428  44.228  1.00  0.00     0.088 A 
ATOM     26  H2  UNL     1      32.651  16.482  44.065  1.00  0.00     0.164 HD
HETATM   27  C21 UNL     1      31.675  19.450  45.093  1.00  0.00     0.025 A 
ENDBRANCH   1  21
TORSDOF 6
ENDMDL
MODEL 5
REMARK VINA RESULT: -7.884220546      2.111      7.118
REMARK  6 active torsions:
REMARK  status: ('A' for Active; 'I' for Inactive)
REMARK    1  A    between atoms: C4_4  and  C5_5 
REMARK    2  A    between atoms: C5_5  and  C6_6 
REMARK    3  A    between atoms: C5_5  and  C17_19 
REMARK    4  A    between atoms: C6_6  and  C7_7 
REMARK    5  A    between atoms: C7_7  and  C8_8 
REMARK    6  A    between atoms: C8_8  and  C9_9 
ROOT
HETATM    1  C5  UNL     1      31.296  20.558  47.316  1.00  0.00     0.051 C 
ENDROOT
BRANCH   1   2
HETATM    2  C4  UNL     1      30.248  21.413  46.680  1.00  0.00    -0.050 A 
HETATM    3  C3  UNL     1      30.519  22.517  45.905  1.00  0.00     0.008 A 
HETATM    4  C2  UNL     1      29.525  23.281  45.336  1.00  0.00     0.001 A 
HETATM    5  C1  UNL     1      28.216  22.939  45.544  1.00  0.00     0.000 A 
HETATM    6  C23 UNL     1      27.894  21.831  46.321  1.00  0.00     0.001 A 
HETATM    7  C22 UNL     1      28.894  21.093  46.871  1.00  0.00     0.008 A 
ENDBRANCH   1   2
BRANCH   1   8
HETATM    8  C6  UNL     1      30.871  20.219  48.698  1.00  0.00     0.014 C 
BRANCH   8   9
HETATM    9  C7  UNL     1      31.779  20.810  49.764  1.00  0.00     0.006 C 
BRANCH   9  10
HETATM   10  C8  UNL     1      32.070  19.691  50.749  1.00  0.00     0.041 C 
BRANCH  10  11
HETATM   11  C9  UNL     1      33.520  19.533  50.975  1.00  0.00    -0.030 A 
HETATM   12  C10 UNL     1      34.566  19.674  50.102  1.00  0.00     0.096 A 
HETATM   13  N1  UNL     1      35.722  19.436  50.745  1.00  0.00    -0.365 N 
HETATM   14  C11 UNL     1      35.457  19.135  52.044  1.00  0.00     0.042 A 
ATOM     15  H1  UNL     1      36.652  19.474  50.325  1.00  0.00     0.165 HD
HETATM   16  C12 UNL     1      36.300  18.816  53.094  1.00  0.00     0.030 A 
HETATM   17  C16 UNL     1      34.079  19.195  52.188  1.00  0.00    -0.002 A 
HETATM   18  C13 UNL     1      35.752  18.547  54.338  1.00  0.00     0.002 A 
HETATM   19  C14 UNL     1      34.386  18.602  54.500  1.00  0.00     0.001 A 
HETATM   20  C15 UNL     1      33.555  18.921  53.447  1.00  0.00     0.014 A 
ENDBRANCH  10  11
ENDBRANCH   9  10
ENDBRANCH   8   9
ENDBRANCH   1   8
BRANCH   1  21
HETATM   21  C17 UNL     1      31.655  19.410  46.488  1.00  0.00    -0.047 A 
HETATM   22  C18 UNL     1      32.114  18.222  47.003  1.00  0.00     0.025 A 
HETATM   23  C19 UNL     1      32.445  17.155  46.160  1.00  0.00     0.088 A 
HETATM   24  N2  UNL     1      32.319  17.275  44.817  1.00  0.00    -0.375 N 
HETATM   25  C20 UNL     1      31.871  18.426  44.291  1.00  0.00     0.088 A 
ATOM     26  H2  UNL     1      32.562  16.493  44.207  1.00  0.00     0.164 HD
HETATM   27  C21 UNL     1      31.541  19.487  45.111  1.00  0.00     0.025 A 
ENDBRANCH   1  21
TORSDOF 6
ENDMDL
