MODEL 1
REMARK VINA RESULT: -4.761186572      0.000      0.000
REMARK  1 active torsions:
REMARK  status: ('A' for Active; 'I' for Inactive)
REMARK       I    between atoms: N1_1  and  C1_5 
REMARK       I    between atoms: C1_5  and  N2_6 
REMARK       I    between atoms: C1_5  and  N3_10 
REMARK    1  A    between atoms: N3_10  and  C2_12 
ROOT
HETATM    1  N1  UNL     1      73.331  40.275  42.231  1.00  0.00    -0.033 N 
ATOM      2  H11 UNL     1      74.272  39.889  42.314  1.00  0.00     0.278 HD
ATOM      3  H12 UNL     1      72.925  40.120  41.308  1.00  0.00     0.278 HD
ATOM      4  H13 UNL     1      72.646  39.751  42.776  1.00  0.00     0.278 HD
HETATM    5  C1  UNL     1      73.371  41.681  42.593  1.00  0.00     0.478 C 
HETATM    6  N2  UNL     1      72.054  42.220  42.477  1.00  0.00    -0.033 N 
ATOM      7  H21 UNL     1      72.081  43.208  42.730  1.00  0.00     0.278 HD
ATOM      8  H22 UNL     1      71.368  41.696  43.021  1.00  0.00     0.278 HD
ATOM      9  H23 UNL     1      71.648  42.065  41.554  1.00  0.00     0.278 HD
HETATM   10  N3  UNL     1      74.001  41.828  43.848  1.00  0.00    -0.348 N 
ATOM     11  H3  UNL     1      74.845  42.393  43.943  1.00  0.00     0.159 HD
ENDROOT
BRANCH  10  12
HETATM   12  C2  UNL     1      73.442  41.177  44.969  1.00  0.00     0.219 C 
HETATM   13  C3  UNL     1      73.777  41.693  46.306  1.00  0.00     0.055 C 
HETATM   14  C4  UNL     1      73.646  40.469  47.194  1.00  0.00     0.030 C 
HETATM   15  C5  UNL     1      73.719  39.333  46.229  1.00  0.00     0.170 C 
HETATM   16  O1  UNL     1      73.941  39.873  44.994  1.00  0.00    -0.367 OA
ENDBRANCH  10  12
TORSDOF 1
ENDMDL
MODEL 2
REMARK VINA RESULT: -4.526439811      1.261      1.772
REMARK  1 active torsions:
REMARK  status: ('A' for Active; 'I' for Inactive)
REMARK       I    between atoms: N1_1  and  C1_5 
REMARK       I    between atoms: C1_5  and  N2_6 
REMARK       I    between atoms: C1_5  and  N3_10 
REMARK    1  A    between atoms: N3_10  and  C2_12 
ROOT
HETATM    1  N1  UNL     1      74.554  41.951  42.671  1.00  0.00    -0.033 N 
ATOM      2  H11 UNL     1      74.480  42.916  42.993  1.00  0.00     0.278 HD
ATOM      3  H12 UNL     1      75.023  41.876  41.768  1.00  0.00     0.278 HD
ATOM      4  H13 UNL     1      75.219  41.406  43.221  1.00  0.00     0.278 HD
HETATM    5  C1  UNL     1      73.227  41.360  42.659  1.00  0.00     0.478 C 
HETATM    6  N2  UNL     1      73.332  40.010  42.208  1.00  0.00    -0.033 N 
ATOM      7  H21 UNL     1      72.400  39.595  42.199  1.00  0.00     0.278 HD
ATOM      8  H22 UNL     1      73.996  39.465  42.758  1.00  0.00     0.278 HD
ATOM      9  H23 UNL     1      73.801  39.935  41.306  1.00  0.00     0.278 HD
HETATM   10  N3  UNL     1      72.612  41.557  43.916  1.00  0.00    -0.348 N 
ATOM     11  H3  UNL     1      71.733  42.069  43.990  1.00  0.00     0.159 HD
ENDROOT
BRANCH  10  12
HETATM   12  C2  UNL     1      73.236  41.031  45.067  1.00  0.00     0.219 C 
HETATM   13  C3  UNL     1      72.380  40.620  46.191  1.00  0.00     0.055 C 
HETATM   14  C4  UNL     1      73.284  40.792  47.398  1.00  0.00     0.030 C 
HETATM   15  C5  UNL     1      74.356  41.703  46.901  1.00  0.00     0.170 C 
HETATM   16  O1  UNL     1      74.027  42.042  45.619  1.00  0.00    -0.367 OA
ENDBRANCH  10  12
TORSDOF 1
ENDMDL
MODEL 3
REMARK VINA RESULT: -4.495123919      1.347      1.863
REMARK  1 active torsions:
REMARK  status: ('A' for Active; 'I' for Inactive)
REMARK       I    between atoms: N1_1  and  C1_5 
REMARK       I    between atoms: C1_5  and  N2_6 
REMARK       I    between atoms: C1_5  and  N3_10 
REMARK    1  A    between atoms: N3_10  and  C2_12 
ROOT
HETATM    1  N1  UNL     1      72.234  42.142  42.624  1.00  0.00    -0.033 N 
ATOM      2  H11 UNL     1      71.390  41.583  42.749  1.00  0.00     0.278 HD
ATOM      3  H12 UNL     1      72.205  42.710  41.778  1.00  0.00     0.278 HD
ATOM      4  H13 UNL     1      72.302  42.901  43.302  1.00  0.00     0.278 HD
HETATM    5  C1  UNL     1      73.387  41.258  42.661  1.00  0.00     0.478 C 
HETATM    6  N2  UNL     1      74.568  42.041  42.487  1.00  0.00    -0.033 N 
ATOM      7  H21 UNL     1      75.378  41.422  42.513  1.00  0.00     0.278 HD
ATOM      8  H22 UNL     1      74.636  42.801  43.165  1.00  0.00     0.278 HD
ATOM      9  H23 UNL     1      74.538  42.610  41.641  1.00  0.00     0.278 HD
HETATM   10  N3  UNL     1      73.330  40.458  43.823  1.00  0.00    -0.348 N 
ATOM     11  H3  UNL     1      73.301  39.440  43.752  1.00  0.00     0.159 HD
ENDROOT
BRANCH  10  12
HETATM   12  C2  UNL     1      73.313  41.090  45.085  1.00  0.00     0.219 C 
HETATM   13  C3  UNL     1      73.810  40.333  46.245  1.00  0.00     0.055 C 
HETATM   14  C4  UNL     1      73.046  40.939  47.408  1.00  0.00     0.030 C 
HETATM   15  C5  UNL     1      71.892  41.618  46.749  1.00  0.00     0.170 C 
HETATM   16  O1  UNL     1      71.979  41.344  45.413  1.00  0.00    -0.367 OA
ENDBRANCH  10  12
TORSDOF 1
ENDMDL
MODEL 4
REMARK VINA RESULT: -4.489033289      1.586      2.256
REMARK  1 active torsions:
REMARK  status: ('A' for Active; 'I' for Inactive)
REMARK       I    between atoms: N1_1  and  C1_5 
REMARK       I    between atoms: C1_5  and  N2_6 
REMARK       I    between atoms: C1_5  and  N3_10 
REMARK    1  A    between atoms: N3_10  and  C2_12 
ROOT
HETATM    1  N1  UNL     1      72.352  41.818  43.453  1.00  0.00    -0.033 N 
ATOM      2  H11 UNL     1      71.483  41.284  43.430  1.00  0.00     0.278 HD
ATOM      3  H12 UNL     1      72.224  42.787  43.162  1.00  0.00     0.278 HD
ATOM      4  H13 UNL     1      72.673  41.999  44.405  1.00  0.00     0.278 HD
HETATM    5  C1  UNL     1      73.347  41.124  42.653  1.00  0.00     0.478 C 
HETATM    6  N2  UNL     1      74.563  41.870  42.687  1.00  0.00    -0.033 N 
ATOM      7  H21 UNL     1      75.261  41.383  42.125  1.00  0.00     0.278 HD
ATOM      8  H22 UNL     1      74.884  42.051  43.638  1.00  0.00     0.278 HD
ATOM      9  H23 UNL     1      74.434  42.839  42.395  1.00  0.00     0.278 HD
HETATM   10  N3  UNL     1      73.426  39.775  43.067  1.00  0.00    -0.348 N 
ATOM     11  H3  UNL     1      73.237  39.018  42.410  1.00  0.00     0.159 HD
ENDROOT
BRANCH  10  12
HETATM   12  C2  UNL     1      73.772  39.494  44.406  1.00  0.00     0.219 C 
HETATM   13  C3  UNL     1      74.351  38.175  44.709  1.00  0.00     0.055 C 
HETATM   14  C4  UNL     1      73.953  37.945  46.155  1.00  0.00     0.030 C 
HETATM   15  C5  UNL     1      72.827  38.902  46.361  1.00  0.00     0.170 C 
HETATM   16  O1  UNL     1      72.596  39.509  45.159  1.00  0.00    -0.367 OA
ENDBRANCH  10  12
TORSDOF 1
ENDMDL
MODEL 5
REMARK VINA RESULT: -3.905359646      7.746      8.931
REMARK  1 active torsions:
REMARK  status: ('A' for Active; 'I' for Inactive)
REMARK       I    between atoms: N1_1  and  C1_5 
REMARK       I    between atoms: C1_5  and  N2_6 
REMARK       I    between atoms: C1_5  and  N3_10 
REMARK    1  A    between atoms: N3_10  and  C2_12 
ROOT
HETATM    1  N1  UNL     1      71.260  33.058  47.308  1.00  0.00    -0.033 N 
ATOM      2  H11 UNL     1      70.664  33.079  46.481  1.00  0.00     0.278 HD
ATOM      3  H12 UNL     1      70.728  33.135  48.175  1.00  0.00     0.278 HD
ATOM      4  H13 UNL     1      71.666  32.137  47.474  1.00  0.00     0.278 HD
HETATM    5  C1  UNL     1      72.269  34.096  47.181  1.00  0.00     0.478 C 
HETATM    6  N2  UNL     1      73.103  34.066  48.339  1.00  0.00    -0.033 N 
ATOM      7  H21 UNL     1      73.812  34.795  48.251  1.00  0.00     0.278 HD
ATOM      8  H22 UNL     1      73.509  33.145  48.505  1.00  0.00     0.278 HD
ATOM      9  H23 UNL     1      72.571  34.143  49.206  1.00  0.00     0.278 HD
HETATM   10  N3  UNL     1      72.921  33.969  45.935  1.00  0.00    -0.348 N 
ATOM     11  H3  UNL     1      72.905  34.734  45.260  1.00  0.00     0.159 HD
ENDROOT
BRANCH  10  12
HETATM   12  C2  UNL     1      73.595  32.765  45.639  1.00  0.00     0.219 C 
HETATM   13  C3  UNL     1      74.694  32.809  44.661  1.00  0.00     0.055 C 
HETATM   14  C4  UNL     1      74.700  31.407  44.081  1.00  0.00     0.030 C 
HETATM   15  C5  UNL     1      73.347  30.882  44.431  1.00  0.00     0.170 C 
HETATM   16  O1  UNL     1      72.674  31.898  45.048  1.00  0.00    -0.367 OA
ENDBRANCH  10  12
TORSDOF 1
ENDMDL
