MODEL 1
REMARK VINA RESULT: -4.306132140      0.000      0.000
REMARK  4 active torsions:
REMARK  status: ('A' for Active; 'I' for Inactive)
REMARK    1  A    between atoms: N1_2  and  N2_4 
REMARK    2  A    between atoms: N2_4  and  C2_6 
REMARK    3  A    between atoms: C2_6  and  N3_7 
REMARK    4  A    between atoms: C2_6  and  C3_11 
ROOT
HETATM    1  C2  UNL     1      73.872  40.172  43.647  1.00  0.00     0.347 C 
ENDROOT
BRANCH   1   2
HETATM    2  N2  UNL     1      73.122  40.715  42.543  1.00  0.00    -0.306 N 
ATOM      3  H2  UNL     1      72.571  40.131  41.915  1.00  0.00     0.182 HD
BRANCH   2   4
HETATM    4  N1  UNL     1      73.207  42.076  42.401  1.00  0.00    -0.343 N 
HETATM    5  C1  UNL     1      71.951  42.743  42.244  1.00  0.00     0.167 C 
ATOM      6  H1  UNL     1      74.096  42.575  42.406  1.00  0.00     0.179 HD
ENDBRANCH   2   4
ENDBRANCH   1   2
BRANCH   1   7
HETATM    7  N3  UNL     1      74.282  38.825  43.258  1.00  0.00    -0.051 N 
ATOM      8  H33 UNL     1      73.580  38.114  43.467  1.00  0.00     0.277 HD
ATOM      9  H32 UNL     1      74.306  38.688  42.247  1.00  0.00     0.277 HD
ATOM     10  H31 UNL     1      75.180  38.647  43.709  1.00  0.00     0.277 HD
ENDBRANCH   1   7
BRANCH   1  11
HETATM   11  C3  UNL     1      73.105  40.097  44.917  1.00  0.00     0.077 A 
HETATM   12  C4  UNL     1      73.219  39.108  45.879  1.00  0.00     0.118 A 
HETATM   13  N4  UNL     1      72.366  39.413  46.866  1.00  0.00    -0.360 N 
HETATM   14  C5  UNL     1      71.724  40.536  46.577  1.00  0.00     0.180 A 
ATOM     15  H4  UNL     1      72.230  38.863  47.714  1.00  0.00     0.166 HD
HETATM   16  N5  UNL     1      72.189  40.958  45.363  1.00  0.00    -0.351 N 
ATOM     17  H5  UNL     1      71.883  41.799  44.875  1.00  0.00     0.166 HD
ENDBRANCH   1  11
TORSDOF 4
ENDMDL
MODEL 2
REMARK VINA RESULT: -4.229541139      1.092      1.682
REMARK  4 active torsions:
REMARK  status: ('A' for Active; 'I' for Inactive)
REMARK    1  A    between atoms: N1_2  and  N2_4 
REMARK    2  A    between atoms: N2_4  and  C2_6 
REMARK    3  A    between atoms: C2_6  and  N3_7 
REMARK    4  A    between atoms: C2_6  and  C3_11 
ROOT
HETATM    1  C2  UNL     1      73.789  40.101  43.601  1.00  0.00     0.347 C 
ENDROOT
BRANCH   1   2
HETATM    2  N2  UNL     1      73.041  41.332  43.530  1.00  0.00    -0.306 N 
ATOM      3  H2  UNL     1      72.808  41.880  44.357  1.00  0.00     0.182 HD
BRANCH   2   4
HETATM    4  N1  UNL     1      72.669  41.708  42.266  1.00  0.00    -0.343 N 
HETATM    5  C1  UNL     1      71.831  42.866  42.206  1.00  0.00     0.167 C 
ATOM      6  H1  UNL     1      72.966  41.203  41.431  1.00  0.00     0.179 HD
ENDBRANCH   2   4
ENDBRANCH   1   2
BRANCH   1   7
HETATM    7  N3  UNL     1      73.411  39.309  42.434  1.00  0.00    -0.051 N 
ATOM      8  H33 UNL     1      73.847  38.387  42.414  1.00  0.00     0.277 HD
ATOM      9  H32 UNL     1      72.441  38.991  42.460  1.00  0.00     0.277 HD
ATOM     10  H31 UNL     1      73.626  39.873  41.612  1.00  0.00     0.277 HD
ENDBRANCH   1   7
BRANCH   1  11
HETATM   11  C3  UNL     1      73.528  39.309  44.831  1.00  0.00     0.077 A 
HETATM   12  C4  UNL     1      72.741  39.703  45.900  1.00  0.00     0.118 A 
HETATM   13  N4  UNL     1      72.757  38.705  46.794  1.00  0.00    -0.360 N 
HETATM   14  C5  UNL     1      73.509  37.710  46.346  1.00  0.00     0.180 A 
ATOM     15  H4  UNL     1      72.264  38.710  47.687  1.00  0.00     0.166 HD
HETATM   16  N5  UNL     1      73.986  38.091  45.123  1.00  0.00    -0.351 N 
ATOM     17  H5  UNL     1      74.595  37.532  44.527  1.00  0.00     0.166 HD
ENDBRANCH   1  11
TORSDOF 4
ENDMDL
MODEL 3
REMARK VINA RESULT: -4.164810308      1.853      4.433
REMARK  4 active torsions:
REMARK  status: ('A' for Active; 'I' for Inactive)
REMARK    1  A    between atoms: N1_2  and  N2_4 
REMARK    2  A    between atoms: N2_4  and  C2_6 
REMARK    3  A    between atoms: C2_6  and  N3_7 
REMARK    4  A    between atoms: C2_6  and  C3_11 
ROOT
HETATM    1  C2  UNL     1      73.856  39.148  45.549  1.00  0.00     0.347 C 
ENDROOT
BRANCH   1   2
HETATM    2  N2  UNL     1      74.106  37.756  45.271  1.00  0.00    -0.306 N 
ATOM      3  H2  UNL     1      74.733  37.449  44.528  1.00  0.00     0.182 HD
BRANCH   2   4
HETATM    4  N1  UNL     1      73.437  36.876  46.082  1.00  0.00    -0.343 N 
HETATM    5  C1  UNL     1      73.934  35.535  46.053  1.00  0.00     0.167 C 
ATOM      6  H1  UNL     1      72.646  37.155  46.662  1.00  0.00     0.179 HD
ENDBRANCH   2   4
ENDBRANCH   1   2
BRANCH   1   7
HETATM    7  N3  UNL     1      72.690  39.200  46.428  1.00  0.00    -0.051 N 
ATOM      8  H33 UNL     1      71.826  38.910  45.969  1.00  0.00     0.277 HD
ATOM      9  H32 UNL     1      72.699  38.481  47.151  1.00  0.00     0.277 HD
ATOM     10  H31 UNL     1      72.646  40.147  46.804  1.00  0.00     0.277 HD
ENDBRANCH   1   7
BRANCH   1  11
HETATM   11  C3  UNL     1      73.587  39.965  44.337  1.00  0.00     0.077 A 
HETATM   12  C4  UNL     1      73.723  39.542  43.026  1.00  0.00     0.118 A 
HETATM   13  N4  UNL     1      73.375  40.570  42.239  1.00  0.00    -0.360 N 
HETATM   14  C5  UNL     1      73.031  41.611  42.983  1.00  0.00     0.180 A 
ATOM     15  H4  UNL     1      73.376  40.553  41.219  1.00  0.00     0.166 HD
HETATM   16  N5  UNL     1      73.163  41.228  44.288  1.00  0.00    -0.351 N 
ATOM     17  H5  UNL     1      72.969  41.816  45.098  1.00  0.00     0.166 HD
ENDBRANCH   1  11
TORSDOF 4
ENDMDL
MODEL 4
REMARK VINA RESULT: -4.152410116      6.496      8.283
REMARK  4 active torsions:
REMARK  status: ('A' for Active; 'I' for Inactive)
REMARK    1  A    between atoms: N1_2  and  N2_4 
REMARK    2  A    between atoms: N2_4  and  C2_6 
REMARK    3  A    between atoms: C2_6  and  N3_7 
REMARK    4  A    between atoms: C2_6  and  C3_11 
ROOT
HETATM    1  C2  UNL     1      74.109  32.013  44.986  1.00  0.00     0.347 C 
ENDROOT
BRANCH   1   2
HETATM    2  N2  UNL     1      74.531  31.778  43.628  1.00  0.00    -0.306 N 
ATOM      3  H2  UNL     1      73.951  32.017  42.824  1.00  0.00     0.182 HD
BRANCH   2   4
HETATM    4  N1  UNL     1      75.771  31.208  43.499  1.00  0.00    -0.343 N 
HETATM    5  C1  UNL     1      76.244  30.527  44.664  1.00  0.00     0.167 C 
ATOM      6  H1  UNL     1      76.315  31.266  42.638  1.00  0.00     0.179 HD
ENDBRANCH   2   4
ENDBRANCH   1   2
BRANCH   1   7
HETATM    7  N3  UNL     1      72.750  31.490  45.103  1.00  0.00    -0.051 N 
ATOM      8  H33 UNL     1      72.218  31.917  45.861  1.00  0.00     0.277 HD
ATOM      9  H32 UNL     1      72.140  31.782  44.338  1.00  0.00     0.277 HD
ATOM     10  H31 UNL     1      72.830  30.477  45.189  1.00  0.00     0.277 HD
ENDBRANCH   1   7
BRANCH   1  11
HETATM   11  C3  UNL     1      74.113  33.446  45.378  1.00  0.00     0.077 A 
HETATM   12  C4  UNL     1      73.038  34.151  45.892  1.00  0.00     0.118 A 
HETATM   13  N4  UNL     1      73.457  35.403  46.121  1.00  0.00    -0.360 N 
HETATM   14  C5  UNL     1      74.732  35.522  45.780  1.00  0.00     0.180 A 
ATOM     15  H4  UNL     1      72.880  36.153  46.502  1.00  0.00     0.166 HD
HETATM   16  N5  UNL     1      75.135  34.300  45.318  1.00  0.00    -0.351 N 
ATOM     17  H5  UNL     1      76.072  34.077  44.982  1.00  0.00     0.166 HD
ENDBRANCH   1  11
TORSDOF 4
ENDMDL
MODEL 5
REMARK VINA RESULT: -4.090125610      7.106      8.771
REMARK  4 active torsions:
REMARK  status: ('A' for Active; 'I' for Inactive)
REMARK    1  A    between atoms: N1_2  and  N2_4 
REMARK    2  A    between atoms: N2_4  and  C2_6 
REMARK    3  A    between atoms: C2_6  and  N3_7 
REMARK    4  A    between atoms: C2_6  and  C3_11 
ROOT
HETATM    1  C2  UNL     1      73.793  31.338  44.972  1.00  0.00     0.347 C 
ENDROOT
BRANCH   1   2
HETATM    2  N2  UNL     1      74.537  31.641  43.775  1.00  0.00    -0.306 N 
ATOM      3  H2  UNL     1      74.195  32.290  43.067  1.00  0.00     0.182 HD
BRANCH   2   4
HETATM    4  N1  UNL     1      75.739  30.991  43.661  1.00  0.00    -0.343 N 
HETATM    5  C1  UNL     1      76.332  30.605  44.904  1.00  0.00     0.167 C 
ATOM      6  H1  UNL     1      76.176  30.798  42.761  1.00  0.00     0.179 HD
ENDBRANCH   2   4
ENDBRANCH   1   2
BRANCH   1   7
HETATM    7  N3  UNL     1      72.654  30.518  44.565  1.00  0.00    -0.051 N 
ATOM      8  H33 UNL     1      71.934  30.446  45.283  1.00  0.00     0.277 HD
ATOM      9  H32 UNL     1      72.077  30.959  43.848  1.00  0.00     0.277 HD
ATOM     10  H31 UNL     1      73.029  29.614  44.279  1.00  0.00     0.277 HD
ENDBRANCH   1   7
BRANCH   1  11
HETATM   11  C3  UNL     1      73.295  32.538  45.691  1.00  0.00     0.077 A 
HETATM   12  C4  UNL     1      73.779  33.828  45.553  1.00  0.00     0.118 A 
HETATM   13  N4  UNL     1      73.056  34.613  46.364  1.00  0.00    -0.360 N 
HETATM   14  C5  UNL     1      72.149  33.888  47.002  1.00  0.00     0.180 A 
ATOM     15  H4  UNL     1      73.186  35.619  46.474  1.00  0.00     0.166 HD
HETATM   16  N5  UNL     1      72.301  32.598  46.579  1.00  0.00    -0.351 N 
ATOM     17  H5  UNL     1      71.742  31.804  46.892  1.00  0.00     0.166 HD
ENDBRANCH   1  11
TORSDOF 4
ENDMDL
