MODEL 1
REMARK VINA RESULT: -4.690634248      0.000      0.000
REMARK  4 active torsions:
REMARK  status: ('A' for Active; 'I' for Inactive)
REMARK    1  A    between atoms: C2_2  and  N1_3 
REMARK    2  A    between atoms: C2_2  and  O1_7 
REMARK    3  A    between atoms: O1_7  and  C3_8 
REMARK    4  A    between atoms: C4_11  and  N3_12 
ROOT
HETATM    1  C3  UNL     1      73.381  39.288  44.355  1.00  0.00     0.255 A 
HETATM    2  N2  UNL     1      74.063  39.730  43.287  1.00  0.00    -0.153 N 
ATOM      3  H2  UNL     1      74.682  39.167  42.704  1.00  0.00     0.188 HD
HETATM    4  C4  UNL     1      73.796  41.036  43.110  1.00  0.00     0.693 A 
HETATM    5  N4  UNL     1      72.939  41.363  44.099  1.00  0.00    -0.129 N 
ATOM      6  H4  UNL     1      72.542  42.292  44.244  1.00  0.00     0.205 HD
HETATM    7  N5  UNL     1      72.689  40.316  44.846  1.00  0.00    -0.250 N 
ATOM      8  H5  UNL     1      72.074  40.293  45.660  1.00  0.00     0.191 HD
ENDROOT
BRANCH   1   9
HETATM    9  O1  UNL     1      73.411  38.001  44.834  1.00  0.00    -0.287 OA
BRANCH   9  10
HETATM   10  C2  UNL     1      73.588  37.662  46.177  1.00  0.00     0.323 C 
HETATM   11  C1  UNL     1      74.945  38.100  46.653  1.00  0.00     0.071 C 
BRANCH  10  12
HETATM   12  N1  UNL     1      73.469  36.226  46.371  1.00  0.00    -0.053 N 
ATOM     13  H13 UNL     1      73.004  35.764  45.590  1.00  0.00     0.277 HD
ATOM     14  H12 UNL     1      74.367  35.748  46.303  1.00  0.00     0.277 HD
ATOM     15  H11 UNL     1      73.001  36.055  47.261  1.00  0.00     0.277 HD
ENDBRANCH  10  12
ENDBRANCH   9  10
ENDBRANCH   1   9
BRANCH   4  16
HETATM   16  N3  UNL     1      74.216  41.871  42.225  1.00  0.00    -0.233 N 
ATOM     17  H32 UNL     1      74.723  41.595  41.384  1.00  0.00     0.174 HD
ATOM     18  H31 UNL     1      74.141  42.887  42.176  1.00  0.00     0.174 HD
ENDBRANCH   4  16
TORSDOF 4
ENDMDL
MODEL 2
REMARK VINA RESULT: -4.653455386      1.253      1.649
REMARK  4 active torsions:
REMARK  status: ('A' for Active; 'I' for Inactive)
REMARK    1  A    between atoms: C2_2  and  N1_3 
REMARK    2  A    between atoms: C2_2  and  O1_7 
REMARK    3  A    between atoms: O1_7  and  C3_8 
REMARK    4  A    between atoms: C4_11  and  N3_12 
ROOT
HETATM    1  C3  UNL     1      73.882  39.884  44.075  1.00  0.00     0.255 A 
HETATM    2  N2  UNL     1      73.592  41.194  44.074  1.00  0.00    -0.153 N 
ATOM      3  H2  UNL     1      73.701  41.826  44.867  1.00  0.00     0.188 HD
HETATM    4  C4  UNL     1      73.135  41.537  42.857  1.00  0.00     0.693 A 
HETATM    5  N4  UNL     1      73.159  40.400  42.131  1.00  0.00    -0.129 N 
ATOM      6  H4  UNL     1      72.870  40.325  41.156  1.00  0.00     0.205 HD
HETATM    7  N5  UNL     1      73.606  39.408  42.860  1.00  0.00    -0.250 N 
ATOM      8  H5  UNL     1      73.722  38.442  42.552  1.00  0.00     0.191 HD
ENDROOT
BRANCH   1   9
HETATM    9  O1  UNL     1      74.373  39.184  45.150  1.00  0.00    -0.287 OA
BRANCH   9  10
HETATM   10  C2  UNL     1      73.864  37.962  45.597  1.00  0.00     0.323 C 
HETATM   11  C1  UNL     1      73.089  38.154  46.872  1.00  0.00     0.071 C 
BRANCH  10  12
HETATM   12  N1  UNL     1      74.935  37.012  45.842  1.00  0.00    -0.053 N 
ATOM     13  H13 UNL     1      75.656  37.386  46.459  1.00  0.00     0.277 HD
ATOM     14  H12 UNL     1      74.639  36.233  46.430  1.00  0.00     0.277 HD
ATOM     15  H11 UNL     1      75.310  36.703  44.945  1.00  0.00     0.277 HD
ENDBRANCH  10  12
ENDBRANCH   9  10
ENDBRANCH   1   9
BRANCH   4  16
HETATM   16  N3  UNL     1      72.740  42.671  42.393  1.00  0.00    -0.233 N 
ATOM     17  H32 UNL     1      72.462  42.819  41.423  1.00  0.00     0.174 HD
ATOM     18  H31 UNL     1      72.629  43.577  42.848  1.00  0.00     0.174 HD
ENDBRANCH   4  16
TORSDOF 4
ENDMDL
MODEL 3
REMARK VINA RESULT: -4.542874670      1.645      1.962
REMARK  4 active torsions:
REMARK  status: ('A' for Active; 'I' for Inactive)
REMARK    1  A    between atoms: C2_2  and  N1_3 
REMARK    2  A    between atoms: C2_2  and  O1_7 
REMARK    3  A    between atoms: O1_7  and  C3_8 
REMARK    4  A    between atoms: C4_11  and  N3_12 
ROOT
HETATM    1  C3  UNL     1      73.889  40.177  44.250  1.00  0.00     0.255 A 
HETATM    2  N2  UNL     1      73.544  41.465  44.100  1.00  0.00    -0.153 N 
ATOM      3  H2  UNL     1      73.630  42.189  44.812  1.00  0.00     0.188 HD
HETATM    4  C4  UNL     1      73.066  41.644  42.856  1.00  0.00     0.693 A 
HETATM    5  N4  UNL     1      73.134  40.432  42.268  1.00  0.00    -0.129 N 
ATOM      6  H4  UNL     1      72.843  40.231  41.311  1.00  0.00     0.205 HD
HETATM    7  N5  UNL     1      73.627  39.551  43.102  1.00  0.00    -0.250 N 
ATOM      8  H5  UNL     1      73.782  38.561  42.908  1.00  0.00     0.191 HD
ENDROOT
BRANCH   1   9
HETATM    9  O1  UNL     1      74.415  39.629  45.395  1.00  0.00    -0.287 OA
BRANCH   9  10
HETATM   10  C2  UNL     1      73.671  38.945  46.359  1.00  0.00     0.323 C 
HETATM   11  C1  UNL     1      73.541  37.494  45.987  1.00  0.00     0.071 C 
BRANCH  10  12
HETATM   12  N1  UNL     1      72.339  39.513  46.486  1.00  0.00    -0.053 N 
ATOM     13  H13 UNL     1      71.610  38.800  46.499  1.00  0.00     0.277 HD
ATOM     14  H12 UNL     1      72.169  39.905  47.411  1.00  0.00     0.277 HD
ATOM     15  H11 UNL     1      72.203  40.196  45.740  1.00  0.00     0.277 HD
ENDBRANCH  10  12
ENDBRANCH   9  10
ENDBRANCH   1   9
BRANCH   4  16
HETATM   16  N3  UNL     1      72.620  42.698  42.267  1.00  0.00    -0.233 N 
ATOM     17  H32 UNL     1      72.447  43.582  42.746  1.00  0.00     0.174 HD
ATOM     18  H31 UNL     1      72.368  42.864  41.293  1.00  0.00     0.174 HD
ENDBRANCH   4  16
TORSDOF 4
ENDMDL
MODEL 4
REMARK VINA RESULT: -4.509627000      2.791      3.293
REMARK  4 active torsions:
REMARK  status: ('A' for Active; 'I' for Inactive)
REMARK    1  A    between atoms: C2_2  and  N1_3 
REMARK    2  A    between atoms: C2_2  and  O1_7 
REMARK    3  A    between atoms: O1_7  and  C3_8 
REMARK    4  A    between atoms: C4_11  and  N3_12 
ROOT
HETATM    1  C3  UNL     1      73.665  41.222  44.153  1.00  0.00     0.255 A 
HETATM    2  N2  UNL     1      72.418  41.593  43.825  1.00  0.00    -0.153 N 
ATOM      3  H2  UNL     1      71.582  41.419  44.383  1.00  0.00     0.188 HD
HETATM    4  C4  UNL     1      72.451  42.233  42.644  1.00  0.00     0.693 A 
HETATM    5  N4  UNL     1      73.748  42.235  42.273  1.00  0.00    -0.129 N 
ATOM      6  H4  UNL     1      74.108  42.648  41.412  1.00  0.00     0.205 HD
HETATM    7  N5  UNL     1      74.477  41.629  43.176  1.00  0.00    -0.250 N 
ATOM      8  H5  UNL     1      75.488  41.492  43.138  1.00  0.00     0.191 HD
ENDROOT
BRANCH   1   9
HETATM    9  O1  UNL     1      74.014  40.544  45.295  1.00  0.00    -0.287 OA
BRANCH   9  10
HETATM   10  C2  UNL     1      74.073  41.117  46.568  1.00  0.00     0.323 C 
HETATM   11  C1  UNL     1      72.719  41.082  47.221  1.00  0.00     0.071 C 
BRANCH  10  12
HETATM   12  N1  UNL     1      74.517  42.499  46.495  1.00  0.00    -0.053 N 
ATOM     13  H13 UNL     1      73.969  43.052  45.838  1.00  0.00     0.277 HD
ATOM     14  H12 UNL     1      74.296  43.025  47.340  1.00  0.00     0.277 HD
ATOM     15  H11 UNL     1      75.514  42.510  46.278  1.00  0.00     0.277 HD
ENDBRANCH  10  12
ENDBRANCH   9  10
ENDBRANCH   1   9
BRANCH   4  16
HETATM   16  N3  UNL     1      71.508  42.761  41.944  1.00  0.00    -0.233 N 
ATOM     17  H32 UNL     1      70.878  43.481  42.297  1.00  0.00     0.174 HD
ATOM     18  H31 UNL     1      71.216  42.593  40.981  1.00  0.00     0.174 HD
ENDBRANCH   4  16
TORSDOF 4
ENDMDL
MODEL 5
REMARK VINA RESULT: -4.478019490      6.251      7.469
REMARK  4 active torsions:
REMARK  status: ('A' for Active; 'I' for Inactive)
REMARK    1  A    between atoms: C2_2  and  N1_3 
REMARK    2  A    between atoms: C2_2  and  O1_7 
REMARK    3  A    between atoms: O1_7  and  C3_8 
REMARK    4  A    between atoms: C4_11  and  N3_12 
ROOT
HETATM    1  C3  UNL     1      73.026  33.329  45.891  1.00  0.00     0.255 A 
HETATM    2  N2  UNL     1      71.965  32.698  46.416  1.00  0.00    -0.153 N 
ATOM      3  H2  UNL     1      71.550  31.837  46.059  1.00  0.00     0.188 HD
HETATM    4  C4  UNL     1      71.539  33.385  47.490  1.00  0.00     0.693 A 
HETATM    5  N4  UNL     1      72.371  34.442  47.593  1.00  0.00    -0.129 N 
ATOM      6  H4  UNL     1      72.313  35.162  48.313  1.00  0.00     0.205 HD
HETATM    7  N5  UNL     1      73.263  34.410  46.635  1.00  0.00    -0.250 N 
ATOM      8  H5  UNL     1      74.008  35.092  46.484  1.00  0.00     0.191 HD
ENDROOT
BRANCH   1   9
HETATM    9  O1  UNL     1      73.724  32.913  44.782  1.00  0.00    -0.287 OA
BRANCH   9  10
HETATM   10  C2  UNL     1      74.161  31.604  44.569  1.00  0.00     0.323 C 
HETATM   11  C1  UNL     1      74.977  31.128  45.739  1.00  0.00     0.071 C 
BRANCH  10  12
HETATM   12  N1  UNL     1      74.976  31.517  43.369  1.00  0.00    -0.053 N 
ATOM     13  H13 UNL     1      75.551  30.675  43.347  1.00  0.00     0.277 HD
ATOM     14  H12 UNL     1      74.422  31.330  42.534  1.00  0.00     0.277 HD
ATOM     15  H11 UNL     1      75.529  32.370  43.288  1.00  0.00     0.277 HD
ENDBRANCH  10  12
ENDBRANCH   9  10
ENDBRANCH   1   9
BRANCH   4  16
HETATM   16  N3  UNL     1      70.565  33.163  48.302  1.00  0.00    -0.233 N 
ATOM     17  H32 UNL     1      70.671  32.678  49.193  1.00  0.00     0.174 HD
ATOM     18  H31 UNL     1      69.575  33.400  48.238  1.00  0.00     0.174 HD
ENDBRANCH   4  16
TORSDOF 4
ENDMDL
