MODEL 1
REMARK VINA RESULT: -4.959550514      0.000      0.000
REMARK  4 active torsions:
REMARK  status: ('A' for Active; 'I' for Inactive)
REMARK    1  A    between atoms: O1_2  and  C2_3 
REMARK    2  A    between atoms: C2_3  and  N1_4 
REMARK    3  A    between atoms: C2_3  and  C3_8 
REMARK    4  A    between atoms: C4_13  and  N4_14 
ROOT
HETATM    1  C3  UNL     1      73.492  39.742  44.207  1.00  0.00     0.169 A 
HETATM    2  N2  UNL     1      73.982  39.385  43.024  1.00  0.00    -0.271 N 
ATOM      3  H2  UNL     1      74.410  38.490  42.789  1.00  0.00     0.189 HD
HETATM    4  N3  UNL     1      73.808  40.409  42.214  1.00  0.00    -0.131 N 
ATOM      5  H3  UNL     1      74.088  40.426  41.233  1.00  0.00     0.205 HD
HETATM    6  C4  UNL     1      73.214  41.424  42.850  1.00  0.00     0.692 A 
HETATM    7  N5  UNL     1      73.020  40.992  44.106  1.00  0.00    -0.174 N 
ATOM      8  H5  UNL     1      72.585  41.526  44.858  1.00  0.00     0.185 HD
ENDROOT
BRANCH   1   9
HETATM    9  C2  UNL     1      73.425  38.978  45.483  1.00  0.00     0.388 C 
BRANCH   9  10
HETATM   10  O1  UNL     1      73.054  37.672  45.307  1.00  0.00    -0.359 OA
HETATM   11  C1  UNL     1      73.786  36.848  46.125  1.00  0.00     0.204 C 
ENDBRANCH   9  10
BRANCH   9  12
HETATM   12  N1  UNL     1      74.687  39.035  46.208  1.00  0.00    -0.046 N 
ATOM     13  H13 UNL     1      74.673  38.459  47.049  1.00  0.00     0.277 HD
ATOM     14  H12 UNL     1      75.436  38.553  45.712  1.00  0.00     0.277 HD
ATOM     15  H11 UNL     1      74.922  40.006  46.410  1.00  0.00     0.277 HD
ENDBRANCH   9  12
ENDBRANCH   1   9
BRANCH   6  16
HETATM   16  N4  UNL     1      72.887  42.591  42.368  1.00  0.00    -0.233 N 
ATOM     17  H42 UNL     1      73.380  43.472  42.515  1.00  0.00     0.174 HD
ATOM     18  H41 UNL     1      72.094  42.822  41.769  1.00  0.00     0.174 HD
ENDBRANCH   6  16
TORSDOF 4
ENDMDL
MODEL 2
REMARK VINA RESULT: -4.796299596      1.019      1.019
REMARK  4 active torsions:
REMARK  status: ('A' for Active; 'I' for Inactive)
REMARK    1  A    between atoms: O1_2  and  C2_3 
REMARK    2  A    between atoms: C2_3  and  N1_4 
REMARK    3  A    between atoms: C2_3  and  C3_8 
REMARK    4  A    between atoms: C4_13  and  N4_14 
ROOT
HETATM    1  C3  UNL     1      73.472  39.900  44.244  1.00  0.00     0.169 A 
HETATM    2  N2  UNL     1      73.613  39.417  43.014  1.00  0.00    -0.271 N 
ATOM      3  H2  UNL     1      73.875  38.465  42.761  1.00  0.00     0.189 HD
HETATM    4  N3  UNL     1      73.350  40.406  42.183  1.00  0.00    -0.131 N 
ATOM      5  H3  UNL     1      73.379  40.331  41.166  1.00  0.00     0.205 HD
HETATM    6  C4  UNL     1      73.041  41.521  42.853  1.00  0.00     0.692 A 
HETATM    7  N5  UNL     1      73.121  41.190  44.152  1.00  0.00    -0.174 N 
ATOM      8  H5  UNL     1      72.944  41.816  44.937  1.00  0.00     0.185 HD
ENDROOT
BRANCH   1   9
HETATM    9  C2  UNL     1      73.645  39.226  45.560  1.00  0.00     0.388 C 
BRANCH   9  10
HETATM   10  O1  UNL     1      72.462  39.032  46.223  1.00  0.00    -0.359 OA
HETATM   11  C1  UNL     1      72.661  38.277  47.352  1.00  0.00     0.204 C 
ENDBRANCH   9  10
BRANCH   9  12
HETATM   12  N1  UNL     1      74.342  37.955  45.422  1.00  0.00    -0.046 N 
ATOM     13  H13 UNL     1      74.239  37.559  44.488  1.00  0.00     0.277 HD
ATOM     14  H12 UNL     1      75.355  38.071  45.420  1.00  0.00     0.277 HD
ATOM     15  H11 UNL     1      74.029  37.312  46.149  1.00  0.00     0.277 HD
ENDBRANCH   9  12
ENDBRANCH   1   9
BRANCH   6  16
HETATM   16  N4  UNL     1      72.726  42.689  42.365  1.00  0.00    -0.233 N 
ATOM     17  H42 UNL     1      73.366  43.371  41.956  1.00  0.00     0.174 HD
ATOM     18  H41 UNL     1      71.802  43.116  42.307  1.00  0.00     0.174 HD
ENDBRANCH   6  16
TORSDOF 4
ENDMDL
MODEL 3
REMARK VINA RESULT: -4.781891848      1.027      1.027
REMARK  4 active torsions:
REMARK  status: ('A' for Active; 'I' for Inactive)
REMARK    1  A    between atoms: O1_2  and  C2_3 
REMARK    2  A    between atoms: C2_3  and  N1_4 
REMARK    3  A    between atoms: C2_3  and  C3_8 
REMARK    4  A    between atoms: C4_13  and  N4_14 
ROOT
HETATM    1  C3  UNL     1      73.490  39.983  44.280  1.00  0.00     0.169 A 
HETATM    2  N2  UNL     1      73.626  39.459  43.066  1.00  0.00    -0.271 N 
ATOM      3  H2  UNL     1      73.900  38.502  42.844  1.00  0.00     0.189 HD
HETATM    4  N3  UNL     1      73.338  40.413  42.204  1.00  0.00    -0.131 N 
ATOM      5  H3  UNL     1      73.356  40.303  41.190  1.00  0.00     0.205 HD
HETATM    6  C4  UNL     1      73.018  41.546  42.838  1.00  0.00     0.692 A 
HETATM    7  N5  UNL     1      73.117  41.262  44.146  1.00  0.00    -0.174 N 
ATOM      8  H5  UNL     1      72.938  41.913  44.911  1.00  0.00     0.185 HD
ENDROOT
BRANCH   1   9
HETATM    9  C2  UNL     1      73.688  39.358  45.616  1.00  0.00     0.388 C 
BRANCH   9  10
HETATM   10  O1  UNL     1      74.921  38.782  45.762  1.00  0.00    -0.359 OA
HETATM   11  C1  UNL     1      74.799  37.472  46.152  1.00  0.00     0.204 C 
ENDBRANCH   9  10
BRANCH   9  12
HETATM   12  N1  UNL     1      73.464  40.314  46.692  1.00  0.00    -0.046 N 
ATOM     13  H13 UNL     1      74.143  41.075  46.677  1.00  0.00     0.277 HD
ATOM     14  H12 UNL     1      72.620  40.867  46.545  1.00  0.00     0.277 HD
ATOM     15  H11 UNL     1      73.454  39.826  47.587  1.00  0.00     0.277 HD
ENDBRANCH   9  12
ENDBRANCH   1   9
BRANCH   6  16
HETATM   16  N4  UNL     1      72.678  42.691  42.312  1.00  0.00    -0.233 N 
ATOM     17  H42 UNL     1      71.795  43.184  42.444  1.00  0.00     0.174 HD
ATOM     18  H41 UNL     1      73.229  43.283  41.689  1.00  0.00     0.174 HD
ENDBRANCH   6  16
TORSDOF 4
ENDMDL
MODEL 4
REMARK VINA RESULT: -4.662782742      2.098      4.215
REMARK  4 active torsions:
REMARK  status: ('A' for Active; 'I' for Inactive)
REMARK    1  A    between atoms: O1_2  and  C2_3 
REMARK    2  A    between atoms: C2_3  and  N1_4 
REMARK    3  A    between atoms: C2_3  and  C3_8 
REMARK    4  A    between atoms: C4_13  and  N4_14 
ROOT
HETATM    1  C3  UNL     1      73.590  40.236  43.536  1.00  0.00     0.169 A 
HETATM    2  N2  UNL     1      74.299  39.125  43.361  1.00  0.00    -0.271 N 
ATOM      3  H2  UNL     1      74.841  38.874  42.534  1.00  0.00     0.189 HD
HETATM    4  N3  UNL     1      74.169  38.411  44.461  1.00  0.00    -0.131 N 
ATOM      5  H3  UNL     1      74.605  37.502  44.616  1.00  0.00     0.205 HD
HETATM    6  C4  UNL     1      73.388  39.039  45.345  1.00  0.00     0.692 A 
HETATM    7  N5  UNL     1      73.029  40.188  44.752  1.00  0.00    -0.174 N 
ATOM      8  H5  UNL     1      72.429  40.906  45.158  1.00  0.00     0.185 HD
ENDROOT
BRANCH   1   9
HETATM    9  C2  UNL     1      73.384  41.391  42.621  1.00  0.00     0.388 C 
BRANCH   9  10
HETATM   10  O1  UNL     1      72.507  42.319  43.116  1.00  0.00    -0.359 OA
HETATM   11  C1  UNL     1      71.748  42.853  42.105  1.00  0.00     0.204 C 
ENDBRANCH   9  10
BRANCH   9  12
HETATM   12  N1  UNL     1      74.644  42.039  42.286  1.00  0.00    -0.046 N 
ATOM     13  H13 UNL     1      74.952  41.817  41.339  1.00  0.00     0.277 HD
ATOM     14  H12 UNL     1      74.540  43.047  42.173  1.00  0.00     0.277 HD
ATOM     15  H11 UNL     1      75.348  41.801  42.984  1.00  0.00     0.277 HD
ENDBRANCH   9  12
ENDBRANCH   1   9
BRANCH   6  16
HETATM   16  N4  UNL     1      73.039  38.635  46.536  1.00  0.00    -0.233 N 
ATOM     17  H42 UNL     1      72.144  38.223  46.802  1.00  0.00     0.174 HD
ATOM     18  H41 UNL     1      73.591  38.659  47.393  1.00  0.00     0.174 HD
ENDBRANCH   6  16
TORSDOF 4
ENDMDL
MODEL 5
REMARK VINA RESULT: -4.630277326      0.888      1.429
REMARK  4 active torsions:
REMARK  status: ('A' for Active; 'I' for Inactive)
REMARK    1  A    between atoms: O1_2  and  C2_3 
REMARK    2  A    between atoms: C2_3  and  N1_4 
REMARK    3  A    between atoms: C2_3  and  C3_8 
REMARK    4  A    between atoms: C4_13  and  N4_14 
ROOT
HETATM    1  C3  UNL     1      73.164  39.921  44.938  1.00  0.00     0.169 A 
HETATM    2  N2  UNL     1      72.223  40.859  44.914  1.00  0.00    -0.271 N 
ATOM      3  H2  UNL     1      71.441  40.953  45.562  1.00  0.00     0.189 HD
HETATM    4  N3  UNL     1      72.494  41.646  43.892  1.00  0.00    -0.131 N 
ATOM      5  H3  UNL     1      71.939  42.460  43.624  1.00  0.00     0.205 HD
HETATM    6  C4  UNL     1      73.594  41.235  43.253  1.00  0.00     0.692 A 
HETATM    7  N5  UNL     1      74.008  40.147  43.922  1.00  0.00    -0.174 N 
ATOM      8  H5  UNL     1      74.828  39.585  43.694  1.00  0.00     0.185 HD
ENDROOT
BRANCH   1   9
HETATM    9  C2  UNL     1      73.351  38.780  45.875  1.00  0.00     0.388 C 
BRANCH   9  10
HETATM   10  O1  UNL     1      73.127  37.563  45.288  1.00  0.00    -0.359 OA
HETATM   11  C1  UNL     1      73.661  36.555  46.052  1.00  0.00     0.204 C 
ENDBRANCH   9  10
BRANCH   9  12
HETATM   12  N1  UNL     1      74.675  38.796  46.480  1.00  0.00    -0.046 N 
ATOM     13  H13 UNL     1      75.012  39.744  46.644  1.00  0.00     0.277 HD
ATOM     14  H12 UNL     1      74.658  38.476  47.448  1.00  0.00     0.277 HD
ATOM     15  H11 UNL     1      75.320  38.253  45.906  1.00  0.00     0.277 HD
ENDBRANCH   9  12
ENDBRANCH   1   9
BRANCH   6  16
HETATM   16  N4  UNL     1      74.158  41.766  42.203  1.00  0.00    -0.233 N 
ATOM     17  H42 UNL     1      74.872  42.495  42.198  1.00  0.00     0.174 HD
ATOM     18  H41 UNL     1      73.986  41.548  41.222  1.00  0.00     0.174 HD
ENDBRANCH   6  16
TORSDOF 4
ENDMDL
