MODEL 1
REMARK VINA RESULT: -4.288829330      0.000      0.000
REMARK  5 active torsions:
REMARK  status: ('A' for Active; 'I' for Inactive)
REMARK    1  A    between atoms: C2_2  and  N1_3 
REMARK    2  A    between atoms: C2_2  and  C3_7 
REMARK    3  A    between atoms: C3_7  and  N2_8 
REMARK    4  A    between atoms: C3_7  and  C4_12 
REMARK    5  A    between atoms: C4_12  and  C6_15 
ROOT
HETATM    1  C3  UNL     1      73.746  32.413  45.471  1.00  0.00     0.255 C 
ENDROOT
BRANCH   1   2
HETATM    2  C2  UNL     1      73.137  33.350  46.420  1.00  0.00     0.213 C 
HETATM    3  C1  UNL     1      71.735  33.198  46.810  1.00  0.00     0.042 C 
BRANCH   2   4
HETATM    4  N1  UNL     1      73.310  34.704  45.889  1.00  0.00    -0.073 N 
ATOM      5  H13 UNL     1      72.435  35.118  45.567  1.00  0.00     0.274 HD
ATOM      6  H12 UNL     1      73.525  35.389  46.613  1.00  0.00     0.274 HD
ATOM      7  H11 UNL     1      74.021  34.663  45.158  1.00  0.00     0.274 HD
ENDBRANCH   2   4
ENDBRANCH   1   2
BRANCH   1   8
HETATM    8  N2  UNL     1      72.817  31.306  45.197  1.00  0.00    -0.070 N 
ATOM      9  H23 UNL     1      71.852  31.626  45.115  1.00  0.00     0.274 HD
ATOM     10  H22 UNL     1      72.930  30.934  44.254  1.00  0.00     0.274 HD
ATOM     11  H21 UNL     1      72.921  30.583  45.909  1.00  0.00     0.274 HD
ENDBRANCH   1   8
BRANCH   1  12
HETATM   12  C4  UNL     1      75.066  31.819  45.772  1.00  0.00     0.166 C 
HETATM   13  C5  UNL     1      74.847  30.749  46.836  1.00  0.00     0.058 C 
HETATM   14  F1  UNL     1      75.961  32.723  46.342  1.00  0.00    -0.237 F 
BRANCH  12  15
HETATM   15  C6  UNL     1      75.692  31.093  44.603  1.00  0.00     0.249 A 
HETATM   16  N3  UNL     1      76.599  31.953  43.847  1.00  0.00    -0.114 NA
HETATM   17  N4  UNL     1      75.491  31.347  43.282  1.00  0.00    -0.313 N 
ATOM     18  H4  UNL     1      74.919  31.197  42.451  1.00  0.00     0.177 HD
ENDBRANCH  12  15
ENDBRANCH   1  12
TORSDOF 5
ENDMDL
MODEL 2
REMARK VINA RESULT: -4.137996764      8.079      9.705
REMARK  5 active torsions:
REMARK  status: ('A' for Active; 'I' for Inactive)
REMARK    1  A    between atoms: C2_2  and  N1_3 
REMARK    2  A    between atoms: C2_2  and  C3_7 
REMARK    3  A    between atoms: C3_7  and  N2_8 
REMARK    4  A    between atoms: C3_7  and  C4_12 
REMARK    5  A    between atoms: C4_12  and  C6_15 
ROOT
HETATM    1  C3  UNL     1      73.740  40.849  44.012  1.00  0.00     0.255 C 
ENDROOT
BRANCH   1   2
HETATM    2  C2  UNL     1      73.533  42.043  43.189  1.00  0.00     0.213 C 
HETATM    3  C1  UNL     1      72.267  42.240  42.481  1.00  0.00     0.042 C 
BRANCH   2   4
HETATM    4  N1  UNL     1      74.612  42.101  42.201  1.00  0.00    -0.073 N 
ATOM      5  H13 UNL     1      75.048  41.194  42.037  1.00  0.00     0.274 HD
ATOM      6  H12 UNL     1      74.273  42.261  41.252  1.00  0.00     0.274 HD
ATOM      7  H11 UNL     1      75.278  42.810  42.509  1.00  0.00     0.274 HD
ENDBRANCH   2   4
ENDBRANCH   1   2
BRANCH   1   8
HETATM    8  N2  UNL     1      73.365  39.647  43.252  1.00  0.00    -0.070 N 
ATOM      9  H23 UNL     1      72.634  39.111  43.718  1.00  0.00     0.274 HD
ATOM     10  H22 UNL     1      72.859  39.876  42.397  1.00  0.00     0.274 HD
ATOM     11  H21 UNL     1      74.194  39.082  43.067  1.00  0.00     0.274 HD
ENDBRANCH   1   8
BRANCH   1  12
HETATM   12  C4  UNL     1      73.093  40.752  45.339  1.00  0.00     0.166 C 
HETATM   13  C5  UNL     1      72.947  39.269  45.663  1.00  0.00     0.058 C 
HETATM   14  F1  UNL     1      71.795  41.260  45.358  1.00  0.00    -0.237 F 
BRANCH  12  15
HETATM   15  C6  UNL     1      73.920  41.325  46.467  1.00  0.00     0.249 A 
HETATM   16  N3  UNL     1      73.338  42.552  47.004  1.00  0.00    -0.114 NA
HETATM   17  N4  UNL     1      74.610  42.498  46.460  1.00  0.00    -0.313 N 
ATOM     18  H4  UNL     1      75.468  42.993  46.220  1.00  0.00     0.177 HD
ENDBRANCH  12  15
ENDBRANCH   1  12
TORSDOF 5
ENDMDL
MODEL 3
REMARK VINA RESULT: -4.007151419      2.469      3.381
REMARK  5 active torsions:
REMARK  status: ('A' for Active; 'I' for Inactive)
REMARK    1  A    between atoms: C2_2  and  N1_3 
REMARK    2  A    between atoms: C2_2  and  C3_7 
REMARK    3  A    between atoms: C3_7  and  N2_8 
REMARK    4  A    between atoms: C3_7  and  C4_12 
REMARK    5  A    between atoms: C4_12  and  C6_15 
ROOT
HETATM    1  C3  UNL     1      72.747  32.944  47.595  1.00  0.00     0.255 C 
ENDROOT
BRANCH   1   2
HETATM    2  C2  UNL     1      71.866  33.788  48.406  1.00  0.00     0.213 C 
HETATM    3  C1  UNL     1      72.278  34.212  49.745  1.00  0.00     0.042 C 
BRANCH   2   4
HETATM    4  N1  UNL     1      70.577  33.105  48.530  1.00  0.00    -0.073 N 
ATOM      5  H13 UNL     1      70.360  32.839  49.490  1.00  0.00     0.274 HD
ATOM      6  H12 UNL     1      69.783  33.726  48.380  1.00  0.00     0.274 HD
ATOM      7  H11 UNL     1      70.584  32.309  47.891  1.00  0.00     0.274 HD
ENDBRANCH   2   4
ENDBRANCH   1   2
BRANCH   1   8
HETATM    8  N2  UNL     1      74.119  33.000  48.123  1.00  0.00    -0.070 N 
ATOM      9  H23 UNL     1      74.304  32.249  48.788  1.00  0.00     0.274 HD
ATOM     10  H22 UNL     1      74.812  32.749  47.419  1.00  0.00     0.274 HD
ATOM     11  H21 UNL     1      74.297  33.920  48.526  1.00  0.00     0.274 HD
ENDBRANCH   1   8
BRANCH   1  12
HETATM   12  C4  UNL     1      72.827  33.160  46.134  1.00  0.00     0.166 C 
HETATM   13  C5  UNL     1      73.573  34.471  45.912  1.00  0.00     0.058 C 
HETATM   14  F1  UNL     1      71.583  33.342  45.533  1.00  0.00    -0.237 F 
BRANCH  12  15
HETATM   15  C6  UNL     1      73.639  32.114  45.403  1.00  0.00     0.249 A 
HETATM   16  N3  UNL     1      72.798  31.242  44.587  1.00  0.00    -0.114 NA
HETATM   17  N4  UNL     1      73.607  30.769  45.605  1.00  0.00    -0.313 N 
ATOM     18  H4  UNL     1      73.945  29.968  46.138  1.00  0.00     0.177 HD
ENDBRANCH  12  15
ENDBRANCH   1  12
TORSDOF 5
ENDMDL
MODEL 4
REMARK VINA RESULT: -3.997459704      7.054      8.676
REMARK  5 active torsions:
REMARK  status: ('A' for Active; 'I' for Inactive)
REMARK    1  A    between atoms: C2_2  and  N1_3 
REMARK    2  A    between atoms: C2_2  and  C3_7 
REMARK    3  A    between atoms: C3_7  and  N2_8 
REMARK    4  A    between atoms: C3_7  and  C4_12 
REMARK    5  A    between atoms: C4_12  and  C6_15 
ROOT
HETATM    1  C3  UNL     1      73.194  39.467  45.245  1.00  0.00     0.255 C 
ENDROOT
BRANCH   1   2
HETATM    2  C2  UNL     1      73.588  39.012  46.581  1.00  0.00     0.213 C 
HETATM    3  C1  UNL     1      74.569  37.937  46.735  1.00  0.00     0.042 C 
BRANCH   2   4
HETATM    4  N1  UNL     1      72.374  38.614  47.296  1.00  0.00    -0.073 N 
ATOM      5  H13 UNL     1      71.533  38.693  46.724  1.00  0.00     0.274 HD
ATOM      6  H12 UNL     1      72.326  37.610  47.468  1.00  0.00     0.274 HD
ATOM      7  H11 UNL     1      72.323  39.166  48.153  1.00  0.00     0.274 HD
ENDBRANCH   2   4
ENDBRANCH   1   2
BRANCH   1   8
HETATM    8  N2  UNL     1      74.119  38.922  44.239  1.00  0.00    -0.070 N 
ATOM      9  H23 UNL     1      75.093  39.011  44.526  1.00  0.00     0.274 HD
ATOM     10  H22 UNL     1      74.072  37.904  44.187  1.00  0.00     0.274 HD
ATOM     11  H21 UNL     1      73.944  39.360  43.335  1.00  0.00     0.274 HD
ENDBRANCH   1   8
BRANCH   1  12
HETATM   12  C4  UNL     1      73.052  40.914  44.976  1.00  0.00     0.166 C 
HETATM   13  C5  UNL     1      73.942  41.648  45.973  1.00  0.00     0.058 C 
HETATM   14  F1  UNL     1      71.765  41.396  45.213  1.00  0.00    -0.237 F 
BRANCH  12  15
HETATM   15  C6  UNL     1      73.551  41.336  43.613  1.00  0.00     0.249 A 
HETATM   16  N3  UNL     1      72.636  42.268  42.960  1.00  0.00    -0.114 NA
HETATM   17  N4  UNL     1      72.985  41.047  42.411  1.00  0.00    -0.313 N 
ATOM     18  H4  UNL     1      72.885  40.387  41.639  1.00  0.00     0.177 HD
ENDBRANCH  12  15
ENDBRANCH   1  12
TORSDOF 5
ENDMDL
MODEL 5
REMARK VINA RESULT: -3.996062442      2.034      3.334
REMARK  5 active torsions:
REMARK  status: ('A' for Active; 'I' for Inactive)
REMARK    1  A    between atoms: C2_2  and  N1_3 
REMARK    2  A    between atoms: C2_2  and  C3_7 
REMARK    3  A    between atoms: C3_7  and  N2_8 
REMARK    4  A    between atoms: C3_7  and  C4_12 
REMARK    5  A    between atoms: C4_12  and  C6_15 
ROOT
HETATM    1  C3  UNL     1      75.293  31.026  46.305  1.00  0.00     0.255 C 
ENDROOT
BRANCH   1   2
HETATM    2  C2  UNL     1      75.216  31.376  47.726  1.00  0.00     0.213 C 
HETATM    3  C1  UNL     1      76.001  30.633  48.713  1.00  0.00     0.042 C 
BRANCH   2   4
HETATM    4  N1  UNL     1      73.809  31.306  48.130  1.00  0.00    -0.073 N 
ATOM      5  H13 UNL     1      73.401  32.224  48.304  1.00  0.00     0.274 HD
ATOM      6  H12 UNL     1      73.192  31.025  47.369  1.00  0.00     0.274 HD
ATOM      7  H11 UNL     1      73.749  30.686  48.939  1.00  0.00     0.274 HD
ENDBRANCH   2   4
ENDBRANCH   1   2
BRANCH   1   8
HETATM    8  N2  UNL     1      76.637  30.518  45.989  1.00  0.00    -0.070 N 
ATOM      9  H23 UNL     1      76.629  29.887  45.188  1.00  0.00     0.274 HD
ATOM     10  H22 UNL     1      77.239  31.244  45.599  1.00  0.00     0.274 HD
ATOM     11  H21 UNL     1      77.046  30.083  46.815  1.00  0.00     0.274 HD
ENDBRANCH   1   8
BRANCH   1  12
HETATM   12  C4  UNL     1      74.951  32.038  45.283  1.00  0.00     0.166 C 
HETATM   13  C5  UNL     1      76.035  31.983  44.212  1.00  0.00     0.058 C 
HETATM   14  F1  UNL     1      74.982  33.345  45.767  1.00  0.00    -0.237 F 
BRANCH  12  15
HETATM   15  C6  UNL     1      73.658  31.757  44.551  1.00  0.00     0.249 A 
HETATM   16  N3  UNL     1      72.493  32.210  45.307  1.00  0.00    -0.114 NA
HETATM   17  N4  UNL     1      72.678  30.892  44.929  1.00  0.00    -0.313 N 
ATOM     18  H4  UNL     1      72.325  29.935  44.932  1.00  0.00     0.177 HD
ENDBRANCH  12  15
ENDBRANCH   1  12
TORSDOF 5
ENDMDL
