MODEL 1
REMARK VINA RESULT: -4.674271876      0.000      0.000
REMARK  1 active torsions:
REMARK  status: ('A' for Active; 'I' for Inactive)
REMARK    1  A    between atoms: N1_2  and  C2_4 
ROOT
HETATM    1  C2  UNL     1      72.991  32.464  45.335  1.00  0.00     0.150 A 
HETATM    2  N2  UNL     1      72.752  31.162  45.115  1.00  0.00    -0.241 N 
ATOM      3  H2  UNL     1      71.910  30.667  45.409  1.00  0.00     0.196 HD
HETATM    4  O1  UNL     1      73.746  30.619  44.476  1.00  0.00    -0.216 OA
HETATM    5  C3  UNL     1      74.680  31.487  44.234  1.00  0.00     0.192 A 
HETATM    6  N3  UNL     1      75.811  31.360  43.634  1.00  0.00    -0.377 N 
ATOM      7  H31 UNL     1      76.545  32.042  43.444  1.00  0.00     0.158 HD
ATOM      8  H32 UNL     1      76.141  30.479  43.238  1.00  0.00     0.158 HD
HETATM    9  C4  UNL     1      74.231  32.688  44.772  1.00  0.00     0.144 A 
HETATM   10  N4  UNL     1      74.868  33.956  44.784  1.00  0.00    -0.094 NA
ENDROOT
BRANCH   1  11
HETATM   11  N1  UNL     1      72.101  33.338  46.009  1.00  0.00    -0.378 N 
HETATM   12  C1  UNL     1      71.812  33.207  47.401  1.00  0.00     0.148 C 
ATOM     13  H1  UNL     1      71.653  34.087  45.482  1.00  0.00     0.160 HD
ENDBRANCH   1  11
TORSDOF 1
ENDMDL
MODEL 2
REMARK VINA RESULT: -4.632436595      1.302      2.682
REMARK  1 active torsions:
REMARK  status: ('A' for Active; 'I' for Inactive)
REMARK    1  A    between atoms: N1_2  and  C2_4 
ROOT
HETATM    1  C2  UNL     1      74.459  33.114  44.805  1.00  0.00     0.150 A 
HETATM    2  N2  UNL     1      75.205  32.293  44.050  1.00  0.00    -0.241 N 
ATOM      3  H2  UNL     1      76.129  32.521  43.682  1.00  0.00     0.196 HD
HETATM    4  O1  UNL     1      74.586  31.167  43.852  1.00  0.00    -0.216 OA
HETATM    5  C3  UNL     1      73.427  31.159  44.439  1.00  0.00     0.192 A 
HETATM    6  N3  UNL     1      72.517  30.251  44.490  1.00  0.00    -0.377 N 
ATOM      7  H31 UNL     1      71.607  30.245  44.951  1.00  0.00     0.158 HD
ATOM      8  H32 UNL     1      72.604  29.344  44.031  1.00  0.00     0.158 HD
HETATM    9  C4  UNL     1      73.310  32.396  45.064  1.00  0.00     0.144 A 
HETATM   10  N4  UNL     1      72.238  32.905  45.842  1.00  0.00    -0.094 NA
ENDROOT
BRANCH   1  11
HETATM   11  N1  UNL     1      74.852  34.418  45.199  1.00  0.00    -0.378 N 
HETATM   12  C1  UNL     1      75.657  34.655  46.354  1.00  0.00     0.148 C 
ATOM     13  H1  UNL     1      74.550  35.214  44.638  1.00  0.00     0.160 HD
ENDBRANCH   1  11
TORSDOF 1
ENDMDL
MODEL 3
REMARK VINA RESULT: -4.621797155      7.647      8.531
REMARK  1 active torsions:
REMARK  status: ('A' for Active; 'I' for Inactive)
REMARK    1  A    between atoms: N1_2  and  C2_4 
ROOT
HETATM    1  C2  UNL     1      73.851  40.166  45.810  1.00  0.00     0.150 A 
HETATM    2  N2  UNL     1      73.712  41.484  46.019  1.00  0.00    -0.241 N 
ATOM      3  H2  UNL     1      73.762  41.936  46.932  1.00  0.00     0.196 HD
HETATM    4  O1  UNL     1      73.506  42.104  44.895  1.00  0.00    -0.216 OA
HETATM    5  C3  UNL     1      73.492  41.274  43.896  1.00  0.00     0.192 A 
HETATM    6  N3  UNL     1      73.321  41.478  42.637  1.00  0.00    -0.377 N 
ATOM      7  H31 UNL     1      73.310  40.826  41.853  1.00  0.00     0.158 HD
ATOM      8  H32 UNL     1      73.161  42.401  42.234  1.00  0.00     0.158 HD
HETATM    9  C4  UNL     1      73.711  40.016  44.445  1.00  0.00     0.144 A 
HETATM   10  N4  UNL     1      73.790  38.758  43.792  1.00  0.00    -0.094 NA
ENDROOT
BRANCH   1  11
HETATM   11  N1  UNL     1      74.086  39.213  46.833  1.00  0.00    -0.378 N 
HETATM   12  C1  UNL     1      73.031  38.458  47.429  1.00  0.00     0.148 C 
ATOM     13  H1  UNL     1      75.042  39.061  47.154  1.00  0.00     0.160 HD
ENDBRANCH   1  11
TORSDOF 1
ENDMDL
MODEL 4
REMARK VINA RESULT: -4.488808969      1.215      2.015
REMARK  1 active torsions:
REMARK  status: ('A' for Active; 'I' for Inactive)
REMARK    1  A    between atoms: N1_2  and  C2_4 
ROOT
HETATM    1  C2  UNL     1      73.044  33.060  45.500  1.00  0.00     0.150 A 
HETATM    2  N2  UNL     1      74.050  33.940  45.382  1.00  0.00    -0.241 N 
ATOM      3  H2  UNL     1      74.072  34.861  45.821  1.00  0.00     0.196 HD
HETATM    4  O1  UNL     1      74.994  33.455  44.630  1.00  0.00    -0.216 OA
HETATM    5  C3  UNL     1      74.694  32.264  44.210  1.00  0.00     0.192 A 
HETATM    6  N3  UNL     1      75.345  31.450  43.456  1.00  0.00    -0.377 N 
ATOM      7  H31 UNL     1      75.110  30.514  43.126  1.00  0.00     0.158 HD
ATOM      8  H32 UNL     1      76.262  31.662  43.061  1.00  0.00     0.158 HD
HETATM    9  C4  UNL     1      73.445  31.974  44.749  1.00  0.00     0.144 A 
HETATM   10  N4  UNL     1      72.660  30.802  44.602  1.00  0.00    -0.094 NA
ENDROOT
BRANCH   1  11
HETATM   11  N1  UNL     1      71.865  33.287  46.254  1.00  0.00    -0.378 N 
HETATM   12  C1  UNL     1      71.860  33.282  47.682  1.00  0.00     0.148 C 
ATOM     13  H1  UNL     1      70.990  33.461  45.759  1.00  0.00     0.160 HD
ENDBRANCH   1  11
TORSDOF 1
ENDMDL
MODEL 5
REMARK VINA RESULT: -4.468147281      7.950      8.850
REMARK  1 active torsions:
REMARK  status: ('A' for Active; 'I' for Inactive)
REMARK    1  A    between atoms: N1_2  and  C2_4 
ROOT
HETATM    1  C2  UNL     1      73.465  40.988  44.143  1.00  0.00     0.150 A 
HETATM    2  N2  UNL     1      73.450  39.705  43.750  1.00  0.00    -0.241 N 
ATOM      3  H2  UNL     1      73.459  39.393  42.779  1.00  0.00     0.196 HD
HETATM    4  O1  UNL     1      73.423  38.913  44.781  1.00  0.00    -0.216 OA
HETATM    5  C3  UNL     1      73.416  39.588  45.891  1.00  0.00     0.192 A 
HETATM    6  N3  UNL     1      73.392  39.192  47.115  1.00  0.00    -0.377 N 
ATOM      7  H31 UNL     1      73.387  39.722  47.987  1.00  0.00     0.158 HD
ATOM      8  H32 UNL     1      73.373  38.208  47.386  1.00  0.00     0.158 HD
HETATM    9  C4  UNL     1      73.443  40.928  45.521  1.00  0.00     0.144 A 
HETATM   10  N4  UNL     1      73.448  42.082  46.346  1.00  0.00    -0.094 NA
ENDROOT
BRANCH   1  11
HETATM   11  N1  UNL     1      73.495  42.096  43.258  1.00  0.00    -0.378 N 
HETATM   12  C1  UNL     1      72.318  42.598  42.625  1.00  0.00     0.148 C 
ATOM     13  H1  UNL     1      74.388  42.550  43.068  1.00  0.00     0.160 HD
ENDBRANCH   1  11
TORSDOF 1
ENDMDL
