MODEL 1
REMARK VINA RESULT: -4.745547835      0.000      0.000
REMARK  2 active torsions:
REMARK  status: ('A' for Active; 'I' for Inactive)
REMARK    1  A    between atoms: C1_4  and  C2_6 
REMARK    2  A    between atoms: C3_12  and  N5_13 
ROOT
HETATM    1  C2  UNL     1      74.628  31.736  44.662  1.00  0.00     0.142 A 
HETATM    2  N3  UNL     1      75.333  31.446  43.571  1.00  0.00    -0.235 N 
ATOM      3  H3  UNL     1      74.958  31.039  42.714  1.00  0.00     0.197 HD
HETATM    4  O1  UNL     1      76.594  31.767  43.777  1.00  0.00    -0.155 OA
HETATM    5  N4  UNL     1      76.746  32.262  44.969  1.00  0.00    -0.224 N 
ATOM      6  H4  UNL     1      77.618  32.591  45.384  1.00  0.00     0.198 HD
HETATM    7  C3  UNL     1      75.511  32.258  45.563  1.00  0.00     0.153 A 
ENDROOT
BRANCH   1   8
HETATM    8  C1  UNL     1      73.203  31.531  44.834  1.00  0.00     0.142 C 
HETATM    9  N1  UNL     1      72.623  30.426  44.467  1.00  0.00    -0.386 N 
ATOM     10  H12 UNL     1      71.621  30.282  44.588  1.00  0.00     0.157 HD
ATOM     11  H11 UNL     1      73.216  29.708  44.052  1.00  0.00     0.157 HD
HETATM   12  N2  UNL     1      72.376  32.533  45.414  1.00  0.00    -0.081 NA
ENDBRANCH   1   8
BRANCH   7  13
HETATM   13  N5  UNL     1      75.268  32.673  46.743  1.00  0.00    -0.382 N 
ATOM     14  H52 UNL     1      74.353  32.655  47.191  1.00  0.00     0.157 HD
ATOM     15  H51 UNL     1      75.925  33.076  47.411  1.00  0.00     0.157 HD
ENDBRANCH   7  13
TORSDOF 2
ENDMDL
MODEL 2
REMARK VINA RESULT: -4.726960458      2.007      3.128
REMARK  2 active torsions:
REMARK  status: ('A' for Active; 'I' for Inactive)
REMARK    1  A    between atoms: C1_4  and  C2_6 
REMARK    2  A    between atoms: C3_12  and  N5_13 
ROOT
HETATM    1  C2  UNL     1      74.240  31.917  44.764  1.00  0.00     0.142 A 
HETATM    2  N3  UNL     1      73.033  31.370  44.897  1.00  0.00    -0.235 N 
ATOM      3  H3  UNL     1      72.793  30.403  44.680  1.00  0.00     0.197 HD
HETATM    4  O1  UNL     1      72.198  32.281  45.356  1.00  0.00    -0.155 OA
HETATM    5  N4  UNL     1      72.813  33.412  45.531  1.00  0.00    -0.224 N 
ATOM      6  H4  UNL     1      72.402  34.280  45.877  1.00  0.00     0.198 HD
HETATM    7  C3  UNL     1      74.119  33.217  45.164  1.00  0.00     0.153 A 
ENDROOT
BRANCH   1   8
HETATM    8  C1  UNL     1      75.431  31.243  44.288  1.00  0.00     0.142 C 
HETATM    9  N1  UNL     1      75.456  29.958  44.091  1.00  0.00    -0.386 N 
ATOM     10  H12 UNL     1      76.294  29.483  43.756  1.00  0.00     0.157 HD
ATOM     11  H11 UNL     1      74.598  29.443  44.287  1.00  0.00     0.157 HD
HETATM   12  N2  UNL     1      76.629  31.962  44.015  1.00  0.00    -0.081 NA
ENDBRANCH   1   8
BRANCH   7  13
HETATM   13  N5  UNL     1      75.027  34.110  45.201  1.00  0.00    -0.382 N 
ATOM     14  H52 UNL     1      75.748  34.238  44.492  1.00  0.00     0.157 HD
ATOM     15  H51 UNL     1      75.179  34.817  45.920  1.00  0.00     0.157 HD
ENDBRANCH   7  13
TORSDOF 2
ENDMDL
MODEL 3
REMARK VINA RESULT: -4.642741551      9.122      9.605
REMARK  2 active torsions:
REMARK  status: ('A' for Active; 'I' for Inactive)
REMARK    1  A    between atoms: C1_4  and  C2_6 
REMARK    2  A    between atoms: C3_12  and  N5_13 
ROOT
HETATM    1  C2  UNL     1      73.544  40.918  43.970  1.00  0.00     0.142 A 
HETATM    2  N3  UNL     1      73.298  39.624  43.768  1.00  0.00    -0.235 N 
ATOM      3  H3  UNL     1      73.054  39.200  42.874  1.00  0.00     0.197 HD
HETATM    4  O1  UNL     1      73.422  38.982  44.912  1.00  0.00    -0.155 OA
HETATM    5  N4  UNL     1      73.742  39.807  45.863  1.00  0.00    -0.224 N 
ATOM      6  H4  UNL     1      73.899  39.573  46.844  1.00  0.00     0.198 HD
HETATM    7  C3  UNL     1      73.829  41.053  45.298  1.00  0.00     0.153 A 
ENDROOT
BRANCH   1   8
HETATM    8  C1  UNL     1      73.509  41.957  42.960  1.00  0.00     0.142 C 
HETATM    9  N1  UNL     1      74.562  42.264  42.260  1.00  0.00    -0.386 N 
ATOM     10  H12 UNL     1      74.538  42.995  41.549  1.00  0.00     0.157 HD
ATOM     11  H11 UNL     1      75.415  41.739  42.453  1.00  0.00     0.157 HD
HETATM   12  N2  UNL     1      72.319  42.689  42.692  1.00  0.00    -0.081 NA
ENDBRANCH   1   8
BRANCH   7  13
HETATM   13  N5  UNL     1      74.124  42.120  45.928  1.00  0.00    -0.382 N 
ATOM     14  H52 UNL     1      73.447  42.805  46.264  1.00  0.00     0.157 HD
ATOM     15  H51 UNL     1      75.051  42.454  46.192  1.00  0.00     0.157 HD
ENDBRANCH   7  13
TORSDOF 2
ENDMDL
MODEL 4
REMARK VINA RESULT: -4.520123491      1.373      2.498
REMARK  2 active torsions:
REMARK  status: ('A' for Active; 'I' for Inactive)
REMARK    1  A    between atoms: C1_4  and  C2_6 
REMARK    2  A    between atoms: C3_12  and  N5_13 
ROOT
HETATM    1  C2  UNL     1      74.152  32.706  44.840  1.00  0.00     0.142 A 
HETATM    2  N3  UNL     1      75.383  33.073  44.488  1.00  0.00    -0.235 N 
ATOM      3  H3  UNL     1      75.814  33.974  44.692  1.00  0.00     0.197 HD
HETATM    4  O1  UNL     1      75.954  32.083  43.832  1.00  0.00    -0.155 OA
HETATM    5  N4  UNL     1      75.141  31.072  43.740  1.00  0.00    -0.224 N 
ATOM      6  H4  UNL     1      75.331  30.180  43.283  1.00  0.00     0.198 HD
HETATM    7  C3  UNL     1      73.981  31.434  44.373  1.00  0.00     0.153 A 
ENDROOT
BRANCH   1   8
HETATM    8  C1  UNL     1      73.201  33.515  45.576  1.00  0.00     0.142 C 
HETATM    9  N1  UNL     1      73.461  34.747  45.902  1.00  0.00    -0.386 N 
ATOM     10  H12 UNL     1      72.792  35.317  46.420  1.00  0.00     0.157 HD
ATOM     11  H11 UNL     1      74.366  35.121  45.616  1.00  0.00     0.157 HD
HETATM   12  N2  UNL     1      71.938  32.994  45.975  1.00  0.00    -0.081 NA
ENDBRANCH   1   8
BRANCH   7  13
HETATM   13  N5  UNL     1      72.951  30.694  44.486  1.00  0.00    -0.382 N 
ATOM     14  H52 UNL     1      72.063  30.853  44.009  1.00  0.00     0.157 HD
ATOM     15  H51 UNL     1      72.846  29.850  45.049  1.00  0.00     0.157 HD
ENDBRANCH   7  13
TORSDOF 2
ENDMDL
MODEL 5
REMARK VINA RESULT: -4.389801089      8.874      9.497
REMARK  2 active torsions:
REMARK  status: ('A' for Active; 'I' for Inactive)
REMARK    1  A    between atoms: C1_4  and  C2_6 
REMARK    2  A    between atoms: C3_12  and  N5_13 
ROOT
HETATM    1  C2  UNL     1      73.174  40.913  44.482  1.00  0.00     0.142 A 
HETATM    2  N3  UNL     1      72.459  41.316  45.530  1.00  0.00    -0.235 N 
ATOM      3  H3  UNL     1      71.998  42.221  45.621  1.00  0.00     0.197 HD
HETATM    4  O1  UNL     1      72.444  40.356  46.433  1.00  0.00    -0.155 OA
HETATM    5  N4  UNL     1      73.125  39.331  46.016  1.00  0.00    -0.224 N 
ATOM      6  H4  UNL     1      73.274  38.455  46.518  1.00  0.00     0.198 HD
HETATM    7  C3  UNL     1      73.605  39.651  44.773  1.00  0.00     0.153 A 
ENDROOT
BRANCH   1   8
HETATM    8  C1  UNL     1      73.427  41.681  43.279  1.00  0.00     0.142 C 
HETATM    9  N1  UNL     1      72.460  42.221  42.597  1.00  0.00    -0.386 N 
ATOM     10  H12 UNL     1      72.638  42.762  41.751  1.00  0.00     0.157 HD
ATOM     11  H11 UNL     1      71.513  42.080  42.946  1.00  0.00     0.157 HD
HETATM   12  N2  UNL     1      74.750  41.878  42.792  1.00  0.00    -0.081 NA
ENDBRANCH   1   8
BRANCH   7  13
HETATM   13  N5  UNL     1      74.321  38.885  44.049  1.00  0.00    -0.382 N 
ATOM     14  H52 UNL     1      74.043  38.512  43.142  1.00  0.00     0.157 HD
ATOM     15  H51 UNL     1      75.257  38.530  44.249  1.00  0.00     0.157 HD
ENDBRANCH   7  13
TORSDOF 2
ENDMDL
