MODEL 1
REMARK VINA RESULT: -4.817065573      0.000      0.000
REMARK  2 active torsions:
REMARK  status: ('A' for Active; 'I' for Inactive)
REMARK    1  A    between atoms: C4_9  and  N3_10 
REMARK    2  A    between atoms: N3_10  and  N4_12 
ROOT
HETATM    1  N1  UNL     1      74.200  37.782  45.311  1.00  0.00    -0.234 N 
ATOM      2  H11 UNL     1      74.150  37.145  44.516  1.00  0.00     0.174 HD
ATOM      3  H12 UNL     1      74.425  37.337  46.201  1.00  0.00     0.174 HD
HETATM    4  C1  UNL     1      73.999  38.987  45.103  1.00  0.00     0.677 A 
HETATM    5  N2  UNL     1      74.068  39.858  46.190  1.00  0.00    -0.202 N 
ATOM      6  H2  UNL     1      74.291  39.492  47.115  1.00  0.00     0.183 HD
HETATM    7  C2  UNL     1      73.848  41.151  46.036  1.00  0.00     0.110 A 
HETATM    8  C3  UNL     1      73.543  41.698  44.798  1.00  0.00     0.068 A 
HETATM    9  C4  UNL     1      73.473  40.849  43.708  1.00  0.00     0.136 A 
HETATM   10  N5  UNL     1      73.703  39.571  43.935  1.00  0.00    -0.176 N 
ATOM     11  H5  UNL     1      73.650  38.953  43.124  1.00  0.00     0.186 HD
ENDROOT
BRANCH   9  12
HETATM   12  N3  UNL     1      73.141  41.418  42.455  1.00  0.00    -0.292 N 
ATOM     13  H3  UNL     1      73.574  41.095  41.590  1.00  0.00     0.188 HD
BRANCH  12  14
HETATM   14  N4  UNL     1      72.170  42.467  42.463  1.00  0.00    -0.344 N 
ATOM     15  H42 UNL     1      71.841  42.866  43.342  1.00  0.00     0.176 HD
ATOM     16  H41 UNL     1      71.833  42.785  41.554  1.00  0.00     0.176 HD
ENDBRANCH  12  14
ENDBRANCH   9  12
TORSDOF 2
ENDMDL
MODEL 2
REMARK VINA RESULT: -4.540555584      1.811      3.654
REMARK  2 active torsions:
REMARK  status: ('A' for Active; 'I' for Inactive)
REMARK    1  A    between atoms: C4_9  and  N3_10 
REMARK    2  A    between atoms: N3_10  and  N4_12 
ROOT
HETATM    1  N1  UNL     1      73.288  41.693  42.518  1.00  0.00    -0.234 N 
ATOM      2  H11 UNL     1      73.374  42.684  42.289  1.00  0.00     0.174 HD
ATOM      3  H12 UNL     1      72.987  41.101  41.744  1.00  0.00     0.174 HD
HETATM    4  C1  UNL     1      73.565  41.338  43.672  1.00  0.00     0.677 A 
HETATM    5  N2  UNL     1      73.448  39.984  43.985  1.00  0.00    -0.202 N 
ATOM      6  H2  UNL     1      73.154  39.325  43.264  1.00  0.00     0.183 HD
HETATM    7  C2  UNL     1      73.713  39.545  45.201  1.00  0.00     0.110 A 
HETATM    8  C3  UNL     1      74.118  40.401  46.216  1.00  0.00     0.068 A 
HETATM    9  C4  UNL     1      74.241  41.748  45.923  1.00  0.00     0.136 A 
HETATM   10  N5  UNL     1      73.960  42.116  44.688  1.00  0.00    -0.176 N 
ATOM     11  H5  UNL     1      74.056  43.110  44.482  1.00  0.00     0.186 HD
ENDROOT
BRANCH   9  12
HETATM   12  N3  UNL     1      74.636  42.612  46.972  1.00  0.00    -0.292 N 
ATOM     13  H3  UNL     1      73.965  43.207  47.457  1.00  0.00     0.188 HD
BRANCH  12  14
HETATM   14  N4  UNL     1      76.023  42.611  47.317  1.00  0.00    -0.344 N 
ATOM     15  H42 UNL     1      76.536  41.734  47.412  1.00  0.00     0.176 HD
ATOM     16  H41 UNL     1      76.461  43.521  47.459  1.00  0.00     0.176 HD
ENDBRANCH  12  14
ENDBRANCH   9  12
TORSDOF 2
ENDMDL
MODEL 3
REMARK VINA RESULT: -4.461207740      1.465      2.376
REMARK  2 active torsions:
REMARK  status: ('A' for Active; 'I' for Inactive)
REMARK    1  A    between atoms: C4_9  and  N3_10 
REMARK    2  A    between atoms: N3_10  and  N4_12 
ROOT
HETATM    1  N1  UNL     1      74.658  42.682  46.993  1.00  0.00    -0.234 N 
ATOM      2  H11 UNL     1      74.682  43.671  46.744  1.00  0.00     0.174 HD
ATOM      3  H12 UNL     1      74.934  42.476  47.953  1.00  0.00     0.174 HD
HETATM    4  C1  UNL     1      74.293  41.874  46.127  1.00  0.00     0.677 A 
HETATM    5  N2  UNL     1      74.260  40.522  46.468  1.00  0.00    -0.202 N 
ATOM      6  H2  UNL     1      74.520  40.234  47.411  1.00  0.00     0.183 HD
HETATM    7  C2  UNL     1      73.895  39.610  45.585  1.00  0.00     0.110 A 
HETATM    8  C3  UNL     1      73.531  39.952  44.290  1.00  0.00     0.068 A 
HETATM    9  C4  UNL     1      73.556  41.289  43.935  1.00  0.00     0.136 A 
HETATM   10  N5  UNL     1      73.930  42.144  44.867  1.00  0.00    -0.176 N 
ATOM     11  H5  UNL     1      73.944  43.127  44.596  1.00  0.00     0.186 HD
ENDROOT
BRANCH   9  12
HETATM   12  N3  UNL     1      73.201  41.621  42.606  1.00  0.00    -0.292 N 
ATOM     13  H3  UNL     1      73.710  41.246  41.806  1.00  0.00     0.188 HD
BRANCH  12  14
HETATM   14  N4  UNL     1      72.092  42.507  42.440  1.00  0.00    -0.344 N 
ATOM     15  H42 UNL     1      71.660  42.637  41.525  1.00  0.00     0.176 HD
ATOM     16  H41 UNL     1      71.766  42.994  43.275  1.00  0.00     0.176 HD
ENDBRANCH  12  14
ENDBRANCH   9  12
TORSDOF 2
ENDMDL
MODEL 4
REMARK VINA RESULT: -4.439846485      6.053      8.370
REMARK  2 active torsions:
REMARK  status: ('A' for Active; 'I' for Inactive)
REMARK    1  A    between atoms: C4_9  and  N3_10 
REMARK    2  A    between atoms: N3_10  and  N4_12 
ROOT
HETATM    1  N1  UNL     1      74.405  35.491  45.881  1.00  0.00    -0.234 N 
ATOM      2  H11 UNL     1      75.303  35.902  45.627  1.00  0.00     0.174 HD
ATOM      3  H12 UNL     1      73.790  36.104  46.416  1.00  0.00     0.174 HD
HETATM    4  C1  UNL     1      74.172  34.332  45.510  1.00  0.00     0.677 A 
HETATM    5  N2  UNL     1      72.944  33.769  45.858  1.00  0.00    -0.202 N 
ATOM      6  H2  UNL     1      72.271  34.319  46.391  1.00  0.00     0.183 HD
HETATM    7  C2  UNL     1      72.642  32.533  45.505  1.00  0.00     0.110 A 
HETATM    8  C3  UNL     1      73.523  31.744  44.777  1.00  0.00     0.068 A 
HETATM    9  C4  UNL     1      74.745  32.287  44.422  1.00  0.00     0.136 A 
HETATM   10  N5  UNL     1      74.979  33.526  44.808  1.00  0.00    -0.176 N 
ATOM     11  H5  UNL     1      75.882  33.918  44.540  1.00  0.00     0.186 HD
ENDROOT
BRANCH   9  12
HETATM   12  N3  UNL     1      75.641  31.465  43.698  1.00  0.00    -0.292 N 
ATOM     13  H3  UNL     1      76.192  31.829  42.921  1.00  0.00     0.188 HD
BRANCH  12  14
HETATM   14  N4  UNL     1      75.735  30.100  44.109  1.00  0.00    -0.344 N 
ATOM     15  H42 UNL     1      75.501  29.825  45.064  1.00  0.00     0.176 HD
ATOM     16  H41 UNL     1      76.042  29.429  43.405  1.00  0.00     0.176 HD
ENDBRANCH  12  14
ENDBRANCH   9  12
TORSDOF 2
ENDMDL
MODEL 5
REMARK VINA RESULT: -4.430075180      7.020      8.143
REMARK  2 active torsions:
REMARK  status: ('A' for Active; 'I' for Inactive)
REMARK    1  A    between atoms: C4_9  and  N3_10 
REMARK    2  A    between atoms: N3_10  and  N4_12 
ROOT
HETATM    1  N1  UNL     1      73.055  31.331  44.879  1.00  0.00    -0.234 N 
ATOM      2  H11 UNL     1      72.359  30.589  44.957  1.00  0.00     0.174 HD
ATOM      3  H12 UNL     1      73.793  31.155  44.198  1.00  0.00     0.174 HD
HETATM    4  C1  UNL     1      72.917  32.334  45.594  1.00  0.00     0.677 A 
HETATM    5  N2  UNL     1      73.868  33.348  45.487  1.00  0.00    -0.202 N 
ATOM      6  H2  UNL     1      74.638  33.249  44.826  1.00  0.00     0.183 HD
HETATM    7  C2  UNL     1      73.785  34.435  46.232  1.00  0.00     0.110 A 
HETATM    8  C3  UNL     1      72.756  34.618  47.146  1.00  0.00     0.068 A 
HETATM    9  C4  UNL     1      71.802  33.623  47.264  1.00  0.00     0.136 A 
HETATM   10  N5  UNL     1      71.948  32.566  46.489  1.00  0.00    -0.176 N 
ATOM     11  H5  UNL     1      71.239  31.839  46.582  1.00  0.00     0.186 HD
ENDROOT
BRANCH   9  12
HETATM   12  N3  UNL     1      70.770  33.814  48.213  1.00  0.00    -0.292 N 
ATOM     13  H3  UNL     1      70.103  34.580  48.131  1.00  0.00     0.188 HD
BRANCH  12  14
HETATM   14  N4  UNL     1      70.710  32.879  49.293  1.00  0.00    -0.344 N 
ATOM     15  H42 UNL     1      70.490  33.189  50.240  1.00  0.00     0.176 HD
ATOM     16  H41 UNL     1      70.897  31.903  49.065  1.00  0.00     0.176 HD
ENDBRANCH  12  14
ENDBRANCH   9  12
TORSDOF 2
ENDMDL
