MODEL 1
REMARK VINA RESULT: -9.170035562      0.000      0.000
REMARK  10 active torsions:
REMARK  status: ('A' for Active; 'I' for Inactive)
REMARK    1  A    between atoms: C2_2  and  C3_3 
REMARK    2  A    between atoms: C3_3  and  C4_4 
REMARK    3  A    between atoms: C4_4  and  C5_5 
REMARK    4  A    between atoms: C5_5  and  C6_6 
REMARK    5  A    between atoms: C6_6  and  C7_7 
REMARK    6  A    between atoms: C7_7  and  C8_8 
REMARK    7  A    between atoms: C8_8  and  N1_9 
REMARK       I    between atoms: C9_11  and  N2_12 
REMARK       I    between atoms: C9_11  and  N7_31 
REMARK       I    between atoms: N3_15  and  C12_16 
REMARK    8  A    between atoms: C12_16  and  C13_18 
REMARK    9  A    between atoms: C13_18  and  C14_19 
REMARK   10  A    between atoms: C16_23  and  N5_24 
ROOT
HETATM    1  N1  UNL     1       5.578   3.344  21.801  1.00  0.00    -0.226 N 
ATOM      2  H1  UNL     1       6.351   3.820  22.266  1.00  0.00     0.177 HD
HETATM    3  C9  UNL     1       4.772   4.191  21.458  1.00  0.00     0.682 C 
HETATM    4  N2  UNL     1       5.179   5.576  21.819  1.00  0.00    -0.214 N 
HETATM    5  C10 UNL     1       4.589   6.215  22.958  1.00  0.00     0.161 C 
HETATM    6  C11 UNL     1       4.926   7.712  22.969  1.00  0.00     0.146 C 
HETATM    7  N3  UNL     1       6.370   7.810  22.875  1.00  0.00    -0.349 N 
HETATM    8  C12 UNL     1       7.139   8.540  23.824  1.00  0.00     0.225 C 
HETATM    9  O1  UNL     1       6.617   9.138  24.800  1.00  0.00    -0.273 OA
HETATM   10  C17 UNL     1       7.041   7.155  21.783  1.00  0.00     0.146 C 
HETATM   11  C18 UNL     1       6.165   6.224  20.997  1.00  0.00     0.161 C 
HETATM   12  N7  UNL     1       3.538   4.062  20.798  1.00  0.00    -0.124 N 
HETATM   13  C19 UNL     1       2.713   5.226  20.415  1.00  0.00     0.387 C 
HETATM   14  N8  UNL     1       2.047   4.817  19.200  1.00  0.00    -0.050 N 
HETATM   15  C20 UNL     1       2.826   5.173  18.024  1.00  0.00     0.274 C 
HETATM   16  C21 UNL     1       0.748   5.427  19.058  1.00  0.00     0.274 C 
HETATM   17  C22 UNL     1       1.902   3.400  19.219  1.00  0.00     0.341 C 
HETATM   18  C23 UNL     1       2.804   2.972  20.343  1.00  0.00     0.266 C 
HETATM   19  O2  UNL     1       2.825   1.807  20.737  1.00  0.00    -0.271 OA
ENDROOT
BRANCH   1  20
HETATM   20  C8  UNL     1       5.848   2.008  21.804  1.00  0.00     0.138 C 
BRANCH  20  21
HETATM   21  C7  UNL     1       6.972   1.582  20.845  1.00  0.00     0.020 C 
BRANCH  21  22
HETATM   22  C6  UNL     1       6.317   1.052  19.597  1.00  0.00     0.002 C 
BRANCH  22  23
HETATM   23  C5  UNL     1       7.340   0.496  18.660  1.00  0.00     0.000 C 
BRANCH  23  24
HETATM   24  C4  UNL     1       8.725   0.830  19.093  1.00  0.00     0.000 C 
BRANCH  24  25
HETATM   25  C3  UNL     1       9.720   0.014  18.315  1.00  0.00    -0.000 C 
BRANCH  25  26
HETATM   26  C2  UNL     1       9.159  -0.374  16.955  1.00  0.00    -0.005 C 
HETATM   27  C1  UNL     1       9.663  -1.746  16.609  1.00  0.00     0.005 C 
ENDBRANCH  25  26
ENDBRANCH  24  25
ENDBRANCH  23  24
ENDBRANCH  22  23
ENDBRANCH  21  22
ENDBRANCH  20  21
ENDBRANCH   1  20
BRANCH   8  28
HETATM   28  C13 UNL     1       8.603   8.601  23.662  1.00  0.00     0.162 C 
BRANCH  28  29
HETATM   29  C14 UNL     1       9.274   8.211  24.903  1.00  0.00     0.051 A 
HETATM   30  C15 UNL     1      10.515   8.614  25.363  1.00  0.00     0.132 A 
HETATM   31  N4  UNL     1      10.740   8.021  26.534  1.00  0.00    -0.200 N 
HETATM   32  C16 UNL     1       9.661   7.265  26.800  1.00  0.00     0.675 A 
ATOM     33  H4  UNL     1      11.571   8.122  27.116  1.00  0.00     0.183 HD
HETATM   34  N6  UNL     1       8.760   7.370  25.816  1.00  0.00    -0.194 N 
ATOM     35  H6  UNL     1       7.856   6.901  25.769  1.00  0.00     0.184 HD
BRANCH  32  36
HETATM   36  N5  UNL     1       9.488   6.530  27.848  1.00  0.00    -0.234 N 
ATOM     37  H52 UNL     1      10.232   6.311  28.510  1.00  0.00     0.174 HD
ATOM     38  H51 UNL     1       8.613   6.091  28.136  1.00  0.00     0.174 HD
ENDBRANCH  32  36
ENDBRANCH  28  29
ENDBRANCH   8  28
TORSDOF 10
ENDMDL
MODEL 2
REMARK VINA RESULT: -8.967592327      1.511      1.714
REMARK  10 active torsions:
REMARK  status: ('A' for Active; 'I' for Inactive)
REMARK    1  A    between atoms: C2_2  and  C3_3 
REMARK    2  A    between atoms: C3_3  and  C4_4 
REMARK    3  A    between atoms: C4_4  and  C5_5 
REMARK    4  A    between atoms: C5_5  and  C6_6 
REMARK    5  A    between atoms: C6_6  and  C7_7 
REMARK    6  A    between atoms: C7_7  and  C8_8 
REMARK    7  A    between atoms: C8_8  and  N1_9 
REMARK       I    between atoms: C9_11  and  N2_12 
REMARK       I    between atoms: C9_11  and  N7_31 
REMARK       I    between atoms: N3_15  and  C12_16 
REMARK    8  A    between atoms: C12_16  and  C13_18 
REMARK    9  A    between atoms: C13_18  and  C14_19 
REMARK   10  A    between atoms: C16_23  and  N5_24 
ROOT
HETATM    1  N1  UNL     1       6.732   4.593  20.407  1.00  0.00    -0.226 N 
ATOM      2  H1  UNL     1       7.413   4.922  21.091  1.00  0.00     0.177 HD
HETATM    3  C9  UNL     1       5.911   5.478  20.243  1.00  0.00     0.682 C 
HETATM    4  N2  UNL     1       6.176   6.691  21.065  1.00  0.00    -0.214 N 
HETATM    5  C10 UNL     1       5.420   6.917  22.260  1.00  0.00     0.161 C 
HETATM    6  C11 UNL     1       5.646   8.344  22.778  1.00  0.00     0.146 C 
HETATM    7  N3  UNL     1       7.081   8.514  22.904  1.00  0.00    -0.349 N 
HETATM    8  C12 UNL     1       7.687   8.930  24.122  1.00  0.00     0.225 C 
HETATM    9  O1  UNL     1       7.018   9.172  25.160  1.00  0.00    -0.273 OA
HETATM   10  C17 UNL     1       7.914   8.260  21.757  1.00  0.00     0.146 C 
HETATM   11  C18 UNL     1       7.199   7.597  20.617  1.00  0.00     0.161 C 
HETATM   12  N7  UNL     1       4.770   5.524  19.423  1.00  0.00    -0.124 N 
HETATM   13  C19 UNL     1       3.912   6.724  19.318  1.00  0.00     0.387 C 
HETATM   14  N8  UNL     1       3.417   6.698  17.961  1.00  0.00    -0.050 N 
HETATM   15  C20 UNL     1       4.294   7.433  17.063  1.00  0.00     0.274 C 
HETATM   16  C21 UNL     1       2.100   7.279  17.851  1.00  0.00     0.274 C 
HETATM   17  C22 UNL     1       3.370   5.344  17.522  1.00  0.00     0.341 C 
HETATM   18  C23 UNL     1       4.170   4.612  18.563  1.00  0.00     0.266 C 
HETATM   19  O2  UNL     1       4.229   3.383  18.576  1.00  0.00    -0.271 OA
ENDROOT
BRANCH   1  20
HETATM   20  C8  UNL     1       7.093   3.334  20.030  1.00  0.00     0.138 C 
BRANCH  20  21
HETATM   21  C7  UNL     1       6.637   2.225  20.993  1.00  0.00     0.020 C 
BRANCH  21  22
HETATM   22  C6  UNL     1       7.084   0.912  20.406  1.00  0.00     0.002 C 
BRANCH  22  23
HETATM   23  C5  UNL     1       6.677   0.809  18.972  1.00  0.00     0.000 C 
BRANCH  23  24
HETATM   24  C4  UNL     1       7.770   0.258  18.125  1.00  0.00     0.000 C 
BRANCH  24  25
HETATM   25  C3  UNL     1       9.094   0.420  18.821  1.00  0.00    -0.000 C 
BRANCH  25  26
HETATM   26  C2  UNL     1      10.188  -0.347  18.094  1.00  0.00    -0.005 C 
HETATM   27  C1  UNL     1       9.568  -1.072  16.934  1.00  0.00     0.005 C 
ENDBRANCH  25  26
ENDBRANCH  24  25
ENDBRANCH  23  24
ENDBRANCH  22  23
ENDBRANCH  21  22
ENDBRANCH  20  21
ENDBRANCH   1  20
BRANCH   8  28
HETATM   28  C13 UNL     1       9.151   9.087  24.175  1.00  0.00     0.162 C 
BRANCH  28  29
HETATM   29  C14 UNL     1       9.705   8.360  25.319  1.00  0.00     0.051 A 
HETATM   30  C15 UNL     1      10.955   8.502  25.893  1.00  0.00     0.132 A 
HETATM   31  N4  UNL     1      11.047   7.648  26.911  1.00  0.00    -0.200 N 
HETATM   32  C16 UNL     1       9.878   6.988  26.972  1.00  0.00     0.675 A 
ATOM     33  H4  UNL     1      11.850   7.520  27.526  1.00  0.00     0.183 HD
HETATM   34  N6  UNL     1       9.050   7.411  26.009  1.00  0.00    -0.194 N 
ATOM     35  H6  UNL     1       8.103   7.077  25.832  1.00  0.00     0.184 HD
BRANCH  32  36
HETATM   36  N5  UNL     1       9.565   6.072  27.827  1.00  0.00    -0.234 N 
ATOM     37  H52 UNL     1      10.204   5.331  28.115  1.00  0.00     0.174 HD
ATOM     38  H51 UNL     1       8.669   5.977  28.305  1.00  0.00     0.174 HD
ENDBRANCH  32  36
ENDBRANCH  28  29
ENDBRANCH   8  28
TORSDOF 10
ENDMDL
MODEL 3
REMARK VINA RESULT: -8.848435571      0.720      1.009
REMARK  10 active torsions:
REMARK  status: ('A' for Active; 'I' for Inactive)
REMARK    1  A    between atoms: C2_2  and  C3_3 
REMARK    2  A    between atoms: C3_3  and  C4_4 
REMARK    3  A    between atoms: C4_4  and  C5_5 
REMARK    4  A    between atoms: C5_5  and  C6_6 
REMARK    5  A    between atoms: C6_6  and  C7_7 
REMARK    6  A    between atoms: C7_7  and  C8_8 
REMARK    7  A    between atoms: C8_8  and  N1_9 
REMARK       I    between atoms: C9_11  and  N2_12 
REMARK       I    between atoms: C9_11  and  N7_31 
REMARK       I    between atoms: N3_15  and  C12_16 
REMARK    8  A    between atoms: C12_16  and  C13_18 
REMARK    9  A    between atoms: C13_18  and  C14_19 
REMARK   10  A    between atoms: C16_23  and  N5_24 
ROOT
HETATM    1  N1  UNL     1       5.863   3.263  21.755  1.00  0.00    -0.226 N 
ATOM      2  H1  UNL     1       6.606   3.773  22.232  1.00  0.00     0.177 HD
HETATM    3  C9  UNL     1       5.028   4.072  21.392  1.00  0.00     0.682 C 
HETATM    4  N2  UNL     1       5.368   5.476  21.754  1.00  0.00    -0.214 N 
HETATM    5  C10 UNL     1       4.731   6.093  22.879  1.00  0.00     0.161 C 
HETATM    6  C11 UNL     1       5.003   7.604  22.888  1.00  0.00     0.146 C 
HETATM    7  N3  UNL     1       6.443   7.763  22.820  1.00  0.00    -0.349 N 
HETATM    8  C12 UNL     1       7.163   8.530  23.779  1.00  0.00     0.225 C 
HETATM    9  O1  UNL     1       6.598   9.109  24.742  1.00  0.00    -0.273 OA
HETATM   10  C17 UNL     1       7.162   7.133  21.744  1.00  0.00     0.146 C 
HETATM   11  C18 UNL     1       6.341   6.162  20.947  1.00  0.00     0.161 C 
HETATM   12  N7  UNL     1       3.813   3.888  20.711  1.00  0.00    -0.124 N 
HETATM   13  C19 UNL     1       2.947   5.015  20.306  1.00  0.00     0.387 C 
HETATM   14  N8  UNL     1       2.322   4.572  19.081  1.00  0.00    -0.050 N 
HETATM   15  C20 UNL     1       3.106   4.956  17.918  1.00  0.00     0.274 C 
HETATM   16  C21 UNL     1       1.000   5.125  18.913  1.00  0.00     0.274 C 
HETATM   17  C22 UNL     1       2.237   3.150  19.105  1.00  0.00     0.341 C 
HETATM   18  C23 UNL     1       3.135   2.766  20.248  1.00  0.00     0.266 C 
HETATM   19  O2  UNL     1       3.198   1.604  20.648  1.00  0.00    -0.271 OA
ENDROOT
BRANCH   1  20
HETATM   20  C8  UNL     1       6.189   1.940  21.770  1.00  0.00     0.138 C 
BRANCH  20  21
HETATM   21  C7  UNL     1       6.628   1.375  20.408  1.00  0.00     0.020 C 
BRANCH  21  22
HETATM   22  C6  UNL     1       7.611   2.351  19.816  1.00  0.00     0.002 C 
BRANCH  22  23
HETATM   23  C5  UNL     1       8.741   1.628  19.159  1.00  0.00     0.000 C 
BRANCH  23  24
HETATM   24  C4  UNL     1       8.409   0.198  18.905  1.00  0.00     0.000 C 
BRANCH  24  25
HETATM   25  C3  UNL     1       8.415  -0.078  17.427  1.00  0.00    -0.000 C 
BRANCH  25  26
HETATM   26  C2  UNL     1       6.997  -0.241  16.898  1.00  0.00    -0.005 C 
HETATM   27  C1  UNL     1       6.635   0.994  16.124  1.00  0.00     0.005 C 
ENDBRANCH  25  26
ENDBRANCH  24  25
ENDBRANCH  23  24
ENDBRANCH  22  23
ENDBRANCH  21  22
ENDBRANCH  20  21
ENDBRANCH   1  20
BRANCH   8  28
HETATM   28  C13 UNL     1       8.625   8.652  23.644  1.00  0.00     0.162 C 
BRANCH  28  29
HETATM   29  C14 UNL     1       9.291   8.255  24.886  1.00  0.00     0.051 A 
HETATM   30  C15 UNL     1      10.532   8.654  25.351  1.00  0.00     0.132 A 
HETATM   31  N4  UNL     1      10.751   8.056  26.520  1.00  0.00    -0.200 N 
HETATM   32  C16 UNL     1       9.670   7.301  26.780  1.00  0.00     0.675 A 
ATOM     33  H4  UNL     1      11.581   8.152  27.106  1.00  0.00     0.183 HD
HETATM   34  N6  UNL     1       8.773   7.412  25.794  1.00  0.00    -0.194 N 
ATOM     35  H6  UNL     1       7.867   6.947  25.742  1.00  0.00     0.184 HD
BRANCH  32  36
HETATM   36  N5  UNL     1       9.491   6.563  27.825  1.00  0.00    -0.234 N 
ATOM     37  H52 UNL     1       8.671   6.630  28.427  1.00  0.00     0.174 HD
ATOM     38  H51 UNL     1      10.128   5.844  28.168  1.00  0.00     0.174 HD
ENDBRANCH  32  36
ENDBRANCH  28  29
ENDBRANCH   8  28
TORSDOF 10
ENDMDL
MODEL 4
REMARK VINA RESULT: -8.462878997      0.991      1.199
REMARK  10 active torsions:
REMARK  status: ('A' for Active; 'I' for Inactive)
REMARK    1  A    between atoms: C2_2  and  C3_3 
REMARK    2  A    between atoms: C3_3  and  C4_4 
REMARK    3  A    between atoms: C4_4  and  C5_5 
REMARK    4  A    between atoms: C5_5  and  C6_6 
REMARK    5  A    between atoms: C6_6  and  C7_7 
REMARK    6  A    between atoms: C7_7  and  C8_8 
REMARK    7  A    between atoms: C8_8  and  N1_9 
REMARK       I    between atoms: C9_11  and  N2_12 
REMARK       I    between atoms: C9_11  and  N7_31 
REMARK       I    between atoms: N3_15  and  C12_16 
REMARK    8  A    between atoms: C12_16  and  C13_18 
REMARK    9  A    between atoms: C13_18  and  C14_19 
REMARK   10  A    between atoms: C16_23  and  N5_24 
ROOT
HETATM    1  N1  UNL     1       4.589   3.507  22.421  1.00  0.00    -0.226 N 
ATOM      2  H1  UNL     1       5.453   3.925  22.764  1.00  0.00     0.177 HD
HETATM    3  C9  UNL     1       3.830   4.412  22.123  1.00  0.00     0.682 C 
HETATM    4  N2  UNL     1       4.405   5.766  22.351  1.00  0.00    -0.214 N 
HETATM    5  C10 UNL     1       4.020   6.515  23.510  1.00  0.00     0.161 C 
HETATM    6  C11 UNL     1       4.495   7.969  23.392  1.00  0.00     0.146 C 
HETATM    7  N3  UNL     1       5.920   7.918  23.125  1.00  0.00    -0.349 N 
HETATM    8  C12 UNL     1       6.864   8.612  23.933  1.00  0.00     0.225 C 
HETATM    9  O1  UNL     1       6.522   9.306  24.924  1.00  0.00    -0.273 OA
HETATM   10  C17 UNL     1       6.389   7.147  22.004  1.00  0.00     0.146 C 
HETATM   11  C18 UNL     1       5.341   6.271  21.383  1.00  0.00     0.161 C 
HETATM   12  N7  UNL     1       2.518   4.375  21.620  1.00  0.00    -0.124 N 
HETATM   13  C19 UNL     1       1.766   5.597  21.266  1.00  0.00     0.387 C 
HETATM   14  N8  UNL     1       0.922   5.198  20.163  1.00  0.00    -0.050 N 
HETATM   15  C20 UNL     1       1.582   5.416  18.885  1.00  0.00     0.274 C 
HETATM   16  C21 UNL     1      -0.322   5.927  20.137  1.00  0.00     0.274 C 
HETATM   17  C22 UNL     1       0.648   3.805  20.284  1.00  0.00     0.341 C 
HETATM   18  C23 UNL     1       1.636   3.344  21.320  1.00  0.00     0.266 C 
HETATM   19  O2  UNL     1       1.594   2.203  21.778  1.00  0.00    -0.271 OA
ENDROOT
BRANCH   1  20
HETATM   20  C8  UNL     1       4.730   2.152  22.473  1.00  0.00     0.138 C 
BRANCH  20  21
HETATM   21  C7  UNL     1       4.958   1.482  21.108  1.00  0.00     0.020 C 
BRANCH  21  22
HETATM   22  C6  UNL     1       6.221   2.064  20.530  1.00  0.00     0.002 C 
BRANCH  22  23
HETATM   23  C5  UNL     1       7.270   1.009  20.386  1.00  0.00     0.000 C 
BRANCH  23  24
HETATM   24  C4  UNL     1       8.095   1.214  19.163  1.00  0.00     0.000 C 
BRANCH  24  25
HETATM   25  C3  UNL     1       7.703   0.220  18.105  1.00  0.00    -0.000 C 
BRANCH  25  26
HETATM   26  C2  UNL     1       8.930  -0.315  17.381  1.00  0.00    -0.005 C 
HETATM   27  C1  UNL     1      10.128  -0.105  18.261  1.00  0.00     0.005 C 
ENDBRANCH  25  26
ENDBRANCH  24  25
ENDBRANCH  23  24
ENDBRANCH  22  23
ENDBRANCH  21  22
ENDBRANCH  20  21
ENDBRANCH   1  20
BRANCH   8  28
HETATM   28  C13 UNL     1       8.296   8.518  23.598  1.00  0.00     0.162 C 
BRANCH  28  29
HETATM   29  C14 UNL     1       9.080   8.177  24.787  1.00  0.00     0.051 A 
HETATM   30  C15 UNL     1      10.352   8.607  25.120  1.00  0.00     0.132 A 
HETATM   31  N4  UNL     1      10.687   8.057  26.285  1.00  0.00    -0.200 N 
HETATM   32  C16 UNL     1       9.645   7.301  26.673  1.00  0.00     0.675 A 
ATOM     33  H4  UNL     1      11.565   8.185  26.788  1.00  0.00     0.183 HD
HETATM   34  N6  UNL     1       8.659   7.364  25.770  1.00  0.00    -0.194 N 
ATOM     35  H6  UNL     1       7.760   6.886  25.820  1.00  0.00     0.184 HD
BRANCH  32  36
HETATM   36  N5  UNL     1       9.575   6.602  27.756  1.00  0.00    -0.234 N 
ATOM     37  H52 UNL     1      10.107   6.816  28.599  1.00  0.00     0.174 HD
ATOM     38  H51 UNL     1       8.996   5.774  27.900  1.00  0.00     0.174 HD
ENDBRANCH  32  36
ENDBRANCH  28  29
ENDBRANCH   8  28
TORSDOF 10
ENDMDL
MODEL 5
REMARK VINA RESULT: -7.928221879      0.928      1.152
REMARK  10 active torsions:
REMARK  status: ('A' for Active; 'I' for Inactive)
REMARK    1  A    between atoms: C2_2  and  C3_3 
REMARK    2  A    between atoms: C3_3  and  C4_4 
REMARK    3  A    between atoms: C4_4  and  C5_5 
REMARK    4  A    between atoms: C5_5  and  C6_6 
REMARK    5  A    between atoms: C6_6  and  C7_7 
REMARK    6  A    between atoms: C7_7  and  C8_8 
REMARK    7  A    between atoms: C8_8  and  N1_9 
REMARK       I    between atoms: C9_11  and  N2_12 
REMARK       I    between atoms: C9_11  and  N7_31 
REMARK       I    between atoms: N3_15  and  C12_16 
REMARK    8  A    between atoms: C12_16  and  C13_18 
REMARK    9  A    between atoms: C13_18  and  C14_19 
REMARK   10  A    between atoms: C16_23  and  N5_24 
ROOT
HETATM    1  N1  UNL     1       5.066   3.350  22.095  1.00  0.00    -0.226 N 
ATOM      2  H1  UNL     1       5.873   3.839  22.482  1.00  0.00     0.177 HD
HETATM    3  C9  UNL     1       4.475   4.127  21.367  1.00  0.00     0.682 C 
HETATM    4  N2  UNL     1       5.111   5.471  21.292  1.00  0.00    -0.214 N 
HETATM    5  C10 UNL     1       4.560   6.560  22.043  1.00  0.00     0.161 C 
HETATM    6  C11 UNL     1       5.182   7.889  21.595  1.00  0.00     0.146 C 
HETATM    7  N3  UNL     1       6.620   7.727  21.693  1.00  0.00    -0.349 N 
HETATM    8  C12 UNL     1       7.431   8.624  22.442  1.00  0.00     0.225 C 
HETATM    9  O1  UNL     1       6.952   9.607  23.065  1.00  0.00    -0.273 OA
HETATM   10  C17 UNL     1       7.243   6.627  21.004  1.00  0.00     0.146 C 
HETATM   11  C18 UNL     1       6.274   5.619  20.459  1.00  0.00     0.161 C 
HETATM   12  N7  UNL     1       3.301   3.957  20.611  1.00  0.00    -0.124 N 
HETATM   13  C19 UNL     1       2.758   5.015  19.734  1.00  0.00     0.387 C 
HETATM   14  N8  UNL     1       2.134   4.300  18.645  1.00  0.00    -0.050 N 
HETATM   15  C20 UNL     1       3.068   4.084  17.550  1.00  0.00     0.274 C 
HETATM   16  C21 UNL     1       0.997   5.008  18.109  1.00  0.00     0.274 C 
HETATM   17  C22 UNL     1       1.713   3.026  19.122  1.00  0.00     0.341 C 
HETATM   18  C23 UNL     1       2.411   2.902  20.448  1.00  0.00     0.266 C 
HETATM   19  O2  UNL     1       2.169   1.969  21.213  1.00  0.00    -0.271 OA
ENDROOT
BRANCH   1  20
HETATM   20  C8  UNL     1       5.067   2.082  22.593  1.00  0.00     0.138 C 
BRANCH  20  21
HETATM   21  C7  UNL     1       5.502   1.002  21.587  1.00  0.00     0.020 C 
BRANCH  21  22
HETATM   22  C6  UNL     1       6.504   1.635  20.658  1.00  0.00     0.002 C 
BRANCH  22  23
HETATM   23  C5  UNL     1       6.163   1.339  19.234  1.00  0.00     0.000 C 
BRANCH  23  24
HETATM   24  C4  UNL     1       7.215   0.519  18.573  1.00  0.00     0.000 C 
BRANCH  24  25
HETATM   25  C3  UNL     1       8.577   0.955  19.038  1.00  0.00    -0.000 C 
BRANCH  25  26
HETATM   26  C2  UNL     1       9.658   0.031  18.497  1.00  0.00    -0.005 C 
HETATM   27  C1  UNL     1       9.324  -0.307  17.073  1.00  0.00     0.005 C 
ENDBRANCH  25  26
ENDBRANCH  24  25
ENDBRANCH  23  24
ENDBRANCH  22  23
ENDBRANCH  21  22
ENDBRANCH  20  21
ENDBRANCH   1  20
BRANCH   8  28
HETATM   28  C13 UNL     1       8.886   8.399  22.493  1.00  0.00     0.162 C 
BRANCH  28  29
HETATM   29  C14 UNL     1       9.351   8.353  23.881  1.00  0.00     0.051 A 
HETATM   30  C15 UNL     1      10.443   8.997  24.434  1.00  0.00     0.132 A 
HETATM   31  N4  UNL     1      10.503   8.683  25.726  1.00  0.00    -0.200 N 
HETATM   32  C16 UNL     1       9.469   7.861  25.975  1.00  0.00     0.675 A 
ATOM     33  H4  UNL     1      11.200   9.004  26.399  1.00  0.00     0.183 HD
HETATM   34  N6  UNL     1       8.758   7.651  24.861  1.00  0.00    -0.194 N 
ATOM     35  H6  UNL     1       7.926   7.069  24.772  1.00  0.00     0.184 HD
BRANCH  32  36
HETATM   36  N5  UNL     1       9.174   7.333  27.116  1.00  0.00    -0.234 N 
ATOM     37  H52 UNL     1       9.246   7.833  28.002  1.00  0.00     0.174 HD
ATOM     38  H51 UNL     1       8.845   6.380  27.270  1.00  0.00     0.174 HD
ENDBRANCH  32  36
ENDBRANCH  28  29
ENDBRANCH   8  28
TORSDOF 10
ENDMDL
