MODEL 1
REMARK VINA RESULT: -7.911069556      0.000      0.000
REMARK  10 active torsions:
REMARK  status: ('A' for Active; 'I' for Inactive)
REMARK    1  A    between atoms: C3_3  and  C4_4 
REMARK    2  A    between atoms: C4_4  and  N1_5 
REMARK    3  A    between atoms: N2_8  and  C7_9 
REMARK    4  A    between atoms: C7_9  and  C8_10 
REMARK    5  A    between atoms: C8_10  and  N3_11 
REMARK       I    between atoms: N3_11  and  C9_13 
REMARK    6  A    between atoms: C9_13  and  C10_15 
REMARK    7  A    between atoms: C15_20  and  C16_21 
REMARK    8  A    between atoms: C17_24  and  C18_25 
REMARK    9  A    between atoms: C18_25  and  C19_26 
REMARK   10  A    between atoms: C19_26  and  C20_27 
ROOT
HETATM    1  C1  UNL     1      11.165   8.616  25.963  1.00  0.00     0.112 C 
HETATM    2  C2  UNL     1      10.438   8.795  24.702  1.00  0.00    -0.109 C 
HETATM    3  C3  UNL     1       9.835   8.930  23.662  1.00  0.00    -0.077 C 
ENDROOT
BRANCH   3   4
HETATM    4  C4  UNL     1       9.107   9.072  22.401  1.00  0.00     0.366 C 
BRANCH   4   5
HETATM    5  N1  UNL     1       7.688   8.967  22.659  1.00  0.00     0.108 N 
HETATM    6  C5  UNL     1       7.010   8.847  21.387  1.00  0.00     0.302 C 
HETATM    7  C6  UNL     1       5.756   8.001  21.509  1.00  0.00     0.280 C 
HETATM    8  N2  UNL     1       6.054   6.624  21.905  1.00  0.00     0.019 N 
HETATM    9  C22 UNL     1       7.396   6.609  22.559  1.00  0.00     0.287 C 
HETATM   10  C25 UNL     1       5.174   6.279  22.946  1.00  0.00     0.415 C 
HETATM   11  C23 UNL     1       7.477   7.776  23.473  1.00  0.00     0.268 C 
HETATM   12  C24 UNL     1       6.345   7.945  24.430  1.00  0.00     0.162 C 
HETATM   13  N4  UNL     1       5.192   7.166  24.091  1.00  0.00    -0.335 N 
ATOM     14  H4  UNL     1       4.358   7.238  24.674  1.00  0.00     0.164 HD
HETATM   15  O4  UNL     1       4.387   5.335  23.040  1.00  0.00    -0.239 OA
BRANCH   8  16
HETATM   16  C7  UNL     1       6.167   5.763  20.795  1.00  0.00     0.269 C 
BRANCH  16  17
HETATM   17  C8  UNL     1       7.223   4.735  20.733  1.00  0.00     0.151 C 
BRANCH  17  18
HETATM   18  N3  UNL     1       6.900   3.556  19.960  1.00  0.00    -0.359 N 
HETATM   19  C9  UNL     1       6.176   2.500  20.553  1.00  0.00     0.222 C 
HETATM   20  O1  UNL     1       5.818   2.589  21.739  1.00  0.00    -0.273 OA
ATOM     21  H3  UNL     1       7.195   3.488  18.986  1.00  0.00     0.162 HD
BRANCH  19  22
HETATM   22  C10 UNL     1       5.845   1.300  19.776  1.00  0.00     0.083 C 
HETATM   23  C11 UNL     1       4.395   0.942  19.805  1.00  0.00     0.014 C 
HETATM   24  C12 UNL     1       3.430   1.700  19.042  1.00  0.00     0.001 C 
HETATM   25  C13 UNL     1       3.855   2.884  18.244  1.00  0.00     0.001 C 
HETATM   26  C14 UNL     1       4.887   2.581  17.203  1.00  0.00     0.016 C 
HETATM   27  C15 UNL     1       5.445   1.170  17.363  1.00  0.00     0.091 C 
HETATM   28  C17 UNL     1       6.497   1.255  18.434  1.00  0.00     0.013 C 
BRANCH  27  29
HETATM   29  C16 UNL     1       6.001   0.801  16.048  1.00  0.00     0.177 C 
HETATM   30  O2  UNL     1       6.631   1.667  15.396  1.00  0.00    -0.648 OA
HETATM   31  O3  UNL     1       5.869  -0.458  15.479  1.00  0.00    -0.648 OA
ENDBRANCH  27  29
BRANCH  28  32
HETATM   32  C18 UNL     1       7.537   0.164  18.296  1.00  0.00     0.006 C 
BRANCH  32  33
HETATM   33  C19 UNL     1       8.866   0.563  18.849  1.00  0.00     0.000 C 
BRANCH  33  34
HETATM   34  C20 UNL     1      10.016  -0.185  18.222  1.00  0.00    -0.005 C 
HETATM   35  C21 UNL     1       9.588  -0.972  17.007  1.00  0.00     0.005 C 
ENDBRANCH  33  34
ENDBRANCH  32  33
ENDBRANCH  28  32
ENDBRANCH  19  22
ENDBRANCH  17  18
ENDBRANCH  16  17
ENDBRANCH   8  16
ENDBRANCH   4   5
ENDBRANCH   3   4
TORSDOF 10
ENDMDL
MODEL 2
REMARK VINA RESULT: -7.770600496      1.477      2.169
REMARK  10 active torsions:
REMARK  status: ('A' for Active; 'I' for Inactive)
REMARK    1  A    between atoms: C3_3  and  C4_4 
REMARK    2  A    between atoms: C4_4  and  N1_5 
REMARK    3  A    between atoms: N2_8  and  C7_9 
REMARK    4  A    between atoms: C7_9  and  C8_10 
REMARK    5  A    between atoms: C8_10  and  N3_11 
REMARK       I    between atoms: N3_11  and  C9_13 
REMARK    6  A    between atoms: C9_13  and  C10_15 
REMARK    7  A    between atoms: C15_20  and  C16_21 
REMARK    8  A    between atoms: C17_24  and  C18_25 
REMARK    9  A    between atoms: C18_25  and  C19_26 
REMARK   10  A    between atoms: C19_26  and  C20_27 
ROOT
HETATM    1  C1  UNL     1      11.465   8.060  26.305  1.00  0.00     0.112 C 
HETATM    2  C2  UNL     1      10.248   8.367  25.548  1.00  0.00    -0.109 C 
HETATM    3  C3  UNL     1       9.250   8.620  24.913  1.00  0.00    -0.077 C 
ENDROOT
BRANCH   3   4
HETATM    4  C4  UNL     1       8.056   8.929  24.127  1.00  0.00     0.366 C 
BRANCH   4   5
HETATM    5  N1  UNL     1       8.424   9.053  22.734  1.00  0.00     0.108 N 
HETATM    6  C5  UNL     1       8.857   7.754  22.268  1.00  0.00     0.302 C 
HETATM    7  C6  UNL     1       8.528   7.558  20.799  1.00  0.00     0.280 C 
HETATM    8  N2  UNL     1       7.087   7.585  20.546  1.00  0.00     0.019 N 
HETATM    9  C22 UNL     1       6.430   8.299  21.682  1.00  0.00     0.287 C 
HETATM   10  C25 UNL     1       6.862   8.433  19.447  1.00  0.00     0.415 C 
HETATM   11  C23 UNL     1       7.243   9.498  22.005  1.00  0.00     0.268 C 
HETATM   12  C24 UNL     1       7.592  10.387  20.859  1.00  0.00     0.162 C 
HETATM   13  N4  UNL     1       7.393   9.774  19.581  1.00  0.00    -0.335 N 
ATOM     14  H4  UNL     1       7.632  10.297  18.738  1.00  0.00     0.164 HD
HETATM   15  O4  UNL     1       6.279   8.215  18.383  1.00  0.00    -0.239 OA
BRANCH   8  16
HETATM   16  C7  UNL     1       6.523   6.293  20.537  1.00  0.00     0.269 C 
BRANCH  16  17
HETATM   17  C8  UNL     1       7.327   5.110  20.895  1.00  0.00     0.151 C 
BRANCH  17  18
HETATM   18  N3  UNL     1       6.997   3.895  20.184  1.00  0.00    -0.359 N 
HETATM   19  C9  UNL     1       6.106   2.962  20.756  1.00  0.00     0.222 C 
HETATM   20  O1  UNL     1       5.608   3.191  21.871  1.00  0.00    -0.273 OA
ATOM     21  H3  UNL     1       7.408   3.712  19.269  1.00  0.00     0.162 HD
BRANCH  19  22
HETATM   22  C10 UNL     1       5.767   1.726  20.041  1.00  0.00     0.083 C 
HETATM   23  C11 UNL     1       4.305   1.420  20.024  1.00  0.00     0.014 C 
HETATM   24  C12 UNL     1       3.405   2.159  19.170  1.00  0.00     0.001 C 
HETATM   25  C13 UNL     1       3.908   3.274  18.319  1.00  0.00     0.001 C 
HETATM   26  C14 UNL     1       4.974   2.869  17.350  1.00  0.00     0.016 C 
HETATM   27  C15 UNL     1       5.473   1.453  17.626  1.00  0.00     0.091 C 
HETATM   28  C17 UNL     1       6.478   1.572  18.738  1.00  0.00     0.013 C 
BRANCH  27  29
HETATM   29  C16 UNL     1       6.074   0.981  16.364  1.00  0.00     0.177 C 
HETATM   30  O2  UNL     1       5.883  -0.207  16.014  1.00  0.00    -0.648 OA
HETATM   31  O3  UNL     1       6.847   1.778  15.531  1.00  0.00    -0.648 OA
ENDBRANCH  27  29
BRANCH  28  32
HETATM   32  C18 UNL     1       7.482   0.440  18.719  1.00  0.00     0.006 C 
BRANCH  32  33
HETATM   33  C19 UNL     1       8.861   0.888  19.078  1.00  0.00     0.000 C 
BRANCH  33  34
HETATM   34  C20 UNL     1       9.936   0.181  18.292  1.00  0.00    -0.005 C 
HETATM   35  C21 UNL     1       9.374  -0.580  17.116  1.00  0.00     0.005 C 
ENDBRANCH  33  34
ENDBRANCH  32  33
ENDBRANCH  28  32
ENDBRANCH  19  22
ENDBRANCH  17  18
ENDBRANCH  16  17
ENDBRANCH   8  16
ENDBRANCH   4   5
ENDBRANCH   3   4
TORSDOF 10
ENDMDL
MODEL 3
REMARK VINA RESULT: -7.739249871      1.665      2.740
REMARK  10 active torsions:
REMARK  status: ('A' for Active; 'I' for Inactive)
REMARK    1  A    between atoms: C3_3  and  C4_4 
REMARK    2  A    between atoms: C4_4  and  N1_5 
REMARK    3  A    between atoms: N2_8  and  C7_9 
REMARK    4  A    between atoms: C7_9  and  C8_10 
REMARK    5  A    between atoms: C8_10  and  N3_11 
REMARK       I    between atoms: N3_11  and  C9_13 
REMARK    6  A    between atoms: C9_13  and  C10_15 
REMARK    7  A    between atoms: C15_20  and  C16_21 
REMARK    8  A    between atoms: C17_24  and  C18_25 
REMARK    9  A    between atoms: C18_25  and  C19_26 
REMARK   10  A    between atoms: C19_26  and  C20_27 
ROOT
HETATM    1  C1  UNL     1      11.319   7.379  27.073  1.00  0.00     0.112 C 
HETATM    2  C2  UNL     1      10.579   8.069  26.013  1.00  0.00    -0.109 C 
HETATM    3  C3  UNL     1       9.958   8.633  25.141  1.00  0.00    -0.077 C 
ENDROOT
BRANCH   3   4
HETATM    4  C4  UNL     1       9.190   9.300  24.089  1.00  0.00     0.366 C 
BRANCH   4   5
HETATM    5  N1  UNL     1       9.076   8.414  22.952  1.00  0.00     0.108 N 
HETATM    6  C5  UNL     1       8.273   7.278  23.349  1.00  0.00     0.302 C 
HETATM    7  C6  UNL     1       7.469   6.736  22.181  1.00  0.00     0.280 C 
HETATM    8  N2  UNL     1       6.508   7.714  21.670  1.00  0.00     0.019 N 
HETATM    9  C22 UNL     1       6.961   9.073  22.090  1.00  0.00     0.287 C 
HETATM   10  C25 UNL     1       6.631   7.742  20.269  1.00  0.00     0.415 C 
HETATM   11  C23 UNL     1       8.428   9.157  21.879  1.00  0.00     0.268 C 
HETATM   12  C24 UNL     1       8.925   8.749  20.534  1.00  0.00     0.162 C 
HETATM   13  N4  UNL     1       7.964   8.011  19.770  1.00  0.00    -0.335 N 
ATOM     14  H4  UNL     1       8.225   7.666  18.847  1.00  0.00     0.164 HD
HETATM   15  O4  UNL     1       5.779   7.574  19.394  1.00  0.00    -0.239 OA
BRANCH   8  16
HETATM   16  C7  UNL     1       5.229   7.550  22.238  1.00  0.00     0.269 C 
BRANCH  16  17
HETATM   17  C8  UNL     1       4.733   6.216  22.625  1.00  0.00     0.151 C 
BRANCH  17  18
HETATM   18  N3  UNL     1       4.986   5.157  21.673  1.00  0.00    -0.359 N 
HETATM   19  C9  UNL     1       4.711   3.817  22.019  1.00  0.00     0.222 C 
HETATM   20  O1  UNL     1       4.250   3.554  23.142  1.00  0.00    -0.273 OA
ATOM     21  H3  UNL     1       5.364   5.379  20.752  1.00  0.00     0.162 HD
BRANCH  19  22
HETATM   22  C10 UNL     1       4.966   2.737  21.060  1.00  0.00     0.083 C 
HETATM   23  C11 UNL     1       3.877   1.716  20.995  1.00  0.00     0.014 C 
HETATM   24  C12 UNL     1       2.628   2.008  20.331  1.00  0.00     0.001 C 
HETATM   25  C13 UNL     1       2.380   3.351  19.734  1.00  0.00     0.001 C 
HETATM   26  C14 UNL     1       3.374   3.746  18.688  1.00  0.00     0.016 C 
HETATM   27  C15 UNL     1       4.557   2.781  18.646  1.00  0.00     0.091 C 
HETATM   28  C17 UNL     1       5.488   3.213  19.744  1.00  0.00     0.013 C 
BRANCH  27  29
HETATM   29  C16 UNL     1       5.153   2.927  17.305  1.00  0.00     0.177 C 
HETATM   30  O2  UNL     1       5.421   1.893  16.649  1.00  0.00    -0.648 OA
HETATM   31  O3  UNL     1       5.439   4.151  16.716  1.00  0.00    -0.648 OA
ENDBRANCH  27  29
BRANCH  28  32
HETATM   32  C18 UNL     1       6.918   2.802  19.469  1.00  0.00     0.006 C 
BRANCH  32  33
HETATM   33  C19 UNL     1       7.223   1.422  19.954  1.00  0.00     0.000 C 
BRANCH  33  34
HETATM   34  C20 UNL     1       7.752   0.518  18.869  1.00  0.00    -0.005 C 
HETATM   35  C21 UNL     1       9.260   0.531  18.803  1.00  0.00     0.005 C 
ENDBRANCH  33  34
ENDBRANCH  32  33
ENDBRANCH  28  32
ENDBRANCH  19  22
ENDBRANCH  17  18
ENDBRANCH  16  17
ENDBRANCH   8  16
ENDBRANCH   4   5
ENDBRANCH   3   4
TORSDOF 10
ENDMDL
MODEL 4
REMARK VINA RESULT: -7.723743491      1.751      2.377
REMARK  10 active torsions:
REMARK  status: ('A' for Active; 'I' for Inactive)
REMARK    1  A    between atoms: C3_3  and  C4_4 
REMARK    2  A    between atoms: C4_4  and  N1_5 
REMARK    3  A    between atoms: N2_8  and  C7_9 
REMARK    4  A    between atoms: C7_9  and  C8_10 
REMARK    5  A    between atoms: C8_10  and  N3_11 
REMARK       I    between atoms: N3_11  and  C9_13 
REMARK    6  A    between atoms: C9_13  and  C10_15 
REMARK    7  A    between atoms: C15_20  and  C16_21 
REMARK    8  A    between atoms: C17_24  and  C18_25 
REMARK    9  A    between atoms: C18_25  and  C19_26 
REMARK   10  A    between atoms: C19_26  and  C20_27 
ROOT
HETATM    1  C1  UNL     1      11.856   7.453  27.114  1.00  0.00     0.112 C 
HETATM    2  C2  UNL     1      11.215   8.096  25.963  1.00  0.00    -0.109 C 
HETATM    3  C3  UNL     1      10.692   8.619  25.006  1.00  0.00    -0.077 C 
ENDROOT
BRANCH   3   4
HETATM    4  C4  UNL     1      10.073   9.242  23.835  1.00  0.00     0.366 C 
BRANCH   4   5
HETATM    5  N1  UNL     1       8.642   9.303  24.032  1.00  0.00     0.108 N 
HETATM    6  C5  UNL     1       8.027   9.598  22.757  1.00  0.00     0.302 C 
HETATM    7  C6  UNL     1       6.657   8.956  22.644  1.00  0.00     0.280 C 
HETATM    8  N2  UNL     1       6.725   7.495  22.697  1.00  0.00     0.019 N 
HETATM    9  C22 UNL     1       8.011   7.114  23.354  1.00  0.00     0.287 C 
HETATM   10  C25 UNL     1       5.746   7.055  23.605  1.00  0.00     0.415 C 
HETATM   11  C23 UNL     1       8.211   8.001  24.526  1.00  0.00     0.268 C 
HETATM   12  C24 UNL     1       7.064   8.113  25.473  1.00  0.00     0.162 C 
HETATM   13  N4  UNL     1       5.829   7.629  24.933  1.00  0.00    -0.335 N 
ATOM     14  H4  UNL     1       4.983   7.691  25.499  1.00  0.00     0.164 HD
HETATM   15  O4  UNL     1       4.823   6.251  23.451  1.00  0.00    -0.239 OA
BRANCH   8  16
HETATM   16  C7  UNL     1       6.772   6.916  21.413  1.00  0.00     0.269 C 
BRANCH  16  17
HETATM   17  C8  UNL     1       7.779   5.894  21.075  1.00  0.00     0.151 C 
BRANCH  17  18
HETATM   18  N3  UNL     1       7.374   4.523  21.297  1.00  0.00    -0.359 N 
HETATM   19  C9  UNL     1       6.576   3.860  20.341  1.00  0.00     0.222 C 
HETATM   20  O1  UNL     1       6.226   4.458  19.310  1.00  0.00    -0.273 OA
ATOM     21  H3  UNL     1       7.665   4.037  22.145  1.00  0.00     0.162 HD
BRANCH  19  22
HETATM   22  C10 UNL     1       6.160   2.470  20.559  1.00  0.00     0.083 C 
HETATM   23  C11 UNL     1       5.675   2.195  21.945  1.00  0.00     0.014 C 
HETATM   24  C12 UNL     1       4.373   2.651  22.377  1.00  0.00     0.001 C 
HETATM   25  C13 UNL     1       3.504   3.444  21.463  1.00  0.00     0.001 C 
HETATM   26  C14 UNL     1       3.167   2.747  20.183  1.00  0.00     0.016 C 
HETATM   27  C15 UNL     1       3.992   1.475  20.004  1.00  0.00     0.091 C 
HETATM   28  C17 UNL     1       5.322   1.914  19.456  1.00  0.00     0.013 C 
BRANCH  27  29
HETATM   29  C16 UNL     1       3.238   0.631  19.058  1.00  0.00     0.177 C 
HETATM   30  O2  UNL     1       2.780  -0.464  19.462  1.00  0.00    -0.648 OA
HETATM   31  O3  UNL     1       3.001   0.976  17.735  1.00  0.00    -0.648 OA
ENDBRANCH  27  29
BRANCH  28  32
HETATM   32  C18 UNL     1       6.001   0.815  18.668  1.00  0.00     0.006 C 
BRANCH  32  33
HETATM   33  C19 UNL     1       7.406   0.571  19.113  1.00  0.00     0.000 C 
BRANCH  33  34
HETATM   34  C20 UNL     1       8.321   0.161  17.986  1.00  0.00    -0.005 C 
HETATM   35  C21 UNL     1       9.769   0.126  18.413  1.00  0.00     0.005 C 
ENDBRANCH  33  34
ENDBRANCH  32  33
ENDBRANCH  28  32
ENDBRANCH  19  22
ENDBRANCH  17  18
ENDBRANCH  16  17
ENDBRANCH   8  16
ENDBRANCH   4   5
ENDBRANCH   3   4
TORSDOF 10
ENDMDL
MODEL 5
REMARK VINA RESULT: -7.304073511      1.633      2.335
REMARK  10 active torsions:
REMARK  status: ('A' for Active; 'I' for Inactive)
REMARK    1  A    between atoms: C3_3  and  C4_4 
REMARK    2  A    between atoms: C4_4  and  N1_5 
REMARK    3  A    between atoms: N2_8  and  C7_9 
REMARK    4  A    between atoms: C7_9  and  C8_10 
REMARK    5  A    between atoms: C8_10  and  N3_11 
REMARK       I    between atoms: N3_11  and  C9_13 
REMARK    6  A    between atoms: C9_13  and  C10_15 
REMARK    7  A    between atoms: C15_20  and  C16_21 
REMARK    8  A    between atoms: C17_24  and  C18_25 
REMARK    9  A    between atoms: C18_25  and  C19_26 
REMARK   10  A    between atoms: C19_26  and  C20_27 
ROOT
HETATM    1  C1  UNL     1      11.109   7.478  26.832  1.00  0.00     0.112 C 
HETATM    2  C2  UNL     1      10.002   7.932  25.984  1.00  0.00    -0.109 C 
HETATM    3  C3  UNL     1       9.097   8.313  25.278  1.00  0.00    -0.077 C 
ENDROOT
BRANCH   3   4
HETATM    4  C4  UNL     1       8.015   8.790  24.416  1.00  0.00     0.366 C 
BRANCH   4   5
HETATM    5  N1  UNL     1       8.380   8.571  23.034  1.00  0.00     0.108 N 
HETATM    6  C5  UNL     1       8.177   7.171  22.733  1.00  0.00     0.302 C 
HETATM    7  C6  UNL     1       7.773   6.971  21.284  1.00  0.00     0.280 C 
HETATM    8  N2  UNL     1       6.494   7.610  20.972  1.00  0.00     0.019 N 
HETATM    9  C22 UNL     1       6.245   8.671  21.994  1.00  0.00     0.287 C 
HETATM   10  C25 UNL     1       6.658   8.333  19.777  1.00  0.00     0.415 C 
HETATM   11  C23 UNL     1       7.514   9.408  22.213  1.00  0.00     0.268 C 
HETATM   12  C24 UNL     1       8.208   9.906  20.990  1.00  0.00     0.162 C 
HETATM   13  N4  UNL     1       7.736   9.301  19.781  1.00  0.00    -0.335 N 
ATOM     14  H4  UNL     1       8.172   9.559  18.896  1.00  0.00     0.164 HD
HETATM   15  O4  UNL     1       6.024   8.275  18.721  1.00  0.00    -0.239 OA
BRANCH   8  16
HETATM   16  C7  UNL     1       5.411   6.716  21.085  1.00  0.00     0.269 C 
BRANCH  16  17
HETATM   17  C8  UNL     1       5.555   5.432  21.796  1.00  0.00     0.151 C 
BRANCH  17  18
HETATM   18  N3  UNL     1       5.006   4.279  21.116  1.00  0.00    -0.359 N 
HETATM   19  C9  UNL     1       5.803   3.552  20.206  1.00  0.00     0.222 C 
HETATM   20  O1  UNL     1       6.975   3.907  19.993  1.00  0.00    -0.273 OA
ATOM     21  H3  UNL     1       4.045   3.991  21.295  1.00  0.00     0.162 HD
BRANCH  19  22
HETATM   22  C10 UNL     1       5.254   2.382  19.511  1.00  0.00     0.083 C 
HETATM   23  C11 UNL     1       3.800   2.497  19.190  1.00  0.00     0.014 C 
HETATM   24  C12 UNL     1       3.345   3.347  18.113  1.00  0.00     0.001 C 
HETATM   25  C13 UNL     1       4.314   4.163  17.328  1.00  0.00     0.001 C 
HETATM   26  C14 UNL     1       5.376   3.359  16.646  1.00  0.00     0.016 C 
HETATM   27  C15 UNL     1       5.364   1.905  17.112  1.00  0.00     0.091 C 
HETATM   28  C17 UNL     1       6.124   1.875  18.409  1.00  0.00     0.013 C 
BRANCH  27  29
HETATM   29  C16 UNL     1       6.028   1.132  16.046  1.00  0.00     0.177 C 
HETATM   30  O2  UNL     1       5.560   0.011  15.735  1.00  0.00    -0.648 OA
HETATM   31  O3  UNL     1       7.151   1.571  15.357  1.00  0.00    -0.648 OA
ENDBRANCH  27  29
BRANCH  28  32
HETATM   32  C18 UNL     1       6.726   0.514  18.682  1.00  0.00     0.006 C 
BRANCH  32  33
HETATM   33  C19 UNL     1       7.936   0.585  19.555  1.00  0.00     0.000 C 
BRANCH  33  34
HETATM   34  C20 UNL     1       9.219   0.740  18.777  1.00  0.00    -0.005 C 
HETATM   35  C21 UNL     1       9.308  -0.235  17.628  1.00  0.00     0.005 C 
ENDBRANCH  33  34
ENDBRANCH  32  33
ENDBRANCH  28  32
ENDBRANCH  19  22
ENDBRANCH  17  18
ENDBRANCH  16  17
ENDBRANCH   8  16
ENDBRANCH   4   5
ENDBRANCH   3   4
TORSDOF 10
ENDMDL
