MODEL 1
REMARK VINA RESULT: -6.881589034      0.000      0.000
REMARK  6 active torsions:
REMARK  status: ('A' for Active; 'I' for Inactive)
REMARK    1  A    between atoms: C2_3  and  C3_4 
REMARK    2  A    between atoms: C3_4  and  N2_5 
REMARK    3  A    between atoms: N2_5  and  C4_8 
REMARK    4  A    between atoms: C4_8  and  C5_9 
REMARK    5  A    between atoms: C5_9  and  C6_10 
REMARK    6  A    between atoms: C8_14  and  C9_15 
ROOT
HETATM    1  N1  UNL     1       9.718  34.515  41.725  1.00  0.00    -0.197 NA
HETATM    2  C1  UNL     1      10.164  34.792  40.699  1.00  0.00     0.060 C 
HETATM    3  C2  UNL     1      10.716  35.159  39.378  1.00  0.00     0.151 C 
ENDROOT
BRANCH   3   4
HETATM    4  C3  UNL     1      10.691  33.899  38.542  1.00  0.00     0.246 C 
BRANCH   4   5
HETATM    5  N2  UNL     1      10.921  32.757  39.430  1.00  0.00    -0.074 N 
ATOM      6  H22 UNL     1      11.831  32.805  39.888  1.00  0.00     0.277 HD
ATOM      7  H21 UNL     1      10.333  32.795  40.263  1.00  0.00     0.277 HD
BRANCH   5   8
HETATM    8  C4  UNL     1      10.746  31.511  38.693  1.00  0.00     0.237 C 
BRANCH   8   9
HETATM    9  C5  UNL     1      12.084  30.888  38.428  1.00  0.00     0.067 C 
BRANCH   9  10
HETATM   10  C6  UNL     1      12.451  30.871  37.007  1.00  0.00    -0.039 A 
HETATM   11  C7  UNL     1      12.345  29.812  36.138  1.00  0.00     0.095 A 
HETATM   12  N3  UNL     1      12.791  30.231  34.942  1.00  0.00    -0.364 N 
HETATM   13  C8  UNL     1      13.182  31.506  34.983  1.00  0.00     0.047 A 
ATOM     14  H3  UNL     1      12.826  29.647  34.107  1.00  0.00     0.165 HD
HETATM   15  C10 UNL     1      12.973  31.922  36.280  1.00  0.00     0.039 A 
BRANCH  13  16
HETATM   16  C9  UNL     1      13.726  32.303  33.863  1.00  0.00     0.110 C 
HETATM   17  N4  UNL     1      14.929  32.728  33.887  1.00  0.00    -0.406 N 
ATOM     18  H42 UNL     1      15.509  32.506  34.696  1.00  0.00     0.155 HD
ATOM     19  H41 UNL     1      15.305  33.279  33.114  1.00  0.00     0.155 HD
ENDBRANCH  13  16
ENDBRANCH   9  10
ENDBRANCH   8   9
ENDBRANCH   5   8
ENDBRANCH   4   5
ENDBRANCH   3   4
TORSDOF 6
ENDMDL
MODEL 2
REMARK VINA RESULT: -6.724722341      1.147      1.333
REMARK  6 active torsions:
REMARK  status: ('A' for Active; 'I' for Inactive)
REMARK    1  A    between atoms: C2_3  and  C3_4 
REMARK    2  A    between atoms: C3_4  and  N2_5 
REMARK    3  A    between atoms: N2_5  and  C4_8 
REMARK    4  A    between atoms: C4_8  and  C5_9 
REMARK    5  A    between atoms: C5_9  and  C6_10 
REMARK    6  A    between atoms: C8_14  and  C9_15 
ROOT
HETATM    1  N1  UNL     1      12.036  36.311  42.408  1.00  0.00    -0.197 NA
HETATM    2  C1  UNL     1      11.714  36.004  41.344  1.00  0.00     0.060 C 
HETATM    3  C2  UNL     1      11.291  35.630  39.978  1.00  0.00     0.151 C 
ENDROOT
BRANCH   3   4
HETATM    4  C3  UNL     1      10.174  34.624  40.140  1.00  0.00     0.246 C 
BRANCH   4   5
HETATM    5  N2  UNL     1      10.712  33.293  39.851  1.00  0.00    -0.074 N 
ATOM      6  H22 UNL     1      11.611  33.136  40.306  1.00  0.00     0.277 HD
ATOM      7  H21 UNL     1      10.180  32.556  40.315  1.00  0.00     0.277 HD
BRANCH   5   8
HETATM    8  C4  UNL     1      10.787  33.089  38.409  1.00  0.00     0.237 C 
BRANCH   8   9
HETATM    9  C5  UNL     1      10.935  31.627  38.113  1.00  0.00     0.067 C 
BRANCH   9  10
HETATM   10  C6  UNL     1      11.697  31.351  36.889  1.00  0.00    -0.039 A 
HETATM   11  C7  UNL     1      12.063  30.120  36.403  1.00  0.00     0.095 A 
HETATM   12  N3  UNL     1      12.746  30.327  35.264  1.00  0.00    -0.364 N 
HETATM   13  C8  UNL     1      12.844  31.627  34.981  1.00  0.00     0.047 A 
ATOM     14  H3  UNL     1      13.140  29.583  34.689  1.00  0.00     0.165 HD
HETATM   15  C10 UNL     1      12.187  32.285  35.997  1.00  0.00     0.039 A 
BRANCH  13  16
HETATM   16  C9  UNL     1      13.520  32.232  33.813  1.00  0.00     0.110 C 
HETATM   17  N4  UNL     1      14.738  32.606  33.884  1.00  0.00    -0.406 N 
ATOM     18  H42 UNL     1      15.237  32.478  34.765  1.00  0.00     0.155 HD
ATOM     19  H41 UNL     1      15.204  33.023  33.078  1.00  0.00     0.155 HD
ENDBRANCH  13  16
ENDBRANCH   9  10
ENDBRANCH   8   9
ENDBRANCH   5   8
ENDBRANCH   4   5
ENDBRANCH   3   4
TORSDOF 6
ENDMDL
MODEL 3
REMARK VINA RESULT: -6.694219406      2.341      3.746
REMARK  6 active torsions:
REMARK  status: ('A' for Active; 'I' for Inactive)
REMARK    1  A    between atoms: C2_3  and  C3_4 
REMARK    2  A    between atoms: C3_4  and  N2_5 
REMARK    3  A    between atoms: N2_5  and  C4_8 
REMARK    4  A    between atoms: C4_8  and  C5_9 
REMARK    5  A    between atoms: C5_9  and  C6_10 
REMARK    6  A    between atoms: C8_14  and  C9_15 
ROOT
HETATM    1  N1  UNL     1      13.278  37.342  43.175  1.00  0.00    -0.197 NA
HETATM    2  C1  UNL     1      12.691  37.017  42.238  1.00  0.00     0.060 C 
HETATM    3  C2  UNL     1      11.940  36.580  41.042  1.00  0.00     0.151 C 
ENDROOT
BRANCH   3   4
HETATM    4  C3  UNL     1      12.838  36.850  39.855  1.00  0.00     0.246 C 
BRANCH   4   5
HETATM    5  N2  UNL     1      12.193  36.303  38.659  1.00  0.00    -0.074 N 
ATOM      6  H22 UNL     1      11.950  37.031  37.988  1.00  0.00     0.277 HD
ATOM      7  H21 UNL     1      12.847  35.777  38.079  1.00  0.00     0.277 HD
BRANCH   5   8
HETATM    8  C4  UNL     1      11.035  35.503  39.041  1.00  0.00     0.237 C 
BRANCH   8   9
HETATM    9  C5  UNL     1      10.567  34.699  37.865  1.00  0.00     0.067 C 
BRANCH   9  10
HETATM   10  C6  UNL     1      10.921  33.277  37.950  1.00  0.00    -0.039 A 
HETATM   11  C7  UNL     1      10.664  32.422  38.995  1.00  0.00     0.095 A 
HETATM   12  N3  UNL     1      11.157  31.219  38.657  1.00  0.00    -0.364 N 
HETATM   13  C8  UNL     1      11.722  31.242  37.449  1.00  0.00     0.047 A 
ATOM     14  H3  UNL     1      11.106  30.391  39.250  1.00  0.00     0.165 HD
HETATM   15  C10 UNL     1      11.581  32.534  36.992  1.00  0.00     0.039 A 
BRANCH  13  16
HETATM   16  C9  UNL     1      12.366  30.110  36.748  1.00  0.00     0.110 C 
HETATM   17  N4  UNL     1      11.993  29.769  35.577  1.00  0.00    -0.406 N 
ATOM     18  H42 UNL     1      11.240  30.293  35.132  1.00  0.00     0.155 HD
ATOM     19  H41 UNL     1      12.438  28.987  35.094  1.00  0.00     0.155 HD
ENDBRANCH  13  16
ENDBRANCH   9  10
ENDBRANCH   8   9
ENDBRANCH   5   8
ENDBRANCH   4   5
ENDBRANCH   3   4
TORSDOF 6
ENDMDL
MODEL 4
REMARK VINA RESULT: -6.688126183      2.008      2.329
REMARK  6 active torsions:
REMARK  status: ('A' for Active; 'I' for Inactive)
REMARK    1  A    between atoms: C2_3  and  C3_4 
REMARK    2  A    between atoms: C3_4  and  N2_5 
REMARK    3  A    between atoms: N2_5  and  C4_8 
REMARK    4  A    between atoms: C4_8  and  C5_9 
REMARK    5  A    between atoms: C5_9  and  C6_10 
REMARK    6  A    between atoms: C8_14  and  C9_15 
ROOT
HETATM    1  N1  UNL     1      10.164  34.071  41.780  1.00  0.00    -0.197 NA
HETATM    2  C1  UNL     1      10.008  34.196  40.645  1.00  0.00     0.060 C 
HETATM    3  C2  UNL     1       9.791  34.343  39.190  1.00  0.00     0.151 C 
ENDROOT
BRANCH   3   4
HETATM    4  C3  UNL     1      10.938  33.623  38.516  1.00  0.00     0.246 C 
BRANCH   4   5
HETATM    5  N2  UNL     1      11.164  32.361  39.223  1.00  0.00    -0.074 N 
ATOM      6  H22 UNL     1      11.927  32.430  39.897  1.00  0.00     0.277 HD
ATOM      7  H21 UNL     1      10.409  32.146  39.874  1.00  0.00     0.277 HD
BRANCH   5   8
HETATM    8  C4  UNL     1      11.381  31.285  38.263  1.00  0.00     0.237 C 
BRANCH   8   9
HETATM    9  C5  UNL     1      11.798  31.862  36.943  1.00  0.00     0.067 C 
BRANCH   9  10
HETATM   10  C6  UNL     1      13.123  31.412  36.500  1.00  0.00    -0.039 A 
HETATM   11  C7  UNL     1      13.876  31.938  35.478  1.00  0.00     0.095 A 
HETATM   12  N3  UNL     1      15.015  31.228  35.415  1.00  0.00    -0.364 N 
HETATM   13  C8  UNL     1      15.047  30.268  36.340  1.00  0.00     0.047 A 
ATOM     14  H3  UNL     1      15.762  31.402  34.743  1.00  0.00     0.165 HD
HETATM   15  C10 UNL     1      13.860  30.372  37.032  1.00  0.00     0.039 A 
BRANCH  13  16
HETATM   16  C9  UNL     1      16.135  29.295  36.572  1.00  0.00     0.110 C 
HETATM   17  N4  UNL     1      17.358  29.642  36.460  1.00  0.00    -0.406 N 
ATOM     18  H42 UNL     1      17.570  30.608  36.206  1.00  0.00     0.155 HD
ATOM     19  H41 UNL     1      18.109  28.970  36.620  1.00  0.00     0.155 HD
ENDBRANCH  13  16
ENDBRANCH   9  10
ENDBRANCH   8   9
ENDBRANCH   5   8
ENDBRANCH   4   5
ENDBRANCH   3   4
TORSDOF 6
ENDMDL
MODEL 5
REMARK VINA RESULT: -6.552604018      2.896      6.509
REMARK  6 active torsions:
REMARK  status: ('A' for Active; 'I' for Inactive)
REMARK    1  A    between atoms: C2_3  and  C3_4 
REMARK    2  A    between atoms: C3_4  and  N2_5 
REMARK    3  A    between atoms: N2_5  and  C4_8 
REMARK    4  A    between atoms: C4_8  and  C5_9 
REMARK    5  A    between atoms: C5_9  and  C6_10 
REMARK    6  A    between atoms: C8_14  and  C9_15 
ROOT
HETATM    1  N1  UNL     1      12.562  30.351  39.128  1.00  0.00    -0.197 NA
HETATM    2  C1  UNL     1      12.589  31.369  38.588  1.00  0.00     0.060 C 
HETATM    3  C2  UNL     1      12.629  32.685  37.916  1.00  0.00     0.151 C 
ENDROOT
BRANCH   3   4
HETATM    4  C3  UNL     1      11.192  33.065  37.640  1.00  0.00     0.246 C 
BRANCH   4   5
HETATM    5  N2  UNL     1      10.448  32.984  38.899  1.00  0.00    -0.074 N 
ATOM      6  H22 UNL     1       9.791  32.205  38.907  1.00  0.00     0.277 HD
ATOM      7  H21 UNL     1      11.040  32.687  39.675  1.00  0.00     0.277 HD
BRANCH   5   8
HETATM    8  C4  UNL     1       9.789  34.257  39.169  1.00  0.00     0.237 C 
BRANCH   8   9
HETATM    9  C5  UNL     1      10.189  34.755  40.526  1.00  0.00     0.067 C 
BRANCH   9  10
HETATM   10  C6  UNL     1      11.278  35.738  40.492  1.00  0.00    -0.039 A 
HETATM   11  C7  UNL     1      11.949  36.190  39.381  1.00  0.00     0.095 A 
HETATM   12  N3  UNL     1      12.864  37.079  39.802  1.00  0.00    -0.364 N 
HETATM   13  C8  UNL     1      12.826  37.232  41.127  1.00  0.00     0.047 A 
ATOM     14  H3  UNL     1      13.507  37.575  39.186  1.00  0.00     0.165 HD
HETATM   15  C10 UNL     1      11.831  36.391  41.575  1.00  0.00     0.039 A 
BRANCH  13  16
HETATM   16  C9  UNL     1      13.680  38.123  41.942  1.00  0.00     0.110 C 
HETATM   17  N4  UNL     1      13.822  37.926  43.195  1.00  0.00    -0.406 N 
ATOM     18  H42 UNL     1      13.333  37.140  43.624  1.00  0.00     0.155 HD
ATOM     19  H41 UNL     1      14.411  38.540  43.757  1.00  0.00     0.155 HD
ENDBRANCH  13  16
ENDBRANCH   9  10
ENDBRANCH   8   9
ENDBRANCH   5   8
ENDBRANCH   4   5
ENDBRANCH   3   4
TORSDOF 6
ENDMDL
