MODEL 1
REMARK VINA RESULT: -6.200010906      0.000      0.000
REMARK  7 active torsions:
REMARK  status: ('A' for Active; 'I' for Inactive)
REMARK    1  A    between atoms: C2_2  and  O1_3 
REMARK    2  A    between atoms: O1_3  and  C3_4 
REMARK    3  A    between atoms: C3_4  and  C4_5 
REMARK    4  A    between atoms: C4_5  and  C5_6 
REMARK    5  A    between atoms: C7_12  and  C8_13 
REMARK    6  A    between atoms: C8_13  and  N3_14 
REMARK    7  A    between atoms: N3_14  and  C9_16 
ROOT
HETATM    1  C5  UNL     1      11.530  32.570  37.736  1.00  0.00     0.059 A 
HETATM    2  N1  UNL     1      11.699  31.862  38.860  1.00  0.00    -0.351 N 
ATOM      3  H1  UNL     1      11.315  32.119  39.770  1.00  0.00     0.166 HD
HETATM    4  C6  UNL     1      12.444  30.768  38.629  1.00  0.00     0.181 A 
HETATM    5  N2  UNL     1      12.767  30.773  37.304  1.00  0.00    -0.352 N 
ATOM      6  H2  UNL     1      13.327  30.069  36.823  1.00  0.00     0.166 HD
HETATM    7  C7  UNL     1      12.221  31.860  36.746  1.00  0.00     0.055 A 
ENDROOT
BRANCH   7   8
HETATM    8  C8  UNL     1      12.296  32.294  35.349  1.00  0.00     0.179 C 
BRANCH   8   9
HETATM    9  N3  UNL     1      12.967  31.334  34.523  1.00  0.00    -0.381 N 
ATOM     10  H3  UNL     1      12.559  30.403  34.447  1.00  0.00     0.160 HD
BRANCH   9  11
HETATM   11  C9  UNL     1      14.159  31.594  33.808  1.00  0.00     0.169 C 
HETATM   12  N4  UNL     1      14.787  32.722  33.866  1.00  0.00    -0.396 N 
ATOM     13  H42 UNL     1      14.392  33.450  34.461  1.00  0.00     0.156 HD
ATOM     14  H41 UNL     1      15.647  32.909  33.349  1.00  0.00     0.156 HD
ENDBRANCH   9  11
ENDBRANCH   8   9
ENDBRANCH   7   8
BRANCH   1  15
HETATM   15  C4  UNL     1      10.799  33.811  37.531  1.00  0.00     0.055 C 
BRANCH  15  16
HETATM   16  C3  UNL     1      10.298  34.476  38.557  1.00  0.00     0.137 C 
BRANCH  16  17
HETATM   17  O1  UNL     1       9.612  33.871  39.584  1.00  0.00    -0.363 OA
BRANCH  17  18
HETATM   18  C2  UNL     1       9.717  34.394  40.895  1.00  0.00     0.170 C 
HETATM   19  C1  UNL     1      10.842  35.421  40.989  1.00  0.00     0.034 C 
ENDBRANCH  17  18
ENDBRANCH  16  17
ENDBRANCH  15  16
ENDBRANCH   1  15
TORSDOF 7
ENDMDL
MODEL 2
REMARK VINA RESULT: -6.165102632      2.549      4.072
REMARK  7 active torsions:
REMARK  status: ('A' for Active; 'I' for Inactive)
REMARK    1  A    between atoms: C2_2  and  O1_3 
REMARK    2  A    between atoms: O1_3  and  C3_4 
REMARK    3  A    between atoms: C3_4  and  C4_5 
REMARK    4  A    between atoms: C4_5  and  C5_6 
REMARK    5  A    between atoms: C7_12  and  C8_13 
REMARK    6  A    between atoms: C8_13  and  N3_14 
REMARK    7  A    between atoms: N3_14  and  C9_16 
ROOT
HETATM    1  C5  UNL     1      13.000  31.206  35.251  1.00  0.00     0.059 A 
HETATM    2  N1  UNL     1      12.849  32.312  34.510  1.00  0.00    -0.351 N 
ATOM      3  H1  UNL     1      12.006  32.887  34.493  1.00  0.00     0.166 HD
HETATM    4  C6  UNL     1      13.956  32.560  33.791  1.00  0.00     0.181 A 
HETATM    5  N2  UNL     1      14.854  31.576  34.080  1.00  0.00    -0.352 N 
ATOM      6  H2  UNL     1      15.793  31.489  33.691  1.00  0.00     0.166 HD
HETATM    7  C7  UNL     1      14.291  30.745  34.965  1.00  0.00     0.055 A 
ENDROOT
BRANCH   7   8
HETATM    8  C8  UNL     1      14.866  29.540  35.569  1.00  0.00     0.179 C 
BRANCH   8   9
HETATM    9  N3  UNL     1      16.188  29.771  36.072  1.00  0.00    -0.381 N 
ATOM     10  H3  UNL     1      16.659  30.633  35.796  1.00  0.00     0.160 HD
BRANCH   9  11
HETATM   11  C9  UNL     1      16.883  28.882  36.923  1.00  0.00     0.169 C 
HETATM   12  N4  UNL     1      17.132  29.141  38.165  1.00  0.00    -0.396 N 
ATOM     13  H42 UNL     1      16.803  30.034  38.533  1.00  0.00     0.156 HD
ATOM     14  H41 UNL     1      17.633  28.499  38.780  1.00  0.00     0.156 HD
ENDBRANCH   9  11
ENDBRANCH   8   9
ENDBRANCH   7   8
BRANCH   1  15
HETATM   15  C4  UNL     1      12.062  30.578  36.169  1.00  0.00     0.055 C 
BRANCH  15  16
HETATM   16  C3  UNL     1      11.511  31.271  37.149  1.00  0.00     0.137 C 
BRANCH  16  17
HETATM   17  O1  UNL     1      11.297  32.629  37.086  1.00  0.00    -0.363 OA
BRANCH  17  18
HETATM   18  C2  UNL     1      10.861  33.320  38.241  1.00  0.00     0.170 C 
HETATM   19  C1  UNL     1      10.521  34.772  37.918  1.00  0.00     0.034 C 
ENDBRANCH  17  18
ENDBRANCH  16  17
ENDBRANCH  15  16
ENDBRANCH   1  15
TORSDOF 7
ENDMDL
MODEL 3
REMARK VINA RESULT: -6.160193817      1.818      2.098
REMARK  7 active torsions:
REMARK  status: ('A' for Active; 'I' for Inactive)
REMARK    1  A    between atoms: C2_2  and  O1_3 
REMARK    2  A    between atoms: O1_3  and  C3_4 
REMARK    3  A    between atoms: C3_4  and  C4_5 
REMARK    4  A    between atoms: C4_5  and  C5_6 
REMARK    5  A    between atoms: C7_12  and  C8_13 
REMARK    6  A    between atoms: C8_13  and  N3_14 
REMARK    7  A    between atoms: N3_14  and  C9_16 
ROOT
HETATM    1  C5  UNL     1      12.379  32.989  38.687  1.00  0.00     0.059 A 
HETATM    2  N1  UNL     1      11.228  32.666  39.292  1.00  0.00    -0.351 N 
ATOM      3  H1  UNL     1      10.865  33.124  40.128  1.00  0.00     0.166 HD
HETATM    4  C6  UNL     1      10.616  31.658  38.648  1.00  0.00     0.181 A 
HETATM    5  N2  UNL     1      11.404  31.319  37.589  1.00  0.00    -0.352 N 
ATOM      6  H2  UNL     1      11.208  30.585  36.908  1.00  0.00     0.166 HD
HETATM    7  C7  UNL     1      12.480  32.116  37.597  1.00  0.00     0.055 A 
ENDROOT
BRANCH   7   8
HETATM    8  C8  UNL     1      13.606  32.126  36.660  1.00  0.00     0.179 C 
BRANCH   8   9
HETATM    9  N3  UNL     1      13.183  32.378  35.314  1.00  0.00    -0.381 N 
ATOM     10  H3  UNL     1      12.272  32.815  35.175  1.00  0.00     0.160 HD
BRANCH   9  11
HETATM   11  C9  UNL     1      13.946  32.060  34.167  1.00  0.00     0.169 C 
HETATM   12  N4  UNL     1      14.934  32.783  33.752  1.00  0.00    -0.396 N 
ATOM     13  H42 UNL     1      15.162  33.619  34.290  1.00  0.00     0.156 HD
ATOM     14  H41 UNL     1      15.485  32.554  32.924  1.00  0.00     0.156 HD
ENDBRANCH   9  11
ENDBRANCH   8   9
ENDBRANCH   7   8
BRANCH   1  15
HETATM   15  C4  UNL     1      13.351  34.012  39.043  1.00  0.00     0.055 C 
BRANCH  15  16
HETATM   16  C3  UNL     1      13.514  34.377  40.302  1.00  0.00     0.137 C 
BRANCH  16  17
HETATM   17  O1  UNL     1      12.468  34.683  41.141  1.00  0.00    -0.363 OA
BRANCH  17  18
HETATM   18  C2  UNL     1      11.818  35.933  41.017  1.00  0.00     0.170 C 
HETATM   19  C1  UNL     1      12.319  36.922  42.066  1.00  0.00     0.034 C 
ENDBRANCH  17  18
ENDBRANCH  16  17
ENDBRANCH  15  16
ENDBRANCH   1  15
TORSDOF 7
ENDMDL
MODEL 4
REMARK VINA RESULT: -6.114010089      2.600      3.778
REMARK  7 active torsions:
REMARK  status: ('A' for Active; 'I' for Inactive)
REMARK    1  A    between atoms: C2_2  and  O1_3 
REMARK    2  A    between atoms: O1_3  and  C3_4 
REMARK    3  A    between atoms: C3_4  and  C4_5 
REMARK    4  A    between atoms: C4_5  and  C5_6 
REMARK    5  A    between atoms: C7_12  and  C8_13 
REMARK    6  A    between atoms: C8_13  and  N3_14 
REMARK    7  A    between atoms: N3_14  and  C9_16 
ROOT
HETATM    1  C5  UNL     1      11.461  32.799  38.282  1.00  0.00     0.059 A 
HETATM    2  N1  UNL     1      11.125  31.505  38.181  1.00  0.00    -0.351 N 
ATOM      3  H1  UNL     1      10.232  31.165  37.823  1.00  0.00     0.166 HD
HETATM    4  C6  UNL     1      12.123  30.718  38.614  1.00  0.00     0.181 A 
HETATM    5  N2  UNL     1      13.139  31.535  39.011  1.00  0.00    -0.352 N 
ATOM      6  H2  UNL     1      14.037  31.234  39.389  1.00  0.00     0.166 HD
HETATM    7  C7  UNL     1      12.755  32.803  38.816  1.00  0.00     0.055 A 
ENDROOT
BRANCH   7   8
HETATM    8  C8  UNL     1      13.505  34.029  39.095  1.00  0.00     0.179 C 
BRANCH   8   9
HETATM    9  N3  UNL     1      14.142  33.989  40.378  1.00  0.00    -0.381 N 
ATOM     10  H3  UNL     1      14.139  33.103  40.884  1.00  0.00     0.160 HD
BRANCH   9  11
HETATM   11  C9  UNL     1      14.776  35.096  40.989  1.00  0.00     0.169 C 
HETATM   12  N4  UNL     1      16.018  35.091  41.348  1.00  0.00    -0.396 N 
ATOM     13  H42 UNL     1      16.553  34.240  41.175  1.00  0.00     0.156 HD
ATOM     14  H41 UNL     1      16.475  35.890  41.789  1.00  0.00     0.156 HD
ENDBRANCH   9  11
ENDBRANCH   8   9
ENDBRANCH   7   8
BRANCH   1  15
HETATM   15  C4  UNL     1      10.688  33.980  37.929  1.00  0.00     0.055 C 
BRANCH  15  16
HETATM   16  C3  UNL     1       9.822  34.498  38.782  1.00  0.00     0.137 C 
BRANCH  16  17
HETATM   17  O1  UNL     1       9.488  33.900  39.974  1.00  0.00    -0.363 OA
BRANCH  17  18
HETATM   18  C2  UNL     1       9.645  34.619  41.182  1.00  0.00     0.170 C 
HETATM   19  C1  UNL     1      10.855  35.547  41.118  1.00  0.00     0.034 C 
ENDBRANCH  17  18
ENDBRANCH  16  17
ENDBRANCH  15  16
ENDBRANCH   1  15
TORSDOF 7
ENDMDL
MODEL 5
REMARK VINA RESULT: -6.099053829      3.123      5.069
REMARK  7 active torsions:
REMARK  status: ('A' for Active; 'I' for Inactive)
REMARK    1  A    between atoms: C2_2  and  O1_3 
REMARK    2  A    between atoms: O1_3  and  C3_4 
REMARK    3  A    between atoms: C3_4  and  C4_5 
REMARK    4  A    between atoms: C4_5  and  C5_6 
REMARK    5  A    between atoms: C7_12  and  C8_13 
REMARK    6  A    between atoms: C8_13  and  N3_14 
REMARK    7  A    between atoms: N3_14  and  C9_16 
ROOT
HETATM    1  C5  UNL     1      12.937  31.146  37.998  1.00  0.00     0.059 A 
HETATM    2  N1  UNL     1      13.160  31.776  39.159  1.00  0.00    -0.351 N 
ATOM      3  H1  UNL     1      13.520  31.327  40.002  1.00  0.00     0.166 HD
HETATM    4  C6  UNL     1      12.845  33.079  39.064  1.00  0.00     0.181 A 
HETATM    5  N2  UNL     1      12.402  33.295  37.793  1.00  0.00    -0.352 N 
ATOM      6  H2  UNL     1      12.088  34.188  37.412  1.00  0.00     0.166 HD
HETATM    7  C7  UNL     1      12.451  32.132  37.131  1.00  0.00     0.055 A 
ENDROOT
BRANCH   7   8
HETATM    8  C8  UNL     1      12.072  31.865  35.741  1.00  0.00     0.179 C 
BRANCH   8   9
HETATM    9  N3  UNL     1      12.942  32.525  34.812  1.00  0.00    -0.381 N 
ATOM     10  H3  UNL     1      12.588  33.356  34.337  1.00  0.00     0.160 HD
BRANCH   9  11
HETATM   11  C9  UNL     1      14.256  32.101  34.510  1.00  0.00     0.169 C 
HETATM   12  N4  UNL     1      15.077  32.796  33.793  1.00  0.00    -0.396 N 
ATOM     13  H42 UNL     1      14.744  33.692  33.435  1.00  0.00     0.156 HD
ATOM     14  H41 UNL     1      16.026  32.490  33.575  1.00  0.00     0.156 HD
ENDBRANCH   9  11
ENDBRANCH   8   9
ENDBRANCH   7   8
BRANCH   1  15
HETATM   15  C4  UNL     1      13.138  29.746  37.657  1.00  0.00     0.055 C 
BRANCH  15  16
HETATM   16  C3  UNL     1      14.298  29.328  37.181  1.00  0.00     0.137 C 
BRANCH  16  17
HETATM   17  O1  UNL     1      15.255  28.715  37.955  1.00  0.00    -0.363 OA
BRANCH  17  18
HETATM   18  C2  UNL     1      16.019  27.656  37.411  1.00  0.00     0.170 C 
HETATM   19  C1  UNL     1      15.312  27.026  36.214  1.00  0.00     0.034 C 
ENDBRANCH  17  18
ENDBRANCH  16  17
ENDBRANCH  15  16
ENDBRANCH   1  15
TORSDOF 7
ENDMDL
