MODEL 1
REMARK VINA RESULT: -6.089549403      0.000      0.000
REMARK  6 active torsions:
REMARK  status: ('A' for Active; 'I' for Inactive)
REMARK    1  A    between atoms: N1_2  and  C2_5 
REMARK    2  A    between atoms: C2_5  and  C3_6 
REMARK    3  A    between atoms: C3_6  and  N2_7 
REMARK    4  A    between atoms: N2_7  and  C4_10 
REMARK    5  A    between atoms: C4_10  and  C5_11 
REMARK    6  A    between atoms: C5_11  and  C6_12 
ROOT
HETATM    1  C4  UNL     1      11.482  32.584  37.347  1.00  0.00     0.232 C 
ENDROOT
BRANCH   1   2
HETATM    2  N2  UNL     1      12.923  32.610  37.152  1.00  0.00    -0.074 N 
ATOM      3  H22 UNL     1      13.401  32.778  38.037  1.00  0.00     0.277 HD
ATOM      4  H21 UNL     1      13.200  33.449  36.643  1.00  0.00     0.277 HD
BRANCH   2   5
HETATM    5  C3  UNL     1      13.445  31.444  36.515  1.00  0.00     0.259 C 
BRANCH   5   6
HETATM    6  C2  UNL     1      12.453  30.969  35.471  1.00  0.00     0.259 C 
BRANCH   6   7
HETATM    7  N1  UNL     1      12.233  29.540  35.536  1.00  0.00    -0.077 N 
HETATM    8  C1  UNL     1      13.453  28.950  36.057  1.00  0.00     0.267 C 
ATOM      9  H12 UNL     1      11.940  29.138  34.646  1.00  0.00     0.276 HD
ATOM     10  H11 UNL     1      11.403  29.286  36.072  1.00  0.00     0.276 HD
ENDBRANCH   6   7
ENDBRANCH   5   6
ENDBRANCH   2   5
ENDBRANCH   1   2
BRANCH   1  11
HETATM   11  C5  UNL     1      11.050  32.738  38.762  1.00  0.00     0.032 C 
BRANCH  11  12
HETATM   12  C6  UNL     1      10.138  33.902  38.946  1.00  0.00    -0.010 C 
HETATM   13  C7  UNL     1      10.673  35.161  38.276  1.00  0.00     0.032 C 
HETATM   14  C8  UNL     1      11.815  35.782  39.039  1.00  0.00     0.232 C 
HETATM   15  N3  UNL     1      11.387  36.017  40.400  1.00  0.00    -0.075 N 
HETATM   16  C9  UNL     1      11.144  34.713  41.042  1.00  0.00     0.232 C 
ATOM     17  H32 UNL     1      12.043  36.596  40.923  1.00  0.00     0.277 HD
ATOM     18  H31 UNL     1      10.580  36.639  40.456  1.00  0.00     0.277 HD
HETATM   19  C10 UNL     1       9.867  34.195  40.377  1.00  0.00     0.032 C 
ENDBRANCH  11  12
ENDBRANCH   1  11
TORSDOF 6
ENDMDL
MODEL 2
REMARK VINA RESULT: -6.059805765      0.948      1.179
REMARK  6 active torsions:
REMARK  status: ('A' for Active; 'I' for Inactive)
REMARK    1  A    between atoms: N1_2  and  C2_5 
REMARK    2  A    between atoms: C2_5  and  C3_6 
REMARK    3  A    between atoms: C3_6  and  N2_7 
REMARK    4  A    between atoms: N2_7  and  C4_10 
REMARK    5  A    between atoms: C4_10  and  C5_11 
REMARK    6  A    between atoms: C5_11  and  C6_12 
ROOT
HETATM    1  C4  UNL     1      11.413  32.543  37.407  1.00  0.00     0.232 C 
ENDROOT
BRANCH   1   2
HETATM    2  N2  UNL     1      11.821  32.825  36.040  1.00  0.00    -0.074 N 
ATOM      3  H22 UNL     1      12.376  33.680  36.002  1.00  0.00     0.277 HD
ATOM      4  H21 UNL     1      11.020  33.114  35.479  1.00  0.00     0.277 HD
BRANCH   2   5
HETATM    5  C3  UNL     1      12.514  31.750  35.406  1.00  0.00     0.259 C 
BRANCH   5   6
HETATM    6  C2  UNL     1      12.330  30.492  36.232  1.00  0.00     0.259 C 
BRANCH   6   7
HETATM    7  N1  UNL     1      12.393  29.293  35.424  1.00  0.00    -0.077 N 
HETATM    8  C1  UNL     1      13.642  28.629  35.752  1.00  0.00     0.267 C 
ATOM      9  H12 UNL     1      12.286  29.476  34.426  1.00  0.00     0.276 HD
ATOM     10  H11 UNL     1      11.577  28.691  35.534  1.00  0.00     0.276 HD
ENDBRANCH   6   7
ENDBRANCH   5   6
ENDBRANCH   2   5
ENDBRANCH   1   2
BRANCH   1  11
HETATM   11  C5  UNL     1      11.859  33.553  38.403  1.00  0.00     0.032 C 
BRANCH  11  12
HETATM   12  C6  UNL     1      10.907  34.694  38.509  1.00  0.00    -0.010 C 
HETATM   13  C7  UNL     1      11.553  35.922  39.138  1.00  0.00     0.032 C 
HETATM   14  C8  UNL     1      11.737  35.782  40.627  1.00  0.00     0.232 C 
HETATM   15  N3  UNL     1      10.458  35.462  41.222  1.00  0.00    -0.075 N 
HETATM   16  C9  UNL     1      10.045  34.130  40.746  1.00  0.00     0.232 C 
ATOM     17  H32 UNL     1      10.471  35.529  42.239  1.00  0.00     0.277 HD
ATOM     18  H31 UNL     1       9.753  36.178  41.045  1.00  0.00     0.277 HD
HETATM   19  C10 UNL     1       9.682  34.348  39.275  1.00  0.00     0.032 C 
ENDBRANCH  11  12
ENDBRANCH   1  11
TORSDOF 6
ENDMDL
MODEL 3
REMARK VINA RESULT: -6.031342634      1.071      1.365
REMARK  6 active torsions:
REMARK  status: ('A' for Active; 'I' for Inactive)
REMARK    1  A    between atoms: N1_2  and  C2_5 
REMARK    2  A    between atoms: C2_5  and  C3_6 
REMARK    3  A    between atoms: C3_6  and  N2_7 
REMARK    4  A    between atoms: N2_7  and  C4_10 
REMARK    5  A    between atoms: C4_10  and  C5_11 
REMARK    6  A    between atoms: C5_11  and  C6_12 
ROOT
HETATM    1  C4  UNL     1      10.762  31.730  38.573  1.00  0.00     0.232 C 
ENDROOT
BRANCH   1   2
HETATM    2  N2  UNL     1      11.746  30.675  38.757  1.00  0.00    -0.074 N 
ATOM      3  H22 UNL     1      11.289  29.766  38.827  1.00  0.00     0.277 HD
ATOM      4  H21 UNL     1      12.162  30.731  39.687  1.00  0.00     0.277 HD
BRANCH   2   5
HETATM    5  C3  UNL     1      12.763  30.647  37.756  1.00  0.00     0.259 C 
BRANCH   5   6
HETATM    6  C2  UNL     1      12.551  29.432  36.874  1.00  0.00     0.259 C 
BRANCH   6   7
HETATM    7  N1  UNL     1      12.008  29.785  35.580  1.00  0.00    -0.077 N 
HETATM    8  C1  UNL     1      12.761  30.933  35.106  1.00  0.00     0.267 C 
ATOM      9  H12 UNL     1      11.001  29.945  35.596  1.00  0.00     0.276 HD
ATOM     10  H11 UNL     1      12.005  29.007  34.920  1.00  0.00     0.276 HD
ENDBRANCH   6   7
ENDBRANCH   5   6
ENDBRANCH   2   5
ENDBRANCH   1   2
BRANCH   1  11
HETATM   11  C5  UNL     1      11.340  33.064  38.262  1.00  0.00     0.032 C 
BRANCH  11  12
HETATM   12  C6  UNL     1      10.376  34.168  38.529  1.00  0.00    -0.010 C 
HETATM   13  C7  UNL     1      10.967  35.535  38.204  1.00  0.00     0.032 C 
HETATM   14  C8  UNL     1      11.965  35.994  39.235  1.00  0.00     0.232 C 
HETATM   15  N3  UNL     1      11.336  35.958  40.536  1.00  0.00    -0.075 N 
HETATM   16  C9  UNL     1      11.040  34.554  40.869  1.00  0.00     0.232 C 
ATOM     17  H32 UNL     1      11.891  36.424  41.253  1.00  0.00     0.277 HD
ATOM     18  H31 UNL     1      10.511  36.557  40.590  1.00  0.00     0.277 HD
HETATM   19  C10 UNL     1       9.890  34.175  39.933  1.00  0.00     0.032 C 
ENDBRANCH  11  12
ENDBRANCH   1  11
TORSDOF 6
ENDMDL
MODEL 4
REMARK VINA RESULT: -5.959865838      1.517      2.051
REMARK  6 active torsions:
REMARK  status: ('A' for Active; 'I' for Inactive)
REMARK    1  A    between atoms: N1_2  and  C2_5 
REMARK    2  A    between atoms: C2_5  and  C3_6 
REMARK    3  A    between atoms: C3_6  and  N2_7 
REMARK    4  A    between atoms: N2_7  and  C4_10 
REMARK    5  A    between atoms: C4_10  and  C5_11 
REMARK    6  A    between atoms: C5_11  and  C6_12 
ROOT
HETATM    1  C4  UNL     1      11.605  32.490  37.718  1.00  0.00     0.232 C 
ENDROOT
BRANCH   1   2
HETATM    2  N2  UNL     1      11.757  32.772  36.299  1.00  0.00    -0.074 N 
ATOM      3  H22 UNL     1      12.168  33.695  36.160  1.00  0.00     0.277 HD
ATOM      4  H21 UNL     1      10.847  32.922  35.864  1.00  0.00     0.277 HD
BRANCH   2   5
HETATM    5  C3  UNL     1      12.496  31.783  35.584  1.00  0.00     0.259 C 
BRANCH   5   6
HETATM    6  C2  UNL     1      13.943  31.830  36.035  1.00  0.00     0.259 C 
BRANCH   6   7
HETATM    7  N1  UNL     1      14.780  32.562  35.108  1.00  0.00    -0.077 N 
HETATM    8  C1  UNL     1      14.266  32.296  33.776  1.00  0.00     0.267 C 
ATOM      9  H12 UNL     1      15.772  32.347  35.206  1.00  0.00     0.276 HD
ATOM     10  H11 UNL     1      14.842  33.558  35.323  1.00  0.00     0.276 HD
ENDBRANCH   6   7
ENDBRANCH   5   6
ENDBRANCH   2   5
ENDBRANCH   1   2
BRANCH   1  11
HETATM   11  C5  UNL     1      12.009  33.606  38.614  1.00  0.00     0.032 C 
BRANCH  11  12
HETATM   12  C6  UNL     1      11.000  34.702  38.635  1.00  0.00    -0.010 C 
HETATM   13  C7  UNL     1      11.527  35.953  39.326  1.00  0.00     0.032 C 
HETATM   14  C8  UNL     1      11.579  35.808  40.825  1.00  0.00     0.232 C 
HETATM   15  N3  UNL     1      10.267  35.426  41.297  1.00  0.00    -0.075 N 
HETATM   16  C9  UNL     1       9.962  34.080  40.780  1.00  0.00     0.232 C 
ATOM     17  H32 UNL     1      10.183  35.485  42.312  1.00  0.00     0.277 HD
ATOM     18  H31 UNL     1       9.550  36.110  41.059  1.00  0.00     0.277 HD
HETATM   19  C10 UNL     1       9.727  34.294  39.283  1.00  0.00     0.032 C 
ENDBRANCH  11  12
ENDBRANCH   1  11
TORSDOF 6
ENDMDL
MODEL 5
REMARK VINA RESULT: -5.927109072      0.933      1.261
REMARK  6 active torsions:
REMARK  status: ('A' for Active; 'I' for Inactive)
REMARK    1  A    between atoms: N1_2  and  C2_5 
REMARK    2  A    between atoms: C2_5  and  C3_6 
REMARK    3  A    between atoms: C3_6  and  N2_7 
REMARK    4  A    between atoms: N2_7  and  C4_10 
REMARK    5  A    between atoms: C4_10  and  C5_11 
REMARK    6  A    between atoms: C5_11  and  C6_12 
ROOT
HETATM    1  C4  UNL     1      11.754  32.614  37.468  1.00  0.00     0.232 C 
ENDROOT
BRANCH   1   2
HETATM    2  N2  UNL     1      13.208  32.597  37.443  1.00  0.00    -0.074 N 
ATOM      3  H22 UNL     1      13.577  32.249  38.327  1.00  0.00     0.277 HD
ATOM      4  H21 UNL     1      13.577  33.547  37.464  1.00  0.00     0.277 HD
BRANCH   2   5
HETATM    5  C3  UNL     1      13.763  31.869  36.348  1.00  0.00     0.259 C 
BRANCH   5   6
HETATM    6  C2  UNL     1      12.648  31.133  35.632  1.00  0.00     0.259 C 
BRANCH   6   7
HETATM    7  N1  UNL     1      12.802  31.173  34.193  1.00  0.00    -0.077 N 
HETATM    8  C1  UNL     1      13.821  32.167  33.907  1.00  0.00     0.267 C 
ATOM      9  H12 UNL     1      11.925  31.344  33.701  1.00  0.00     0.276 HD
ATOM     10  H11 UNL     1      13.004  30.260  33.786  1.00  0.00     0.276 HD
ENDBRANCH   6   7
ENDBRANCH   5   6
ENDBRANCH   2   5
ENDBRANCH   1   2
BRANCH   1  11
HETATM   11  C5  UNL     1      11.163  32.762  38.824  1.00  0.00     0.032 C 
BRANCH  11  12
HETATM   12  C6  UNL     1      10.244  33.931  38.911  1.00  0.00    -0.010 C 
HETATM   13  C7  UNL     1      10.852  35.185  38.296  1.00  0.00     0.032 C 
HETATM   14  C8  UNL     1      11.912  35.803  39.171  1.00  0.00     0.232 C 
HETATM   15  N3  UNL     1      11.348  36.045  40.480  1.00  0.00    -0.075 N 
HETATM   16  C9  UNL     1      11.034  34.744  41.097  1.00  0.00     0.232 C 
ATOM     17  H32 UNL     1      11.951  36.622  41.066  1.00  0.00     0.277 HD
ATOM     18  H31 UNL     1      10.543  36.670  40.451  1.00  0.00     0.277 HD
HETATM   19  C10 UNL     1       9.828  34.230  40.306  1.00  0.00     0.032 C 
ENDBRANCH  11  12
ENDBRANCH   1  11
TORSDOF 6
ENDMDL
