MODEL 1
REMARK VINA RESULT: -8.194166819      0.000      0.000
REMARK  8 active torsions:
REMARK  status: ('A' for Active; 'I' for Inactive)
REMARK    1  A    between atoms: C2_2  and  C5_7 
REMARK    2  A    between atoms: C3_3  and  C4_4 
REMARK    3  A    between atoms: C4_4  and  O1_5 
REMARK    4  A    between atoms: C5_7  and  O3_9 
REMARK    5  A    between atoms: O3_9  and  C6_10 
REMARK    6  A    between atoms: C6_10  and  C7_11 
REMARK    7  A    between atoms: C7_11  and  C8_13 
REMARK    8  A    between atoms: C23_29  and  O6_30 
ROOT
HETATM    1  C8  UNL     1       7.175   9.357  22.558  1.00  0.00     0.074 C 
HETATM    2  C9  UNL     1       7.648  10.469  21.769  1.00  0.00     0.013 C 
HETATM    3  C10 UNL     1       7.424  10.363  20.288  1.00  0.00     0.002 C 
HETATM    4  C11 UNL     1       6.673   9.260  19.773  1.00  0.00     0.011 C 
HETATM    5  C12 UNL     1       5.985   8.256  20.716  1.00  0.00    -0.028 C 
HETATM    6  C13 UNL     1       4.840   9.101  21.245  1.00  0.00     0.016 C 
HETATM    7  C14 UNL     1       5.580   7.123  19.861  1.00  0.00     0.017 C 
HETATM    8  C15 UNL     1       4.077   7.143  19.461  1.00  0.00     0.084 C 
HETATM    9  C16 UNL     1       3.171   6.677  20.497  1.00  0.00     0.131 C 
HETATM   10  O5  UNL     1       1.995   6.874  20.133  1.00  0.00    -0.298 OA
HETATM   11  C17 UNL     1       3.209   6.058  21.818  1.00  0.00     0.116 C 
HETATM   12  C18 UNL     1       4.593   5.454  22.142  1.00  0.00    -0.031 C 
HETATM   13  C19 UNL     1       5.367   6.258  23.057  1.00  0.00     0.003 C 
HETATM   14  C20 UNL     1       6.576   7.021  22.862  1.00  0.00    -0.015 C 
HETATM   15  C21 UNL     1       6.920   8.000  21.848  1.00  0.00    -0.008 C 
HETATM   16  C22 UNL     1       8.273   7.683  21.222  1.00  0.00     0.021 C 
HETATM   17  C23 UNL     1       5.109   4.891  20.900  1.00  0.00     0.153 A 
HETATM   18  C24 UNL     1       6.549   4.779  20.771  1.00  0.00     0.174 A 
HETATM   19  O7  UNL     1       7.519   4.168  21.202  1.00  0.00    -0.294 OA
HETATM   20  C25 UNL     1       5.884   5.729  19.959  1.00  0.00     0.111 A 
ENDROOT
BRANCH   1  21
HETATM   21  C7  UNL     1       8.092   9.167  23.703  1.00  0.00     0.176 C 
HETATM   22  O4  UNL     1       7.614   9.043  24.863  1.00  0.00    -0.291 OA
BRANCH  21  23
HETATM   23  C6  UNL     1       9.549   9.100  23.699  1.00  0.00     0.196 C 
BRANCH  23  24
HETATM   24  O3  UNL     1      10.313   8.443  24.578  1.00  0.00    -0.284 OA
BRANCH  24  25
HETATM   25  C5  UNL     1      10.968   8.690  25.733  1.00  0.00     0.293 C 
HETATM   26  O2  UNL     1      11.385   9.864  25.890  1.00  0.00    -0.259 OA
BRANCH  25  27
HETATM   27  C2  UNL     1      11.150   7.614  26.707  1.00  0.00     0.012 C 
HETATM   28  C1  UNL     1       9.915   6.929  27.278  1.00  0.00     0.054 C 
HETATM   29  C3  UNL     1      12.289   7.167  27.151  1.00  0.00     0.011 C 
BRANCH  29  30
HETATM   30  C4  UNL     1      13.660   7.572  26.838  1.00  0.00     0.192 C 
BRANCH  30  31
HETATM   31  O1  UNL     1      13.855   7.341  25.452  1.00  0.00    -0.397 OA
ATOM     32  H1  UNL     1      14.409   6.573  25.372  1.00  0.00     0.209 HD
ENDBRANCH  30  31
ENDBRANCH  29  30
ENDBRANCH  25  27
ENDBRANCH  24  25
ENDBRANCH  23  24
ENDBRANCH  21  23
ENDBRANCH   1  21
BRANCH  17  33
HETATM   33  O6  UNL     1       4.319   3.828  20.377  1.00  0.00    -0.377 OA
ATOM     34  H6  UNL     1       4.152   3.897  19.444  1.00  0.00     0.211 HD
ENDBRANCH  17  33
TORSDOF 8
ENDMDL
MODEL 2
REMARK VINA RESULT: -8.072386002      2.269      3.896
REMARK  8 active torsions:
REMARK  status: ('A' for Active; 'I' for Inactive)
REMARK    1  A    between atoms: C2_2  and  C5_7 
REMARK    2  A    between atoms: C3_3  and  C4_4 
REMARK    3  A    between atoms: C4_4  and  O1_5 
REMARK    4  A    between atoms: C5_7  and  O3_9 
REMARK    5  A    between atoms: O3_9  and  C6_10 
REMARK    6  A    between atoms: C6_10  and  C7_11 
REMARK    7  A    between atoms: C7_11  and  C8_13 
REMARK    8  A    between atoms: C23_29  and  O6_30 
ROOT
HETATM    1  C8  UNL     1       5.835   6.789  22.392  1.00  0.00     0.074 C 
HETATM    2  C9  UNL     1       4.724   7.572  22.878  1.00  0.00     0.013 C 
HETATM    3  C10 UNL     1       3.358   7.051  22.536  1.00  0.00     0.002 C 
HETATM    4  C11 UNL     1       3.237   5.790  21.876  1.00  0.00     0.011 C 
HETATM    5  C12 UNL     1       4.468   4.900  21.625  1.00  0.00    -0.028 C 
HETATM    6  C13 UNL     1       4.755   4.408  23.033  1.00  0.00     0.016 C 
HETATM    7  C14 UNL     1       4.020   3.859  20.681  1.00  0.00     0.017 C 
HETATM    8  C15 UNL     1       3.691   2.497  21.355  1.00  0.00     0.084 C 
HETATM    9  C16 UNL     1       4.853   1.690  21.683  1.00  0.00     0.131 C 
HETATM   10  O5  UNL     1       4.492   0.700  22.350  1.00  0.00    -0.298 OA
HETATM   11  C17 UNL     1       6.299   1.678  21.479  1.00  0.00     0.116 C 
HETATM   12  C18 UNL     1       6.739   2.649  20.362  1.00  0.00    -0.031 C 
HETATM   13  C19 UNL     1       7.332   3.866  20.864  1.00  0.00     0.003 C 
HETATM   14  C20 UNL     1       6.866   5.230  20.837  1.00  0.00    -0.015 C 
HETATM   15  C21 UNL     1       5.588   5.798  21.222  1.00  0.00    -0.008 C 
HETATM   16  C22 UNL     1       5.039   6.699  20.123  1.00  0.00     0.021 C 
HETATM   17  C23 UNL     1       5.712   2.598  19.328  1.00  0.00     0.153 A 
HETATM   18  C24 UNL     1       5.569   3.763  18.478  1.00  0.00     0.174 A 
HETATM   19  O7  UNL     1       6.130   4.394  17.590  1.00  0.00    -0.294 OA
HETATM   20  C25 UNL     1       4.531   3.484  19.398  1.00  0.00     0.111 A 
ENDROOT
BRANCH   1  21
HETATM   21  C7  UNL     1       6.947   7.704  22.056  1.00  0.00     0.176 C 
HETATM   22  O4  UNL     1       6.725   8.701  21.317  1.00  0.00    -0.291 OA
BRANCH  21  23
HETATM   23  C6  UNL     1       8.344   7.626  22.470  1.00  0.00     0.196 C 
BRANCH  23  24
HETATM   24  O3  UNL     1       8.790   7.465  23.720  1.00  0.00    -0.284 OA
BRANCH  24  25
HETATM   25  C5  UNL     1       8.954   8.203  24.839  1.00  0.00     0.293 C 
HETATM   26  O2  UNL     1       7.901   8.615  25.387  1.00  0.00    -0.259 OA
BRANCH  25  27
HETATM   27  C2  UNL     1      10.302   8.473  25.339  1.00  0.00     0.012 C 
HETATM   28  C1  UNL     1      11.119   9.576  24.676  1.00  0.00     0.054 C 
HETATM   29  C3  UNL     1      10.896   7.853  26.317  1.00  0.00     0.011 C 
BRANCH  29  30
HETATM   30  C4  UNL     1      10.433   6.761  27.173  1.00  0.00     0.192 C 
BRANCH  30  31
HETATM   31  O1  UNL     1       9.368   7.270  27.960  1.00  0.00    -0.397 OA
ATOM     32  H1  UNL     1       9.033   6.547  28.477  1.00  0.00     0.209 HD
ENDBRANCH  30  31
ENDBRANCH  29  30
ENDBRANCH  25  27
ENDBRANCH  24  25
ENDBRANCH  23  24
ENDBRANCH  21  23
ENDBRANCH   1  21
BRANCH  17  33
HETATM   33  O6  UNL     1       5.572   1.319  18.718  1.00  0.00    -0.377 OA
ATOM     34  H6  UNL     1       5.007   1.318  17.954  1.00  0.00     0.211 HD
ENDBRANCH  17  33
TORSDOF 8
ENDMDL
MODEL 3
REMARK VINA RESULT: -8.063159624      2.559      6.911
REMARK  8 active torsions:
REMARK  status: ('A' for Active; 'I' for Inactive)
REMARK    1  A    between atoms: C2_2  and  C5_7 
REMARK    2  A    between atoms: C3_3  and  C4_4 
REMARK    3  A    between atoms: C4_4  and  O1_5 
REMARK    4  A    between atoms: C5_7  and  O3_9 
REMARK    5  A    between atoms: O3_9  and  C6_10 
REMARK    6  A    between atoms: C6_10  and  C7_11 
REMARK    7  A    between atoms: C7_11  and  C8_13 
REMARK    8  A    between atoms: C23_29  and  O6_30 
ROOT
HETATM    1  C8  UNL     1       4.552   5.961  21.650  1.00  0.00     0.074 C 
HETATM    2  C9  UNL     1       3.184   6.367  21.869  1.00  0.00     0.013 C 
HETATM    3  C10 UNL     1       2.992   7.761  22.391  1.00  0.00     0.002 C 
HETATM    4  C11 UNL     1       4.127   8.620  22.523  1.00  0.00     0.011 C 
HETATM    5  C12 UNL     1       5.516   8.186  22.022  1.00  0.00    -0.028 C 
HETATM    6  C13 UNL     1       5.318   8.279  20.519  1.00  0.00     0.016 C 
HETATM    7  C14 UNL     1       6.465   9.165  22.587  1.00  0.00     0.017 C 
HETATM    8  C15 UNL     1       6.905  10.267  21.582  1.00  0.00     0.084 C 
HETATM    9  C16 UNL     1       7.917   9.846  20.629  1.00  0.00     0.131 C 
HETATM   10  O5  UNL     1       8.086  10.747  19.783  1.00  0.00    -0.298 OA
HETATM   11  C17 UNL     1       8.788   8.707  20.355  1.00  0.00     0.116 C 
HETATM   12  C18 UNL     1       8.895   7.750  21.562  1.00  0.00    -0.031 C 
HETATM   13  C19 UNL     1       8.119   6.543  21.405  1.00  0.00     0.003 C 
HETATM   14  C20 UNL     1       6.940   6.077  22.093  1.00  0.00    -0.015 C 
HETATM   15  C21 UNL     1       5.682   6.746  22.369  1.00  0.00    -0.008 C 
HETATM   16  C22 UNL     1       5.307   6.614  23.840  1.00  0.00     0.021 C 
HETATM   17  C23 UNL     1       8.896   8.580  22.761  1.00  0.00     0.153 A 
HETATM   18  C24 UNL     1       8.430   7.969  23.990  1.00  0.00     0.174 A 
HETATM   19  O7  UNL     1       8.724   7.128  24.830  1.00  0.00    -0.294 OA
HETATM   20  C25 UNL     1       7.624   8.973  23.404  1.00  0.00     0.111 A 
ENDROOT
BRANCH   1  21
HETATM   21  C7  UNL     1       4.669   4.516  21.948  1.00  0.00     0.176 C 
HETATM   22  O4  UNL     1       4.560   4.120  23.139  1.00  0.00    -0.291 OA
BRANCH  21  23
HETATM   23  C6  UNL     1       4.908   3.415  21.021  1.00  0.00     0.196 C 
BRANCH  23  24
HETATM   24  O3  UNL     1       6.100   2.928  20.663  1.00  0.00    -0.284 OA
BRANCH  24  25
HETATM   25  C5  UNL     1       6.698   1.727  20.506  1.00  0.00     0.293 C 
HETATM   26  O2  UNL     1       7.127   1.184  21.553  1.00  0.00    -0.259 OA
BRANCH  25  27
HETATM   27  C2  UNL     1       6.809   1.142  19.169  1.00  0.00     0.012 C 
HETATM   28  C1  UNL     1       5.534   0.873  18.381  1.00  0.00     0.054 C 
HETATM   29  C3  UNL     1       7.915   0.817  18.565  1.00  0.00     0.011 C 
BRANCH  29  30
HETATM   30  C4  UNL     1       9.307   0.927  19.000  1.00  0.00     0.192 C 
BRANCH  30  31
HETATM   31  O1  UNL     1      10.106   0.312  18.002  1.00  0.00    -0.397 OA
ATOM     32  H1  UNL     1       9.636  -0.458  17.704  1.00  0.00     0.209 HD
ENDBRANCH  30  31
ENDBRANCH  29  30
ENDBRANCH  25  27
ENDBRANCH  24  25
ENDBRANCH  23  24
ENDBRANCH  21  23
ENDBRANCH   1  21
BRANCH  17  33
HETATM   33  O6  UNL     1      10.008   9.464  22.849  1.00  0.00    -0.377 OA
ATOM     34  H6  UNL     1       9.899  10.157  23.490  1.00  0.00     0.211 HD
ENDBRANCH  17  33
TORSDOF 8
ENDMDL
MODEL 4
REMARK VINA RESULT: -8.025913156      2.215      3.987
REMARK  8 active torsions:
REMARK  status: ('A' for Active; 'I' for Inactive)
REMARK    1  A    between atoms: C2_2  and  C5_7 
REMARK    2  A    between atoms: C3_3  and  C4_4 
REMARK    3  A    between atoms: C4_4  and  O1_5 
REMARK    4  A    between atoms: C5_7  and  O3_9 
REMARK    5  A    between atoms: O3_9  and  C6_10 
REMARK    6  A    between atoms: C6_10  and  C7_11 
REMARK    7  A    between atoms: C7_11  and  C8_13 
REMARK    8  A    between atoms: C23_29  and  O6_30 
ROOT
HETATM    1  C8  UNL     1       5.736   6.587  22.229  1.00  0.00     0.074 C 
HETATM    2  C9  UNL     1       4.608   7.392  22.635  1.00  0.00     0.013 C 
HETATM    3  C10 UNL     1       3.256   6.863  22.251  1.00  0.00     0.002 C 
HETATM    4  C11 UNL     1       3.159   5.578  21.633  1.00  0.00     0.011 C 
HETATM    5  C12 UNL     1       4.396   4.676  21.472  1.00  0.00    -0.028 C 
HETATM    6  C13 UNL     1       4.617   4.236  22.909  1.00  0.00     0.016 C 
HETATM    7  C14 UNL     1       3.986   3.601  20.548  1.00  0.00     0.017 C 
HETATM    8  C15 UNL     1       3.620   2.266  21.257  1.00  0.00     0.084 C 
HETATM    9  C16 UNL     1       4.763   1.468  21.668  1.00  0.00     0.131 C 
HETATM   10  O5  UNL     1       4.367   0.505  22.354  1.00  0.00    -0.298 OA
HETATM   11  C17 UNL     1       6.216   1.445  21.530  1.00  0.00     0.116 C 
HETATM   12  C18 UNL     1       6.711   2.372  20.399  1.00  0.00    -0.031 C 
HETATM   13  C19 UNL     1       7.287   3.604  20.881  1.00  0.00     0.003 C 
HETATM   14  C20 UNL     1       6.829   4.968  20.782  1.00  0.00    -0.015 C 
HETATM   15  C21 UNL     1       5.537   5.554  21.087  1.00  0.00    -0.008 C 
HETATM   16  C22 UNL     1       5.043   6.415  19.931  1.00  0.00     0.021 C 
HETATM   17  C23 UNL     1       5.732   2.284  19.322  1.00  0.00     0.153 A 
HETATM   18  C24 UNL     1       5.633   3.417  18.423  1.00  0.00     0.174 A 
HETATM   19  O7  UNL     1       6.236   4.012  17.539  1.00  0.00    -0.294 OA
HETATM   20  C25 UNL     1       4.552   3.177  19.304  1.00  0.00     0.111 A 
ENDROOT
BRANCH   1  21
HETATM   21  C7  UNL     1       6.867   7.486  21.910  1.00  0.00     0.176 C 
HETATM   22  O4  UNL     1       6.698   8.420  21.081  1.00  0.00    -0.291 OA
BRANCH  21  23
HETATM   23  C6  UNL     1       8.227   7.455  22.435  1.00  0.00     0.196 C 
BRANCH  23  24
HETATM   24  O3  UNL     1       8.575   7.352  23.722  1.00  0.00    -0.284 OA
BRANCH  24  25
HETATM   25  C5  UNL     1       8.652   8.139  24.817  1.00  0.00     0.293 C 
HETATM   26  O2  UNL     1       7.661   8.880  25.033  1.00  0.00    -0.259 OA
BRANCH  25  27
HETATM   27  C2  UNL     1       9.843   8.088  25.665  1.00  0.00     0.012 C 
HETATM   28  C1  UNL     1       9.774   7.312  26.974  1.00  0.00     0.054 C 
HETATM   29  C3  UNL     1      10.988   8.653  25.412  1.00  0.00     0.011 C 
BRANCH  29  30
HETATM   30  C4  UNL     1      11.420   9.464  24.274  1.00  0.00     0.192 C 
BRANCH  30  31
HETATM   31  O1  UNL     1      11.186  10.820  24.617  1.00  0.00    -0.397 OA
ATOM     32  H1  UNL     1      10.492  11.135  24.049  1.00  0.00     0.209 HD
ENDBRANCH  30  31
ENDBRANCH  29  30
ENDBRANCH  25  27
ENDBRANCH  24  25
ENDBRANCH  23  24
ENDBRANCH  21  23
ENDBRANCH   1  21
BRANCH  17  33
HETATM   33  O6  UNL     1       5.613   0.984  18.754  1.00  0.00    -0.377 OA
ATOM     34  H6  UNL     1       5.604   0.979  17.804  1.00  0.00     0.211 HD
ENDBRANCH  17  33
TORSDOF 8
ENDMDL
MODEL 5
REMARK VINA RESULT: -7.955840367      2.548      7.174
REMARK  8 active torsions:
REMARK  status: ('A' for Active; 'I' for Inactive)
REMARK    1  A    between atoms: C2_2  and  C5_7 
REMARK    2  A    between atoms: C3_3  and  C4_4 
REMARK    3  A    between atoms: C4_4  and  O1_5 
REMARK    4  A    between atoms: C5_7  and  O3_9 
REMARK    5  A    between atoms: O3_9  and  C6_10 
REMARK    6  A    between atoms: C6_10  and  C7_11 
REMARK    7  A    between atoms: C7_11  and  C8_13 
REMARK    8  A    between atoms: C23_29  and  O6_30 
ROOT
HETATM    1  C8  UNL     1       4.546   5.969  21.686  1.00  0.00     0.074 C 
HETATM    2  C9  UNL     1       3.179   6.382  21.904  1.00  0.00     0.013 C 
HETATM    3  C10 UNL     1       2.994   7.781  22.416  1.00  0.00     0.002 C 
HETATM    4  C11 UNL     1       4.133   8.636  22.540  1.00  0.00     0.011 C 
HETATM    5  C12 UNL     1       5.519   8.193  22.040  1.00  0.00    -0.028 C 
HETATM    6  C13 UNL     1       5.320   8.276  20.537  1.00  0.00     0.016 C 
HETATM    7  C14 UNL     1       6.473   9.172  22.596  1.00  0.00     0.017 C 
HETATM    8  C15 UNL     1       6.916  10.265  21.583  1.00  0.00     0.084 C 
HETATM    9  C16 UNL     1       7.925   9.833  20.632  1.00  0.00     0.131 C 
HETATM   10  O5  UNL     1       8.097  10.726  19.779  1.00  0.00    -0.298 OA
HETATM   11  C17 UNL     1       8.791   8.688  20.365  1.00  0.00     0.116 C 
HETATM   12  C18 UNL     1       8.896   7.739  21.579  1.00  0.00    -0.031 C 
HETATM   13  C19 UNL     1       8.114   6.534  21.432  1.00  0.00     0.003 C 
HETATM   14  C20 UNL     1       6.934   6.079  22.125  1.00  0.00    -0.015 C 
HETATM   15  C21 UNL     1       5.680   6.755  22.398  1.00  0.00    -0.008 C 
HETATM   16  C22 UNL     1       5.306   6.636  23.870  1.00  0.00     0.021 C 
HETATM   17  C23 UNL     1       8.902   8.577  22.772  1.00  0.00     0.153 A 
HETATM   18  C24 UNL     1       8.435   7.977  24.006  1.00  0.00     0.174 A 
HETATM   19  O7  UNL     1       8.727   7.141  24.852  1.00  0.00    -0.294 OA
HETATM   20  C25 UNL     1       7.632   8.981  23.414  1.00  0.00     0.111 A 
ENDROOT
BRANCH   1  21
HETATM   21  C7  UNL     1       4.657   4.526  21.994  1.00  0.00     0.176 C 
HETATM   22  O4  UNL     1       4.490   4.133  23.180  1.00  0.00    -0.291 OA
BRANCH  21  23
HETATM   23  C6  UNL     1       4.950   3.424  21.085  1.00  0.00     0.196 C 
BRANCH  23  24
HETATM   24  O3  UNL     1       6.165   2.964  20.766  1.00  0.00    -0.284 OA
BRANCH  24  25
HETATM   25  C5  UNL     1       6.822   1.785  20.722  1.00  0.00     0.293 C 
HETATM   26  O2  UNL     1       7.031   1.230  21.829  1.00  0.00    -0.259 OA
BRANCH  25  27
HETATM   27  C2  UNL     1       7.240   1.235  19.432  1.00  0.00     0.012 C 
HETATM   28  C1  UNL     1       8.729   1.063  19.160  1.00  0.00     0.054 C 
HETATM   29  C3  UNL     1       6.451   0.867  18.465  1.00  0.00     0.011 C 
BRANCH  29  30
HETATM   30  C4  UNL     1       4.992   0.883  18.365  1.00  0.00     0.192 C 
BRANCH  30  31
HETATM   31  O1  UNL     1       4.644   0.124  17.219  1.00  0.00    -0.397 OA
ATOM     32  H1  UNL     1       4.799   0.676  16.461  1.00  0.00     0.209 HD
ENDBRANCH  30  31
ENDBRANCH  29  30
ENDBRANCH  25  27
ENDBRANCH  24  25
ENDBRANCH  23  24
ENDBRANCH  21  23
ENDBRANCH   1  21
BRANCH  17  33
HETATM   33  O6  UNL     1      10.018   9.458  22.852  1.00  0.00    -0.377 OA
ATOM     34  H6  UNL     1      10.857   9.013  22.886  1.00  0.00     0.211 HD
ENDBRANCH  17  33
TORSDOF 8
ENDMDL
