MODEL 1
REMARK VINA RESULT: -7.887554977      0.000      0.000
REMARK  7 active torsions:
REMARK  status: ('A' for Active; 'I' for Inactive)
REMARK    1  A    between atoms: C4_4  and  O1_5 
REMARK    2  A    between atoms: C6_9  and  O3_10 
REMARK    3  A    between atoms: O3_10  and  C7_11 
REMARK    4  A    between atoms: C7_11  and  C8_12 
REMARK    5  A    between atoms: C8_12  and  N1_13 
REMARK    6  A    between atoms: N1_13  and  C10_15 
REMARK    7  A    between atoms: C18_23  and  O4_24 
ROOT
HETATM    1  C1  UNL     1       1.361   8.447  25.772  1.00  0.00     0.010 C 
HETATM    2  C2  UNL     1       2.644   7.702  25.482  1.00  0.00    -0.008 C 
HETATM    3  C3  UNL     1       2.287   6.384  24.748  1.00  0.00     0.048 C 
HETATM    4  C4  UNL     1       2.626   6.740  23.333  1.00  0.00     0.124 A 
HETATM    5  C5  UNL     1       3.772   6.708  22.532  1.00  0.00     0.203 A 
HETATM    6  O2  UNL     1       4.806   5.774  22.411  1.00  0.00    -0.349 OA
HETATM    7  C6  UNL     1       5.903   6.275  21.688  1.00  0.00     0.272 C 
HETATM    8  C16 UNL     1       6.786   7.217  22.345  1.00  0.00     0.048 C 
HETATM    9  C17 UNL     1       6.997   8.527  21.570  1.00  0.00     0.049 C 
HETATM   10  C18 UNL     1       8.386   8.110  21.149  1.00  0.00     0.120 C 
HETATM   11  C19 UNL     1       8.243   6.923  22.052  1.00  0.00     0.049 C 
HETATM   12  C20 UNL     1       6.521   7.585  23.786  1.00  0.00     0.105 C 
HETATM   13  C21 UNL     1       7.839   7.738  24.580  1.00  0.00     0.050 C 
HETATM   14  C22 UNL     1       5.858   8.903  23.989  1.00  0.00     0.042 C 
HETATM   15  C23 UNL     1       4.856   8.941  25.157  1.00  0.00     0.011 C 
HETATM   16  C24 UNL     1       3.536   8.467  24.515  1.00  0.00     0.033 C 
HETATM   17  C25 UNL     1       4.004   7.328  23.744  1.00  0.00     0.162 A 
HETATM   18  O5  UNL     1       4.733   6.537  24.680  1.00  0.00    -0.222 OA
HETATM   19  O6  UNL     1       5.972   6.492  24.406  1.00  0.00    -0.228 OA
ENDROOT
BRANCH   7  20
HETATM   20  O3  UNL     1       5.338   6.768  20.525  1.00  0.00    -0.359 OA
BRANCH  20  21
HETATM   21  C7  UNL     1       5.235   5.931  19.468  1.00  0.00     0.190 C 
BRANCH  21  22
HETATM   22  C8  UNL     1       5.868   4.587  19.534  1.00  0.00     0.143 C 
BRANCH  22  23
HETATM   23  N1  UNL     1       4.869   3.588  19.637  1.00  0.00    -0.410 N 
HETATM   24  C9  UNL     1       3.522   3.981  19.665  1.00  0.00     0.143 C 
BRANCH  23  25
HETATM   25  C10 UNL     1       5.228   2.286  19.237  1.00  0.00     0.078 C 
HETATM   26  C11 UNL     1       6.230   2.236  18.121  1.00  0.00     0.025 C 
HETATM   27  C12 UNL     1       7.320   1.215  18.355  1.00  0.00     0.002 C 
HETATM   28  C13 UNL     1       8.005   1.436  19.679  1.00  0.00     0.000 C 
HETATM   29  C14 UNL     1       7.014   1.398  20.794  1.00  0.00     0.002 C 
HETATM   30  C15 UNL     1       5.597   1.359  20.352  1.00  0.00     0.025 C 
ENDBRANCH  23  25
ENDBRANCH  22  23
ENDBRANCH  21  22
ENDBRANCH  20  21
ENDBRANCH   7  20
BRANCH   4  31
HETATM   31  O1  UNL     1       1.635   7.695  22.939  1.00  0.00    -0.384 OA
ATOM     32  H1  UNL     1       2.086   8.296  22.358  1.00  0.00     0.210 HD
ENDBRANCH   4  31
BRANCH  10  33
HETATM   33  O4  UNL     1       9.431   8.912  21.544  1.00  0.00    -0.396 OA
ATOM     34  H4  UNL     1      10.272   8.493  21.683  1.00  0.00     0.210 HD
ENDBRANCH  10  33
TORSDOF 7
ENDMDL
MODEL 2
REMARK VINA RESULT: -7.684805822      4.743      7.716
REMARK  7 active torsions:
REMARK  status: ('A' for Active; 'I' for Inactive)
REMARK    1  A    between atoms: C4_4  and  O1_5 
REMARK    2  A    between atoms: C6_9  and  O3_10 
REMARK    3  A    between atoms: O3_10  and  C7_11 
REMARK    4  A    between atoms: C7_11  and  C8_12 
REMARK    5  A    between atoms: C8_12  and  N1_13 
REMARK    6  A    between atoms: N1_13  and  C10_15 
REMARK    7  A    between atoms: C18_23  and  O4_24 
ROOT
HETATM    1  C1  UNL     1       9.660   8.835  12.522  1.00  0.00     0.010 C 
HETATM    2  C2  UNL     1       8.255   9.016  13.050  1.00  0.00    -0.008 C 
HETATM    3  C3  UNL     1       7.437   7.745  12.703  1.00  0.00     0.048 C 
HETATM    4  C4  UNL     1       7.429   7.037  14.024  1.00  0.00     0.124 A 
HETATM    5  C5  UNL     1       6.636   7.060  15.175  1.00  0.00     0.203 A 
HETATM    6  O2  UNL     1       5.252   7.152  15.360  1.00  0.00    -0.349 OA
HETATM    7  C6  UNL     1       4.903   7.424  16.695  1.00  0.00     0.272 C 
HETATM    8  C16 UNL     1       5.092   8.770  17.194  1.00  0.00     0.048 C 
HETATM    9  C17 UNL     1       5.929   8.852  18.482  1.00  0.00     0.049 C 
HETATM   10  C18 UNL     1       4.702   9.128  19.317  1.00  0.00     0.120 C 
HETATM   11  C19 UNL     1       3.923   9.227  18.041  1.00  0.00     0.049 C 
HETATM   12  C20 UNL     1       5.611   9.833  16.254  1.00  0.00     0.105 C 
HETATM   13  C21 UNL     1       4.923  11.194  16.508  1.00  0.00     0.050 C 
HETATM   14  C22 UNL     1       7.057  10.160  16.406  1.00  0.00     0.042 C 
HETATM   15  C23 UNL     1       7.779  10.486  15.086  1.00  0.00     0.011 C 
HETATM   16  C24 UNL     1       8.229   9.104  14.570  1.00  0.00     0.033 C 
HETATM   17  C25 UNL     1       7.020   8.328  14.785  1.00  0.00     0.162 A 
HETATM   18  O5  UNL     1       5.989   9.088  14.157  1.00  0.00    -0.222 OA
HETATM   19  O6  UNL     1       5.151   9.542  14.996  1.00  0.00    -0.228 OA
ENDROOT
BRANCH   7  20
HETATM   20  O3  UNL     1       5.589   6.465  17.419  1.00  0.00    -0.359 OA
BRANCH  20  21
HETATM   21  C7  UNL     1       4.942   5.316  17.719  1.00  0.00     0.190 C 
BRANCH  21  22
HETATM   22  C8  UNL     1       5.499   4.019  17.251  1.00  0.00     0.143 C 
BRANCH  22  23
HETATM   23  N1  UNL     1       6.035   3.301  18.349  1.00  0.00    -0.410 N 
HETATM   24  C9  UNL     1       5.986   3.883  19.625  1.00  0.00     0.143 C 
BRANCH  23  25
HETATM   25  C10 UNL     1       6.146   1.904  18.202  1.00  0.00     0.078 C 
HETATM   26  C11 UNL     1       6.922   1.469  16.993  1.00  0.00     0.025 C 
HETATM   27  C12 UNL     1       7.894   0.350  17.291  1.00  0.00     0.002 C 
HETATM   28  C13 UNL     1       8.823   0.715  18.420  1.00  0.00     0.000 C 
HETATM   29  C14 UNL     1       8.046   1.063  19.645  1.00  0.00     0.002 C 
HETATM   30  C15 UNL     1       6.581   1.170  19.431  1.00  0.00     0.025 C 
ENDBRANCH  23  25
ENDBRANCH  22  23
ENDBRANCH  21  22
ENDBRANCH  20  21
ENDBRANCH   7  20
BRANCH   4  31
HETATM   31  O1  UNL     1       8.777   6.600  14.223  1.00  0.00    -0.384 OA
ATOM     32  H1  UNL     1       8.705   5.722  14.578  1.00  0.00     0.210 HD
ENDBRANCH   4  31
BRANCH  10  33
HETATM   33  O4  UNL     1       4.669  10.313  20.014  1.00  0.00    -0.396 OA
ATOM     34  H4  UNL     1       4.317  11.072  19.564  1.00  0.00     0.210 HD
ENDBRANCH  10  33
TORSDOF 7
ENDMDL
MODEL 3
REMARK VINA RESULT: -7.642791258      1.659      4.307
REMARK  7 active torsions:
REMARK  status: ('A' for Active; 'I' for Inactive)
REMARK    1  A    between atoms: C4_4  and  O1_5 
REMARK    2  A    between atoms: C6_9  and  O3_10 
REMARK    3  A    between atoms: O3_10  and  C7_11 
REMARK    4  A    between atoms: C7_11  and  C8_12 
REMARK    5  A    between atoms: C8_12  and  N1_13 
REMARK    6  A    between atoms: N1_13  and  C10_15 
REMARK    7  A    between atoms: C18_23  and  O4_24 
ROOT
HETATM    1  C1  UNL     1       8.173   8.808  24.977  1.00  0.00     0.010 C 
HETATM    2  C2  UNL     1       6.933   8.794  24.113  1.00  0.00    -0.008 C 
HETATM    3  C3  UNL     1       7.374   8.719  22.629  1.00  0.00     0.048 C 
HETATM    4  C4  UNL     1       7.132   7.272  22.328  1.00  0.00     0.124 A 
HETATM    5  C5  UNL     1       6.049   6.499  21.897  1.00  0.00     0.203 A 
HETATM    6  O2  UNL     1       5.048   6.733  20.947  1.00  0.00    -0.349 OA
HETATM    7  C6  UNL     1       3.996   5.804  21.033  1.00  0.00     0.272 C 
HETATM    8  C16 UNL     1       3.045   5.942  22.117  1.00  0.00     0.048 C 
HETATM    9  C17 UNL     1       2.861   4.668  22.958  1.00  0.00     0.049 C 
HETATM   10  C18 UNL     1       1.517   4.391  22.328  1.00  0.00     0.120 C 
HETATM   11  C19 UNL     1       1.621   5.722  21.650  1.00  0.00     0.049 C 
HETATM   12  C20 UNL     1       3.195   7.098  23.078  1.00  0.00     0.105 C 
HETATM   13  C21 UNL     1       1.819   7.673  23.486  1.00  0.00     0.050 C 
HETATM   14  C22 UNL     1       3.810   6.751  24.390  1.00  0.00     0.042 C 
HETATM   15  C23 UNL     1       4.723   7.844  24.976  1.00  0.00     0.011 C 
HETATM   16  C24 UNL     1       6.097   7.543  24.344  1.00  0.00     0.033 C 
HETATM   17  C25 UNL     1       5.714   7.312  22.962  1.00  0.00     0.162 A 
HETATM   18  O5  UNL     1       4.936   8.454  22.609  1.00  0.00    -0.222 OA
HETATM   19  O6  UNL     1       3.723   8.156  22.386  1.00  0.00    -0.228 OA
ENDROOT
BRANCH   7  20
HETATM   20  O3  UNL     1       4.634   4.577  21.011  1.00  0.00    -0.359 OA
BRANCH  20  21
HETATM   21  C7  UNL     1       4.679   3.909  19.836  1.00  0.00     0.190 C 
BRANCH  21  22
HETATM   22  C8  UNL     1       5.864   4.064  18.951  1.00  0.00     0.143 C 
BRANCH  22  23
HETATM   23  N1  UNL     1       6.913   3.224  19.399  1.00  0.00    -0.410 N 
HETATM   24  C9  UNL     1       7.764   3.689  20.414  1.00  0.00     0.143 C 
BRANCH  23  25
HETATM   25  C10 UNL     1       6.766   1.843  19.163  1.00  0.00     0.078 C 
HETATM   26  C11 UNL     1       6.516   1.483  17.728  1.00  0.00     0.025 C 
HETATM   27  C12 UNL     1       7.333   0.297  17.268  1.00  0.00     0.002 C 
HETATM   28  C13 UNL     1       8.804   0.512  17.517  1.00  0.00     0.000 C 
HETATM   29  C14 UNL     1       9.055   0.784  18.962  1.00  0.00     0.002 C 
HETATM   30  C15 UNL     1       7.826   0.980  19.772  1.00  0.00     0.025 C 
ENDBRANCH  23  25
ENDBRANCH  22  23
ENDBRANCH  21  22
ENDBRANCH  20  21
ENDBRANCH   7  20
BRANCH   4  31
HETATM   31  O1  UNL     1       8.126   6.562  23.074  1.00  0.00    -0.384 OA
ATOM     32  H1  UNL     1       7.646   5.908  23.568  1.00  0.00     0.210 HD
ENDBRANCH   4  31
BRANCH  10  33
HETATM   33  O4  UNL     1       0.427   4.343  23.165  1.00  0.00    -0.396 OA
ATOM     34  H4  UNL     1      -0.126   3.572  23.115  1.00  0.00     0.210 HD
ENDBRANCH  10  33
TORSDOF 7
ENDMDL
MODEL 4
REMARK VINA RESULT: -7.492049391      2.432      4.887
REMARK  7 active torsions:
REMARK  status: ('A' for Active; 'I' for Inactive)
REMARK    1  A    between atoms: C4_4  and  O1_5 
REMARK    2  A    between atoms: C6_9  and  O3_10 
REMARK    3  A    between atoms: O3_10  and  C7_11 
REMARK    4  A    between atoms: C7_11  and  C8_12 
REMARK    5  A    between atoms: C8_12  and  N1_13 
REMARK    6  A    between atoms: N1_13  and  C10_15 
REMARK    7  A    between atoms: C18_23  and  O4_24 
ROOT
HETATM    1  C1  UNL     1       8.248   9.950  22.805  1.00  0.00     0.010 C 
HETATM    2  C2  UNL     1       7.653   9.127  21.685  1.00  0.00    -0.008 C 
HETATM    3  C3  UNL     1       8.681   8.040  21.280  1.00  0.00     0.048 C 
HETATM    4  C4  UNL     1       8.105   6.832  21.954  1.00  0.00     0.124 A 
HETATM    5  C5  UNL     1       7.159   5.853  21.635  1.00  0.00     0.203 A 
HETATM    6  O2  UNL     1       6.886   5.163  20.448  1.00  0.00    -0.349 OA
HETATM    7  C6  UNL     1       5.663   4.470  20.497  1.00  0.00     0.272 C 
HETATM    8  C16 UNL     1       4.437   5.231  20.376  1.00  0.00     0.048 C 
HETATM    9  C17 UNL     1       3.433   4.992  21.515  1.00  0.00     0.049 C 
HETATM   10  C18 UNL     1       2.548   4.155  20.623  1.00  0.00     0.120 C 
HETATM   11  C19 UNL     1       3.432   4.541  19.477  1.00  0.00     0.049 C 
HETATM   12  C20 UNL     1       4.520   6.723  20.157  1.00  0.00     0.105 C 
HETATM   13  C21 UNL     1       3.428   7.211  19.177  1.00  0.00     0.050 C 
HETATM   14  C22 UNL     1       4.272   7.554  21.369  1.00  0.00     0.042 C 
HETATM   15  C23 UNL     1       5.124   8.834  21.452  1.00  0.00     0.011 C 
HETATM   16  C24 UNL     1       6.420   8.359  22.142  1.00  0.00     0.033 C 
HETATM   17  C25 UNL     1       6.680   7.130  21.413  1.00  0.00     0.162 A 
HETATM   18  O5  UNL     1       6.632   7.510  20.039  1.00  0.00    -0.222 OA
HETATM   19  O6  UNL     1       5.653   6.980  19.430  1.00  0.00    -0.228 OA
ENDROOT
BRANCH   7  20
HETATM   20  O3  UNL     1       5.744   3.736  21.668  1.00  0.00    -0.359 OA
BRANCH  20  21
HETATM   21  C7  UNL     1       5.711   2.388  21.572  1.00  0.00     0.190 C 
BRANCH  21  22
HETATM   22  C8  UNL     1       6.895   1.662  21.042  1.00  0.00     0.143 C 
BRANCH  22  23
HETATM   23  N1  UNL     1       6.669   1.289  19.695  1.00  0.00    -0.410 N 
HETATM   24  C9  UNL     1       5.349   1.075  19.266  1.00  0.00     0.143 C 
BRANCH  23  25
HETATM   25  C10 UNL     1       7.681   1.607  18.768  1.00  0.00     0.078 C 
HETATM   26  C11 UNL     1       8.999   0.941  19.037  1.00  0.00     0.025 C 
HETATM   27  C12 UNL     1       9.639   0.378  17.789  1.00  0.00     0.002 C 
HETATM   28  C13 UNL     1       8.705  -0.557  17.065  1.00  0.00     0.000 C 
HETATM   29  C14 UNL     1       7.430   0.138  16.723  1.00  0.00     0.002 C 
HETATM   30  C15 UNL     1       7.285   1.485  17.330  1.00  0.00     0.025 C 
ENDBRANCH  23  25
ENDBRANCH  22  23
ENDBRANCH  21  22
ENDBRANCH  20  21
ENDBRANCH   7  20
BRANCH   4  31
HETATM   31  O1  UNL     1       8.298   7.057  23.355  1.00  0.00    -0.384 OA
ATOM     32  H1  UNL     1       8.659   6.246  23.690  1.00  0.00     0.210 HD
ENDBRANCH   4  31
BRANCH  10  33
HETATM   33  O4  UNL     1       1.259   4.591  20.426  1.00  0.00    -0.396 OA
ATOM     34  H4  UNL     1       1.092   5.122  19.656  1.00  0.00     0.210 HD
ENDBRANCH  10  33
TORSDOF 7
ENDMDL
MODEL 5
REMARK VINA RESULT: -7.448405952      1.665      4.178
REMARK  7 active torsions:
REMARK  status: ('A' for Active; 'I' for Inactive)
REMARK    1  A    between atoms: C4_4  and  O1_5 
REMARK    2  A    between atoms: C6_9  and  O3_10 
REMARK    3  A    between atoms: O3_10  and  C7_11 
REMARK    4  A    between atoms: C7_11  and  C8_12 
REMARK    5  A    between atoms: C8_12  and  N1_13 
REMARK    6  A    between atoms: N1_13  and  C10_15 
REMARK    7  A    between atoms: C18_23  and  O4_24 
ROOT
HETATM    1  C1  UNL     1       8.843   9.735  22.928  1.00  0.00     0.010 C 
HETATM    2  C2  UNL     1       7.368   9.414  22.840  1.00  0.00    -0.008 C 
HETATM    3  C3  UNL     1       6.924   9.570  21.363  1.00  0.00     0.048 C 
HETATM    4  C4  UNL     1       6.868   8.138  20.925  1.00  0.00     0.124 A 
HETATM    5  C5  UNL     1       5.918   7.111  20.953  1.00  0.00     0.203 A 
HETATM    6  O2  UNL     1       4.538   7.102  20.725  1.00  0.00    -0.349 OA
HETATM    7  C6  UNL     1       3.932   5.902  21.135  1.00  0.00     0.272 C 
HETATM    8  C16 UNL     1       3.731   5.682  22.552  1.00  0.00     0.048 C 
HETATM    9  C17 UNL     1       4.315   4.358  23.072  1.00  0.00     0.049 C 
HETATM   10  C18 UNL     1       2.941   3.739  23.175  1.00  0.00     0.120 C 
HETATM   11  C19 UNL     1       2.371   5.084  22.844  1.00  0.00     0.049 C 
HETATM   12  C20 UNL     1       4.138   6.764  23.524  1.00  0.00     0.105 C 
HETATM   13  C21 UNL     1       3.130   6.882  24.691  1.00  0.00     0.050 C 
HETATM   14  C22 UNL     1       5.430   6.529  24.227  1.00  0.00     0.042 C 
HETATM   15  C23 UNL     1       6.259   7.801  24.484  1.00  0.00     0.011 C 
HETATM   16  C24 UNL     1       7.085   7.959  23.190  1.00  0.00     0.033 C 
HETATM   17  C25 UNL     1       6.063   7.717  22.186  1.00  0.00     0.162 A 
HETATM   18  O5  UNL     1       5.000   8.601  22.535  1.00  0.00    -0.222 OA
HETATM   19  O6  UNL     1       3.960   7.975  22.906  1.00  0.00    -0.228 OA
ENDROOT
BRANCH   7  20
HETATM   20  O3  UNL     1       4.693   4.920  20.526  1.00  0.00    -0.359 OA
BRANCH  20  21
HETATM   21  C7  UNL     1       4.259   4.424  19.346  1.00  0.00     0.190 C 
BRANCH  21  22
HETATM   22  C8  UNL     1       4.051   2.959  19.200  1.00  0.00     0.143 C 
BRANCH  22  23
HETATM   23  N1  UNL     1       4.970   2.433  18.258  1.00  0.00    -0.410 N 
HETATM   24  C9  UNL     1       5.464   3.279  17.252  1.00  0.00     0.143 C 
BRANCH  23  25
HETATM   25  C10 UNL     1       5.685   1.281  18.641  1.00  0.00     0.078 C 
HETATM   26  C11 UNL     1       6.780   0.888  17.692  1.00  0.00     0.025 C 
HETATM   27  C12 UNL     1       8.060   0.506  18.399  1.00  0.00     0.002 C 
HETATM   28  C13 UNL     1       8.524   1.599  19.328  1.00  0.00     0.000 C 
HETATM   29  C14 UNL     1       7.462   1.925  20.324  1.00  0.00     0.002 C 
HETATM   30  C15 UNL     1       6.155   1.270  20.062  1.00  0.00     0.025 C 
ENDBRANCH  23  25
ENDBRANCH  22  23
ENDBRANCH  21  22
ENDBRANCH  20  21
ENDBRANCH   7  20
BRANCH   4  31
HETATM   31  O1  UNL     1       8.231   7.704  20.885  1.00  0.00    -0.384 OA
ATOM     32  H1  UNL     1       8.245   6.981  20.270  1.00  0.00     0.210 HD
ENDBRANCH   4  31
BRANCH  10  33
HETATM   33  O4  UNL     1       2.532   3.318  24.419  1.00  0.00    -0.396 OA
ATOM     34  H4  UNL     1       1.628   3.482  24.658  1.00  0.00     0.210 HD
ENDBRANCH  10  33
TORSDOF 7
ENDMDL
