MODEL 1
REMARK VINA RESULT: -7.666798036      0.000      0.000
REMARK  9 active torsions:
REMARK  status: ('A' for Active; 'I' for Inactive)
REMARK    1  A    between atoms: C2_2  and  C4_4 
REMARK    2  A    between atoms: C4_4  and  O2_6 
REMARK    3  A    between atoms: O2_6  and  C5_7 
REMARK    4  A    between atoms: C8_10  and  O3_11 
REMARK    5  A    between atoms: O3_11  and  C9_12 
REMARK       I    between atoms: C9_12  and  N1_14 
REMARK    6  A    between atoms: N1_14  and  C10_16 
REMARK    7  A    between atoms: C10_16  and  C11_17 
REMARK    8  A    between atoms: C11_17  and  N2_18 
REMARK    9  A    between atoms: C21_29  and  O6_30 
ROOT
HETATM    1  C5  UNL     1       5.298   3.229  19.664  1.00  0.00     0.147 C 
HETATM    2  C6  UNL     1       5.983   4.135  20.604  1.00  0.00     0.041 C 
HETATM    3  C7  UNL     1       7.462   3.913  20.589  1.00  0.00     0.015 C 
HETATM    4  C8  UNL     1       5.475   4.024  22.039  1.00  0.00     0.140 C 
HETATM    5  C16 UNL     1       4.915   2.760  22.451  1.00  0.00     0.039 C 
HETATM    6  C17 UNL     1       4.118   2.061  21.425  1.00  0.00     0.009 C 
HETATM    7  C18 UNL     1       2.864   1.370  21.916  1.00  0.00    -0.017 C 
HETATM    8  C19 UNL     1       3.331   0.226  22.832  1.00  0.00     0.018 C 
HETATM    9  C20 UNL     1       1.949   2.212  22.728  1.00  0.00     0.018 C 
HETATM   10  C21 UNL     1       2.110   0.690  20.821  1.00  0.00     0.126 C 
HETATM   11  C22 UNL     1       2.066   1.398  19.511  1.00  0.00     0.033 C 
HETATM   12  C23 UNL     1       3.478   1.739  19.090  1.00  0.00     0.014 C 
HETATM   13  C24 UNL     1       3.949   2.786  20.159  1.00  0.00    -0.012 C 
HETATM   14  C25 UNL     1       2.997   3.906  20.043  1.00  0.00     0.018 C 
ENDROOT
BRANCH   4  15
HETATM   15  O3  UNL     1       4.692   5.163  22.379  1.00  0.00    -0.298 OA
BRANCH  15  16
HETATM   16  C9  UNL     1       4.979   6.048  23.371  1.00  0.00     0.364 C 
HETATM   17  O4  UNL     1       4.061   6.206  24.238  1.00  0.00    -0.238 OA
HETATM   18  N1  UNL     1       6.156   6.795  23.555  1.00  0.00    -0.315 N 
ATOM     19  H1  UNL     1       6.874   6.725  22.833  1.00  0.00     0.170 HD
BRANCH  18  20
HETATM   20  C10 UNL     1       6.423   7.631  24.658  1.00  0.00     0.086 C 
BRANCH  20  21
HETATM   21  C11 UNL     1       7.307   8.816  24.484  1.00  0.00     0.171 C 
BRANCH  21  22
HETATM   22  N2  UNL     1       8.698   8.426  24.598  1.00  0.00    -0.365 N 
HETATM   23  C12 UNL     1       9.063   7.501  25.553  1.00  0.00     0.089 C 
HETATM   24  C13 UNL     1      10.089   7.996  26.523  1.00  0.00     0.212 C 
HETATM   25  O5  UNL     1      10.897   9.020  26.082  1.00  0.00    -0.381 OA
HETATM   26  C14 UNL     1      11.015   9.014  24.680  1.00  0.00     0.212 C 
HETATM   27  C15 UNL     1       9.627   9.370  24.172  1.00  0.00     0.089 C 
ENDBRANCH  21  22
ENDBRANCH  20  21
ENDBRANCH  18  20
ENDBRANCH  15  16
ENDBRANCH   4  15
BRANCH   1  28
HETATM   28  O2  UNL     1       5.998   2.048  19.330  1.00  0.00    -0.311 OA
BRANCH  28  29
HETATM   29  C4  UNL     1       6.675   1.864  18.155  1.00  0.00     0.288 C 
HETATM   30  O1  UNL     1       6.338   2.490  17.152  1.00  0.00    -0.260 OA
BRANCH  29  31
HETATM   31  C2  UNL     1       7.827   0.883  18.175  1.00  0.00     0.004 C 
HETATM   32  C1  UNL     1       8.591   0.842  19.159  1.00  0.00     0.024 C 
HETATM   33  C3  UNL     1       7.825   0.075  16.896  1.00  0.00     0.054 C 
ENDBRANCH  29  31
ENDBRANCH  28  29
ENDBRANCH   1  28
BRANCH  10  34
HETATM   34  O6  UNL     1       2.573  -0.611  20.584  1.00  0.00    -0.395 OA
ATOM     35  H6  UNL     1       2.554  -0.839  19.662  1.00  0.00     0.210 HD
ENDBRANCH  10  34
TORSDOF 9
ENDMDL
MODEL 2
REMARK VINA RESULT: -7.380133035      2.223      3.380
REMARK  9 active torsions:
REMARK  status: ('A' for Active; 'I' for Inactive)
REMARK    1  A    between atoms: C2_2  and  C4_4 
REMARK    2  A    between atoms: C4_4  and  O2_6 
REMARK    3  A    between atoms: O2_6  and  C5_7 
REMARK    4  A    between atoms: C8_10  and  O3_11 
REMARK    5  A    between atoms: O3_11  and  C9_12 
REMARK       I    between atoms: C9_12  and  N1_14 
REMARK    6  A    between atoms: N1_14  and  C10_16 
REMARK    7  A    between atoms: C10_16  and  C11_17 
REMARK    8  A    between atoms: C11_17  and  N2_18 
REMARK    9  A    between atoms: C21_29  and  O6_30 
ROOT
HETATM    1  C5  UNL     1       4.940   4.891  18.541  1.00  0.00     0.147 C 
HETATM    2  C6  UNL     1       5.189   5.906  19.582  1.00  0.00     0.041 C 
HETATM    3  C7  UNL     1       5.791   7.143  18.998  1.00  0.00     0.015 C 
HETATM    4  C8  UNL     1       6.074   5.408  20.722  1.00  0.00     0.140 C 
HETATM    5  C16 UNL     1       7.018   4.359  20.422  1.00  0.00     0.039 C 
HETATM    6  C17 UNL     1       6.539   3.332  19.477  1.00  0.00     0.009 C 
HETATM    7  C18 UNL     1       6.936   1.906  19.790  1.00  0.00    -0.017 C 
HETATM    8  C19 UNL     1       8.465   1.838  19.630  1.00  0.00     0.018 C 
HETATM    9  C20 UNL     1       6.637   1.449  21.171  1.00  0.00     0.018 C 
HETATM   10  C21 UNL     1       6.411   0.926  18.793  1.00  0.00     0.126 C 
HETATM   11  C22 UNL     1       5.039   1.184  18.272  1.00  0.00     0.033 C 
HETATM   12  C23 UNL     1       4.972   2.602  17.751  1.00  0.00     0.014 C 
HETATM   13  C24 UNL     1       5.146   3.486  19.036  1.00  0.00    -0.012 C 
HETATM   14  C25 UNL     1       4.022   3.110  19.914  1.00  0.00     0.018 C 
ENDROOT
BRANCH   4  15
HETATM   15  O3  UNL     1       5.299   5.196  21.897  1.00  0.00    -0.298 OA
BRANCH  15  16
HETATM   16  C9  UNL     1       5.403   5.913  23.048  1.00  0.00     0.364 C 
HETATM   17  O4  UNL     1       4.503   5.676  23.916  1.00  0.00    -0.238 OA
HETATM   18  N1  UNL     1       6.375   6.869  23.391  1.00  0.00    -0.315 N 
ATOM     19  H1  UNL     1       7.064   7.114  22.679  1.00  0.00     0.170 HD
BRANCH  18  20
HETATM   20  C10 UNL     1       6.474   7.514  24.641  1.00  0.00     0.086 C 
BRANCH  20  21
HETATM   21  C11 UNL     1       7.272   8.764  24.760  1.00  0.00     0.171 C 
BRANCH  21  22
HETATM   22  N2  UNL     1       8.689   8.463  24.711  1.00  0.00    -0.365 N 
HETATM   23  C12 UNL     1       9.218   7.558  25.608  1.00  0.00     0.089 C 
HETATM   24  C13 UNL     1      10.315   8.113  26.460  1.00  0.00     0.212 C 
HETATM   25  O5  UNL     1      11.001   9.188  25.943  1.00  0.00    -0.381 OA
HETATM   26  C14 UNL     1      10.959   9.195  24.536  1.00  0.00     0.212 C 
HETATM   27  C15 UNL     1       9.503   9.465  24.193  1.00  0.00     0.089 C 
ENDBRANCH  21  22
ENDBRANCH  20  21
ENDBRANCH  18  20
ENDBRANCH  15  16
ENDBRANCH   4  15
BRANCH   1  28
HETATM   28  O2  UNL     1       5.721   5.010  17.370  1.00  0.00    -0.311 OA
BRANCH  28  29
HETATM   29  C4  UNL     1       5.221   5.372  16.149  1.00  0.00     0.288 C 
HETATM   30  O1  UNL     1       4.128   5.931  16.078  1.00  0.00    -0.260 OA
BRANCH  29  31
HETATM   31  C2  UNL     1       6.074   5.059  14.940  1.00  0.00     0.004 C 
HETATM   32  C1  UNL     1       6.048   3.918  14.440  1.00  0.00     0.024 C 
HETATM   33  C3  UNL     1       6.853   6.292  14.538  1.00  0.00     0.054 C 
ENDBRANCH  29  31
ENDBRANCH  28  29
ENDBRANCH   1  28
BRANCH  10  34
HETATM   34  O6  UNL     1       7.263   0.780  17.690  1.00  0.00    -0.395 OA
ATOM     35  H6  UNL     1       7.303  -0.118  17.383  1.00  0.00     0.210 HD
ENDBRANCH  10  34
TORSDOF 9
ENDMDL
MODEL 3
REMARK VINA RESULT: -7.378834019      0.745      1.089
REMARK  9 active torsions:
REMARK  status: ('A' for Active; 'I' for Inactive)
REMARK    1  A    between atoms: C2_2  and  C4_4 
REMARK    2  A    between atoms: C4_4  and  O2_6 
REMARK    3  A    between atoms: O2_6  and  C5_7 
REMARK    4  A    between atoms: C8_10  and  O3_11 
REMARK    5  A    between atoms: O3_11  and  C9_12 
REMARK       I    between atoms: C9_12  and  N1_14 
REMARK    6  A    between atoms: N1_14  and  C10_16 
REMARK    7  A    between atoms: C10_16  and  C11_17 
REMARK    8  A    between atoms: C11_17  and  N2_18 
REMARK    9  A    between atoms: C21_29  and  O6_30 
ROOT
HETATM    1  C5  UNL     1       5.562   3.003  19.447  1.00  0.00     0.147 C 
HETATM    2  C6  UNL     1       6.232   3.922  20.386  1.00  0.00     0.041 C 
HETATM    3  C7  UNL     1       7.706   3.677  20.424  1.00  0.00     0.015 C 
HETATM    4  C8  UNL     1       5.676   3.857  21.806  1.00  0.00     0.140 C 
HETATM    5  C16 UNL     1       5.082   2.613  22.231  1.00  0.00     0.039 C 
HETATM    6  C17 UNL     1       4.307   1.900  21.199  1.00  0.00     0.009 C 
HETATM    7  C18 UNL     1       3.026   1.243  21.666  1.00  0.00    -0.017 C 
HETATM    8  C19 UNL     1       3.445   0.115  22.626  1.00  0.00     0.018 C 
HETATM    9  C20 UNL     1       2.100   2.120  22.426  1.00  0.00     0.018 C 
HETATM   10  C21 UNL     1       2.297   0.546  20.565  1.00  0.00     0.126 C 
HETATM   11  C22 UNL     1       2.306   1.220  19.237  1.00  0.00     0.033 C 
HETATM   12  C23 UNL     1       3.736   1.528  18.853  1.00  0.00     0.014 C 
HETATM   13  C24 UNL     1       4.191   2.595  19.910  1.00  0.00    -0.012 C 
HETATM   14  C25 UNL     1       3.262   3.727  19.734  1.00  0.00     0.018 C 
ENDROOT
BRANCH   4  15
HETATM   15  O3  UNL     1       4.902   5.017  22.091  1.00  0.00    -0.298 OA
BRANCH  15  16
HETATM   16  C9  UNL     1       5.400   6.215  22.499  1.00  0.00     0.364 C 
HETATM   17  O4  UNL     1       4.531   7.125  22.692  1.00  0.00    -0.238 OA
HETATM   18  N1  UNL     1       6.741   6.563  22.733  1.00  0.00    -0.315 N 
ATOM     19  H1  UNL     1       7.452   5.863  22.520  1.00  0.00     0.170 HD
BRANCH  18  20
HETATM   20  C10 UNL     1       7.182   7.803  23.240  1.00  0.00     0.086 C 
BRANCH  20  21
HETATM   21  C11 UNL     1       8.623   8.164  23.147  1.00  0.00     0.171 C 
BRANCH  21  22
HETATM   22  N2  UNL     1       9.145   8.491  24.460  1.00  0.00    -0.365 N 
HETATM   23  C12 UNL     1      10.258   9.299  24.560  1.00  0.00     0.089 C 
HETATM   24  C13 UNL     1      11.405   8.670  25.286  1.00  0.00     0.212 C 
HETATM   25  O5  UNL     1      11.085   7.670  26.176  1.00  0.00    -0.381 OA
HETATM   26  C14 UNL     1       9.775   7.817  26.666  1.00  0.00     0.212 C 
HETATM   27  C15 UNL     1       8.880   7.565  25.463  1.00  0.00     0.089 C 
ENDBRANCH  21  22
ENDBRANCH  20  21
ENDBRANCH  18  20
ENDBRANCH  15  16
ENDBRANCH   4  15
BRANCH   1  28
HETATM   28  O2  UNL     1       6.253   1.803  19.167  1.00  0.00    -0.311 OA
BRANCH  28  29
HETATM   29  C4  UNL     1       6.950   1.572  18.013  1.00  0.00     0.288 C 
HETATM   30  O1  UNL     1       6.586   2.099  16.963  1.00  0.00    -0.260 OA
BRANCH  29  31
HETATM   31  C2  UNL     1       8.157   0.665  18.113  1.00  0.00     0.004 C 
HETATM   32  C1  UNL     1       8.875   0.696  19.131  1.00  0.00     0.024 C 
HETATM   33  C3  UNL     1       8.266  -0.172  16.857  1.00  0.00     0.054 C 
ENDBRANCH  29  31
ENDBRANCH  28  29
ENDBRANCH   1  28
BRANCH  10  34
HETATM   34  O6  UNL     1       2.745  -0.768  20.377  1.00  0.00    -0.395 OA
ATOM     35  H6  UNL     1       2.919  -1.211  21.199  1.00  0.00     0.210 HD
ENDBRANCH  10  34
TORSDOF 9
ENDMDL
MODEL 4
REMARK VINA RESULT: -7.172854388      1.625      1.974
REMARK  9 active torsions:
REMARK  status: ('A' for Active; 'I' for Inactive)
REMARK    1  A    between atoms: C2_2  and  C4_4 
REMARK    2  A    between atoms: C4_4  and  O2_6 
REMARK    3  A    between atoms: O2_6  and  C5_7 
REMARK    4  A    between atoms: C8_10  and  O3_11 
REMARK    5  A    between atoms: O3_11  and  C9_12 
REMARK       I    between atoms: C9_12  and  N1_14 
REMARK    6  A    between atoms: N1_14  and  C10_16 
REMARK    7  A    between atoms: C10_16  and  C11_17 
REMARK    8  A    between atoms: C11_17  and  N2_18 
REMARK    9  A    between atoms: C21_29  and  O6_30 
ROOT
HETATM    1  C5  UNL     1       5.014   3.005  19.816  1.00  0.00     0.147 C 
HETATM    2  C6  UNL     1       5.708   3.962  20.697  1.00  0.00     0.041 C 
HETATM    3  C7  UNL     1       7.192   3.839  20.567  1.00  0.00     0.015 C 
HETATM    4  C8  UNL     1       5.320   3.831  22.167  1.00  0.00     0.140 C 
HETATM    5  C16 UNL     1       4.879   2.537  22.626  1.00  0.00     0.039 C 
HETATM    6  C17 UNL     1       4.054   1.777  21.668  1.00  0.00     0.009 C 
HETATM    7  C18 UNL     1       2.890   1.009  22.257  1.00  0.00    -0.017 C 
HETATM    8  C19 UNL     1       3.502  -0.094  23.138  1.00  0.00     0.018 C 
HETATM    9  C20 UNL     1       1.986   1.796  23.134  1.00  0.00     0.018 C 
HETATM   10  C21 UNL     1       2.102   0.271  21.226  1.00  0.00     0.126 C 
HETATM   11  C22 UNL     1       1.909   0.963  19.921  1.00  0.00     0.033 C 
HETATM   12  C23 UNL     1       3.258   1.393  19.390  1.00  0.00     0.014 C 
HETATM   13  C24 UNL     1       3.740   2.478  20.416  1.00  0.00    -0.012 C 
HETATM   14  C25 UNL     1       2.709   3.532  20.370  1.00  0.00     0.018 C 
ENDROOT
BRANCH   4  15
HETATM   15  O3  UNL     1       4.491   4.919  22.563  1.00  0.00    -0.298 OA
BRANCH  15  16
HETATM   16  C9  UNL     1       4.935   6.126  23.006  1.00  0.00     0.364 C 
HETATM   17  O4  UNL     1       4.423   7.137  22.427  1.00  0.00    -0.238 OA
HETATM   18  N1  UNL     1       5.876   6.387  24.018  1.00  0.00    -0.315 N 
ATOM     19  H1  UNL     1       6.341   5.585  24.445  1.00  0.00     0.170 HD
BRANCH  18  20
HETATM   20  C10 UNL     1       6.227   7.669  24.488  1.00  0.00     0.086 C 
BRANCH  20  21
HETATM   21  C11 UNL     1       7.525   8.271  24.079  1.00  0.00     0.171 C 
BRANCH  21  22
HETATM   22  N2  UNL     1       7.505   8.595  22.666  1.00  0.00    -0.365 N 
HETATM   23  C12 UNL     1       8.144   7.760  21.773  1.00  0.00     0.089 C 
HETATM   24  C13 UNL     1       9.205   8.432  20.960  1.00  0.00     0.212 C 
HETATM   25  O5  UNL     1       9.074   9.793  20.797  1.00  0.00    -0.381 OA
HETATM   26  C14 UNL     1       7.730  10.196  20.905  1.00  0.00     0.212 C 
HETATM   27  C15 UNL     1       7.364   9.944  22.358  1.00  0.00     0.089 C 
ENDBRANCH  21  22
ENDBRANCH  20  21
ENDBRANCH  18  20
ENDBRANCH  15  16
ENDBRANCH   4  15
BRANCH   1  28
HETATM   28  O2  UNL     1       5.764   1.870  19.433  1.00  0.00    -0.311 OA
BRANCH  28  29
HETATM   29  C4  UNL     1       6.442   1.763  18.250  1.00  0.00     0.288 C 
HETATM   30  O1  UNL     1       6.043   2.372  17.259  1.00  0.00    -0.260 OA
BRANCH  29  31
HETATM   31  C2  UNL     1       7.674   0.885  18.245  1.00  0.00     0.004 C 
HETATM   32  C1  UNL     1       8.422   0.856  19.242  1.00  0.00     0.024 C 
HETATM   33  C3  UNL     1       7.766   0.150  16.926  1.00  0.00     0.054 C 
ENDBRANCH  29  31
ENDBRANCH  28  29
ENDBRANCH   1  28
BRANCH  10  34
HETATM   34  O6  UNL     1       2.630  -0.999  20.960  1.00  0.00    -0.395 OA
ATOM     35  H6  UNL     1       2.515  -1.598  21.688  1.00  0.00     0.210 HD
ENDBRANCH  10  34
TORSDOF 9
ENDMDL
MODEL 5
REMARK VINA RESULT: -7.153586650      0.963      1.146
REMARK  9 active torsions:
REMARK  status: ('A' for Active; 'I' for Inactive)
REMARK    1  A    between atoms: C2_2  and  C4_4 
REMARK    2  A    between atoms: C4_4  and  O2_6 
REMARK    3  A    between atoms: O2_6  and  C5_7 
REMARK    4  A    between atoms: C8_10  and  O3_11 
REMARK    5  A    between atoms: O3_11  and  C9_12 
REMARK       I    between atoms: C9_12  and  N1_14 
REMARK    6  A    between atoms: N1_14  and  C10_16 
REMARK    7  A    between atoms: C10_16  and  C11_17 
REMARK    8  A    between atoms: C11_17  and  N2_18 
REMARK    9  A    between atoms: C21_29  and  O6_30 
ROOT
HETATM    1  C5  UNL     1       4.980   3.197  19.717  1.00  0.00     0.147 C 
HETATM    2  C6  UNL     1       5.571   4.269  20.538  1.00  0.00     0.041 C 
HETATM    3  C7  UNL     1       7.065   4.231  20.484  1.00  0.00     0.015 C 
HETATM    4  C8  UNL     1       5.121   4.240  21.997  1.00  0.00     0.140 C 
HETATM    5  C16 UNL     1       4.737   2.964  22.549  1.00  0.00     0.039 C 
HETATM    6  C17 UNL     1       4.007   2.073  21.627  1.00  0.00     0.009 C 
HETATM    7  C18 UNL     1       2.865   1.286  22.232  1.00  0.00    -0.017 C 
HETATM    8  C19 UNL     1       3.499   0.304  23.233  1.00  0.00     0.018 C 
HETATM    9  C20 UNL     1       1.873   2.085  22.996  1.00  0.00     0.018 C 
HETATM   10  C21 UNL     1       2.173   0.412  21.238  1.00  0.00     0.126 C 
HETATM   11  C22 UNL     1       2.002   0.976  19.869  1.00  0.00     0.033 C 
HETATM   12  C23 UNL     1       3.347   1.444  19.361  1.00  0.00     0.014 C 
HETATM   13  C24 UNL     1       3.712   2.642  20.306  1.00  0.00    -0.012 C 
HETATM   14  C25 UNL     1       2.623   3.620  20.122  1.00  0.00     0.018 C 
ENDROOT
BRANCH   4  15
HETATM   15  O3  UNL     1       4.210   5.302  22.258  1.00  0.00    -0.298 OA
BRANCH  15  16
HETATM   16  C9  UNL     1       4.426   6.329  23.123  1.00  0.00     0.364 C 
HETATM   17  O4  UNL     1       3.511   7.212  23.154  1.00  0.00    -0.238 OA
HETATM   18  N1  UNL     1       5.524   6.527  23.979  1.00  0.00    -0.315 N 
ATOM     19  H1  UNL     1       6.294   5.861  23.916  1.00  0.00     0.170 HD
BRANCH  18  20
HETATM   20  C10 UNL     1       5.644   7.574  24.916  1.00  0.00     0.086 C 
BRANCH  20  21
HETATM   21  C11 UNL     1       6.440   8.782  24.570  1.00  0.00     0.171 C 
BRANCH  21  22
HETATM   22  N2  UNL     1       7.646   8.403  23.859  1.00  0.00    -0.365 N 
HETATM   23  C12 UNL     1       8.768   8.046  24.577  1.00  0.00     0.089 C 
HETATM   24  C13 UNL     1       9.973   8.881  24.282  1.00  0.00     0.212 C 
HETATM   25  O5  UNL     1       9.999   9.496  23.050  1.00  0.00    -0.381 OA
HETATM   26  C14 UNL     1       9.227   8.791  22.109  1.00  0.00     0.212 C 
HETATM   27  C15 UNL     1       7.793   8.947  22.587  1.00  0.00     0.089 C 
ENDBRANCH  21  22
ENDBRANCH  20  21
ENDBRANCH  18  20
ENDBRANCH  15  16
ENDBRANCH   4  15
BRANCH   1  28
HETATM   28  O2  UNL     1       5.814   2.084  19.468  1.00  0.00    -0.311 OA
BRANCH  28  29
HETATM   29  C4  UNL     1       6.454   1.855  18.281  1.00  0.00     0.288 C 
HETATM   30  O1  UNL     1       6.030   2.373  17.249  1.00  0.00    -0.260 OA
BRANCH  29  31
HETATM   31  C2  UNL     1       7.676   0.964  18.323  1.00  0.00     0.004 C 
HETATM   32  C1  UNL     1       8.389   0.933  19.345  1.00  0.00     0.024 C 
HETATM   33  C3  UNL     1       7.803   0.219  17.012  1.00  0.00     0.054 C 
ENDBRANCH  29  31
ENDBRANCH  28  29
ENDBRANCH   1  28
BRANCH  10  34
HETATM   34  O6  UNL     1       2.789  -0.839  21.108  1.00  0.00    -0.395 OA
ATOM     35  H6  UNL     1       2.300  -1.425  20.541  1.00  0.00     0.210 HD
ENDBRANCH  10  34
TORSDOF 9
ENDMDL
