MODEL 1
REMARK VINA RESULT: -7.574734201      0.000      0.000
REMARK  8 active torsions:
REMARK  status: ('A' for Active; 'I' for Inactive)
REMARK    1  A    between atoms: C2_2  and  C3_3 
REMARK    2  A    between atoms: C3_3  and  C4_4 
REMARK    3  A    between atoms: C8_10  and  C9_11 
REMARK    4  A    between atoms: C11_13  and  C12_14 
REMARK    5  A    between atoms: C12_14  and  S1_15 
REMARK    6  A    between atoms: S1_15  and  C13_16 
REMARK    7  A    between atoms: C13_16  and  N2_20 
REMARK    8  A    between atoms: N2_20  and  N3_22 
ROOT
HETATM    1  C4  UNL     1       5.909   8.744  17.286  1.00  0.00     0.042 C 
HETATM    2  C5  UNL     1       4.611   8.686  17.987  1.00  0.00    -0.013 C 
HETATM    3  C6  UNL     1       4.337   7.962  19.060  1.00  0.00     0.079 C 
HETATM    4  C7  UNL     1       5.279   7.089  19.744  1.00  0.00     0.283 C 
HETATM    5  O1  UNL     1       4.923   5.884  20.000  1.00  0.00    -0.260 OA
HETATM    6  O2  UNL     1       6.556   7.460  20.152  1.00  0.00    -0.298 OA
HETATM    7  C8  UNL     1       6.823   8.663  20.890  1.00  0.00     0.252 C 
HETATM    8  C16 UNL     1       8.113   9.260  20.458  1.00  0.00     0.252 C 
HETATM    9  O3  UNL     1       9.050   8.468  20.180  1.00  0.00    -0.270 OA
HETATM   10  N4  UNL     1       8.349  10.644  20.341  1.00  0.00    -0.352 N 
ATOM     11  H4  UNL     1       9.311  10.979  20.303  1.00  0.00     0.163 HD
HETATM   12  C17 UNL     1       7.251  11.621  20.272  1.00  0.00     0.104 C 
HETATM   13  C18 UNL     1       7.796  13.032  20.324  1.00  0.00     0.034 C 
HETATM   14  C19 UNL     1       6.470  11.476  18.985  1.00  0.00     0.193 C 
HETATM   15  O4  UNL     1       7.114  10.516  18.221  1.00  0.00    -0.378 OA
HETATM   16  C20 UNL     1       6.412  10.138  17.088  1.00  0.00     0.060 C 
HETATM   17  C21 UNL     1       5.328  11.114  16.722  1.00  0.00     0.046 C 
HETATM   18  C22 UNL     1       7.409  10.121  15.946  1.00  0.00     0.046 C 
ENDROOT
BRANCH   7  19
HETATM   19  C9  UNL     1       6.936   8.241  22.321  1.00  0.00    -0.049 C 
HETATM   20  C10 UNL     1       5.752   8.497  23.201  1.00  0.00     0.046 C 
HETATM   21  C11 UNL     1       8.018   7.673  22.790  1.00  0.00    -0.011 C 
BRANCH  21  22
HETATM   22  C12 UNL     1       8.118   7.259  24.210  1.00  0.00     0.110 C 
BRANCH  22  23
HETATM   23  S1  UNL     1       8.685   8.578  25.275  1.00  0.00    -0.089 SA
BRANCH  23  24
HETATM   24  C13 UNL     1      10.342   8.223  25.827  1.00  0.00     0.156 C 
HETATM   25  N1  UNL     1      11.390   8.673  25.224  1.00  0.00    -0.374 N 
HETATM   26  C14 UNL     1      11.325   9.505  24.048  1.00  0.00     0.148 C 
ATOM     27  H1  UNL     1      12.307   8.430  25.597  1.00  0.00     0.161 HD
BRANCH  24  28
HETATM   28  N2  UNL     1      10.544   7.413  26.976  1.00  0.00    -0.282 N 
HETATM   29  C15 UNL     1      11.883   7.095  27.399  1.00  0.00     0.179 C 
BRANCH  28  30
HETATM   30  N3  UNL     1       9.452   6.910  27.716  1.00  0.00    -0.341 N 
ATOM     31  H32 UNL     1       8.503   7.110  27.399  1.00  0.00     0.177 HD
ATOM     32  H31 UNL     1       9.597   6.354  28.559  1.00  0.00     0.177 HD
ENDBRANCH  28  30
ENDBRANCH  24  28
ENDBRANCH  23  24
ENDBRANCH  22  23
ENDBRANCH  21  22
ENDBRANCH   7  19
BRANCH   1  33
HETATM   33  C3  UNL     1       5.756   8.112  15.897  1.00  0.00     0.011 C 
BRANCH  33  34
HETATM   34  C2  UNL     1       5.381   6.631  16.056  1.00  0.00    -0.004 C 
HETATM   35  C1  UNL     1       6.331   5.858  15.170  1.00  0.00     0.005 C 
ENDBRANCH  33  34
ENDBRANCH   1  33
TORSDOF 8
ENDMDL
MODEL 2
REMARK VINA RESULT: -7.396584778      4.506      7.019
REMARK  8 active torsions:
REMARK  status: ('A' for Active; 'I' for Inactive)
REMARK    1  A    between atoms: C2_2  and  C3_3 
REMARK    2  A    between atoms: C3_3  and  C4_4 
REMARK    3  A    between atoms: C8_10  and  C9_11 
REMARK    4  A    between atoms: C11_13  and  C12_14 
REMARK    5  A    between atoms: C12_14  and  S1_15 
REMARK    6  A    between atoms: S1_15  and  C13_16 
REMARK    7  A    between atoms: C13_16  and  N2_20 
REMARK    8  A    between atoms: N2_20  and  N3_22 
ROOT
HETATM    1  C4  UNL     1       6.479   1.626  18.015  1.00  0.00     0.042 C 
HETATM    2  C5  UNL     1       5.926   1.487  19.377  1.00  0.00    -0.013 C 
HETATM    3  C6  UNL     1       5.955   2.409  20.326  1.00  0.00     0.079 C 
HETATM    4  C7  UNL     1       6.542   3.733  20.190  1.00  0.00     0.283 C 
HETATM    5  O1  UNL     1       7.366   4.134  21.087  1.00  0.00    -0.260 OA
HETATM    6  O2  UNL     1       6.278   4.618  19.150  1.00  0.00    -0.298 OA
HETATM    7  C8  UNL     1       4.947   4.941  18.717  1.00  0.00     0.252 C 
HETATM    8  C16 UNL     1       4.909   5.107  17.241  1.00  0.00     0.252 C 
HETATM    9  O3  UNL     1       5.901   5.657  16.697  1.00  0.00    -0.270 OA
HETATM   10  N4  UNL     1       3.841   4.691  16.422  1.00  0.00    -0.352 N 
ATOM     11  H4  UNL     1       3.765   5.072  15.478  1.00  0.00     0.163 HD
HETATM   12  C17 UNL     1       2.831   3.726  16.883  1.00  0.00     0.104 C 
HETATM   13  C18 UNL     1       1.718   3.599  15.866  1.00  0.00     0.034 C 
HETATM   14  C19 UNL     1       3.437   2.354  17.078  1.00  0.00     0.193 C 
HETATM   15  O4  UNL     1       4.753   2.422  16.653  1.00  0.00    -0.378 OA
HETATM   16  C20 UNL     1       5.495   1.289  16.941  1.00  0.00     0.060 C 
HETATM   17  C21 UNL     1       4.636   0.100  17.275  1.00  0.00     0.046 C 
HETATM   18  C22 UNL     1       6.269   0.946  15.683  1.00  0.00     0.046 C 
ENDROOT
BRANCH   7  19
HETATM   19  C9  UNL     1       4.620   6.250  19.364  1.00  0.00    -0.049 C 
HETATM   20  C10 UNL     1       3.199   6.716  19.275  1.00  0.00     0.046 C 
HETATM   21  C11 UNL     1       5.529   6.962  19.981  1.00  0.00    -0.011 C 
BRANCH  21  22
HETATM   22  C12 UNL     1       5.192   8.258  20.617  1.00  0.00     0.110 C 
BRANCH  22  23
HETATM   23  S1  UNL     1       4.824   8.096  22.359  1.00  0.00    -0.089 SA
BRANCH  23  24
HETATM   24  C13 UNL     1       5.854   6.824  23.066  1.00  0.00     0.156 C 
HETATM   25  N1  UNL     1       5.462   5.602  23.199  1.00  0.00    -0.374 N 
HETATM   26  C14 UNL     1       4.156   5.146  22.792  1.00  0.00     0.148 C 
ATOM     27  H1  UNL     1       6.105   4.928  23.611  1.00  0.00     0.161 HD
BRANCH  24  28
HETATM   28  N2  UNL     1       7.166   7.144  23.507  1.00  0.00    -0.282 N 
HETATM   29  C15 UNL     1       8.172   7.508  22.545  1.00  0.00     0.179 C 
BRANCH  28  30
HETATM   30  N3  UNL     1       7.504   7.111  24.877  1.00  0.00    -0.341 N 
ATOM     31  H32 UNL     1       6.900   6.607  25.526  1.00  0.00     0.177 HD
ATOM     32  H31 UNL     1       8.340   7.580  25.225  1.00  0.00     0.177 HD
ENDBRANCH  28  30
ENDBRANCH  24  28
ENDBRANCH  23  24
ENDBRANCH  22  23
ENDBRANCH  21  22
ENDBRANCH   7  19
BRANCH   1  33
HETATM   33  C3  UNL     1       7.670   0.672  17.859  1.00  0.00     0.011 C 
BRANCH  33  34
HETATM   34  C2  UNL     1       8.663   0.916  19.005  1.00  0.00    -0.004 C 
HETATM   35  C1  UNL     1      10.008   0.440  18.506  1.00  0.00     0.005 C 
ENDBRANCH  33  34
ENDBRANCH   1  33
TORSDOF 8
ENDMDL
MODEL 3
REMARK VINA RESULT: -7.391859425      4.238      6.928
REMARK  8 active torsions:
REMARK  status: ('A' for Active; 'I' for Inactive)
REMARK    1  A    between atoms: C2_2  and  C3_3 
REMARK    2  A    between atoms: C3_3  and  C4_4 
REMARK    3  A    between atoms: C8_10  and  C9_11 
REMARK    4  A    between atoms: C11_13  and  C12_14 
REMARK    5  A    between atoms: C12_14  and  S1_15 
REMARK    6  A    between atoms: S1_15  and  C13_16 
REMARK    7  A    between atoms: C13_16  and  N2_20 
REMARK    8  A    between atoms: N2_20  and  N3_22 
ROOT
HETATM    1  C4  UNL     1       6.598   1.745  18.159  1.00  0.00     0.042 C 
HETATM    2  C5  UNL     1       6.216   1.560  19.572  1.00  0.00    -0.013 C 
HETATM    3  C6  UNL     1       6.356   2.452  20.540  1.00  0.00     0.079 C 
HETATM    4  C7  UNL     1       6.917   3.784  20.376  1.00  0.00     0.283 C 
HETATM    5  O1  UNL     1       7.842   4.163  21.178  1.00  0.00    -0.260 OA
HETATM    6  O2  UNL     1       6.524   4.698  19.404  1.00  0.00    -0.298 OA
HETATM    7  C8  UNL     1       5.148   5.024  19.147  1.00  0.00     0.252 C 
HETATM    8  C16 UNL     1       4.930   5.235  17.693  1.00  0.00     0.252 C 
HETATM    9  O3  UNL     1       5.846   5.810  17.050  1.00  0.00    -0.270 OA
HETATM   10  N4  UNL     1       3.772   4.836  16.997  1.00  0.00    -0.352 N 
ATOM     11  H4  UNL     1       3.580   5.246  16.082  1.00  0.00     0.163 HD
HETATM   12  C17 UNL     1       2.830   3.849  17.546  1.00  0.00     0.104 C 
HETATM   13  C18 UNL     1       1.602   3.745  16.670  1.00  0.00     0.034 C 
HETATM   14  C19 UNL     1       3.461   2.476  17.622  1.00  0.00     0.193 C 
HETATM   15  O4  UNL     1       4.715   2.569  17.043  1.00  0.00    -0.378 OA
HETATM   16  C20 UNL     1       5.491   1.433  17.202  1.00  0.00     0.060 C 
HETATM   17  C21 UNL     1       4.685   0.228  17.600  1.00  0.00     0.046 C 
HETATM   18  C22 UNL     1       6.108   1.136  15.849  1.00  0.00     0.046 C 
ENDROOT
BRANCH   7  19
HETATM   19  C9  UNL     1       4.897   6.310  19.870  1.00  0.00    -0.049 C 
HETATM   20  C10 UNL     1       3.467   6.684  20.114  1.00  0.00     0.046 C 
HETATM   21  C11 UNL     1       5.877   7.078  20.274  1.00  0.00    -0.011 C 
BRANCH  21  22
HETATM   22  C12 UNL     1       5.614   8.350  20.989  1.00  0.00     0.110 C 
BRANCH  22  23
HETATM   23  S1  UNL     1       6.265   9.774  20.126  1.00  0.00    -0.089 SA
BRANCH  23  24
HETATM   24  C13 UNL     1       7.864  10.191  20.793  1.00  0.00     0.156 C 
HETATM   25  N1  UNL     1       8.350  11.385  20.747  1.00  0.00    -0.374 N 
HETATM   26  C14 UNL     1       7.651  12.497  20.153  1.00  0.00     0.148 C 
ATOM     27  H1  UNL     1       9.272  11.549  21.150  1.00  0.00     0.161 HD
BRANCH  24  28
HETATM   28  N2  UNL     1       8.656   9.183  21.407  1.00  0.00    -0.282 N 
HETATM   29  C15 UNL     1       8.781   9.151  22.841  1.00  0.00     0.179 C 
BRANCH  28  30
HETATM   30  N3  UNL     1       9.325   8.209  20.636  1.00  0.00    -0.341 N 
ATOM     31  H32 UNL     1       8.809   7.708  19.912  1.00  0.00     0.177 HD
ATOM     32  H31 UNL     1      10.311   7.999  20.792  1.00  0.00     0.177 HD
ENDBRANCH  28  30
ENDBRANCH  24  28
ENDBRANCH  23  24
ENDBRANCH  22  23
ENDBRANCH  21  22
ENDBRANCH   7  19
BRANCH   1  33
HETATM   33  C3  UNL     1       7.765   0.806  17.829  1.00  0.00     0.011 C 
BRANCH  33  34
HETATM   34  C2  UNL     1       8.857   0.966  18.897  1.00  0.00    -0.004 C 
HETATM   35  C1  UNL     1      10.079   0.257  18.361  1.00  0.00     0.005 C 
ENDBRANCH  33  34
ENDBRANCH   1  33
TORSDOF 8
ENDMDL
MODEL 4
REMARK VINA RESULT: -7.364531479      4.497      6.877
REMARK  8 active torsions:
REMARK  status: ('A' for Active; 'I' for Inactive)
REMARK    1  A    between atoms: C2_2  and  C3_3 
REMARK    2  A    between atoms: C3_3  and  C4_4 
REMARK    3  A    between atoms: C8_10  and  C9_11 
REMARK    4  A    between atoms: C11_13  and  C12_14 
REMARK    5  A    between atoms: C12_14  and  S1_15 
REMARK    6  A    between atoms: S1_15  and  C13_16 
REMARK    7  A    between atoms: C13_16  and  N2_20 
REMARK    8  A    between atoms: N2_20  and  N3_22 
ROOT
HETATM    1  C4  UNL     1       6.603   1.696  18.026  1.00  0.00     0.042 C 
HETATM    2  C5  UNL     1       6.165   1.434  19.411  1.00  0.00    -0.013 C 
HETATM    3  C6  UNL     1       6.256   2.276  20.428  1.00  0.00     0.079 C 
HETATM    4  C7  UNL     1       6.808   3.620  20.357  1.00  0.00     0.283 C 
HETATM    5  O1  UNL     1       7.696   3.964  21.215  1.00  0.00    -0.260 OA
HETATM    6  O2  UNL     1       6.446   4.580  19.418  1.00  0.00    -0.298 OA
HETATM    7  C8  UNL     1       5.079   4.907  19.120  1.00  0.00     0.252 C 
HETATM    8  C16 UNL     1       4.920   5.192  17.671  1.00  0.00     0.252 C 
HETATM    9  O3  UNL     1       5.856   5.807  17.097  1.00  0.00    -0.270 OA
HETATM   10  N4  UNL     1       3.796   4.821  16.907  1.00  0.00    -0.352 N 
ATOM     11  H4  UNL     1       3.638   5.275  16.008  1.00  0.00     0.163 HD
HETATM   12  C17 UNL     1       2.842   3.798  17.365  1.00  0.00     0.104 C 
HETATM   13  C18 UNL     1       1.653   3.729  16.433  1.00  0.00     0.034 C 
HETATM   14  C19 UNL     1       3.484   2.429  17.396  1.00  0.00     0.193 C 
HETATM   15  O4  UNL     1       4.760   2.562  16.875  1.00  0.00    -0.378 OA
HETATM   16  C20 UNL     1       5.541   1.425  17.009  1.00  0.00     0.060 C 
HETATM   17  C21 UNL     1       4.731   0.195  17.310  1.00  0.00     0.046 C 
HETATM   18  C22 UNL     1       6.217   1.205  15.669  1.00  0.00     0.046 C 
ENDROOT
BRANCH   7  19
HETATM   19  C9  UNL     1       4.785   6.152  19.898  1.00  0.00    -0.049 C 
HETATM   20  C10 UNL     1       3.346   6.448  20.187  1.00  0.00     0.046 C 
HETATM   21  C11 UNL     1       5.737   6.950  20.309  1.00  0.00    -0.011 C 
BRANCH  21  22
HETATM   22  C12 UNL     1       5.431   8.181  21.079  1.00  0.00     0.110 C 
BRANCH  22  23
HETATM   23  S1  UNL     1       6.540   8.423  22.460  1.00  0.00    -0.089 SA
BRANCH  23  24
HETATM   24  C13 UNL     1       6.231   7.173  23.693  1.00  0.00     0.156 C 
HETATM   25  N1  UNL     1       7.037   6.947  24.675  1.00  0.00    -0.374 N 
HETATM   26  C14 UNL     1       8.263   7.680  24.872  1.00  0.00     0.148 C 
ATOM     27  H1  UNL     1       6.795   6.216  25.343  1.00  0.00     0.161 HD
BRANCH  24  28
HETATM   28  N2  UNL     1       5.056   6.379  23.613  1.00  0.00    -0.282 N 
HETATM   29  C15 UNL     1       3.787   6.945  23.992  1.00  0.00     0.179 C 
BRANCH  28  30
HETATM   30  N3  UNL     1       5.106   5.042  23.167  1.00  0.00    -0.341 N 
ATOM     31  H32 UNL     1       5.912   4.728  22.626  1.00  0.00     0.177 HD
ATOM     32  H31 UNL     1       4.353   4.386  23.377  1.00  0.00     0.177 HD
ENDBRANCH  28  30
ENDBRANCH  24  28
ENDBRANCH  23  24
ENDBRANCH  22  23
ENDBRANCH  21  22
ENDBRANCH   7  19
BRANCH   1  33
HETATM   33  C3  UNL     1       7.793   0.786  17.697  1.00  0.00     0.011 C 
BRANCH  33  34
HETATM   34  C2  UNL     1       8.864   0.945  18.786  1.00  0.00    -0.004 C 
HETATM   35  C1  UNL     1      10.082   0.198  18.292  1.00  0.00     0.005 C 
ENDBRANCH  33  34
ENDBRANCH   1  33
TORSDOF 8
ENDMDL
MODEL 5
REMARK VINA RESULT: -7.238122468      4.294      6.771
REMARK  8 active torsions:
REMARK  status: ('A' for Active; 'I' for Inactive)
REMARK    1  A    between atoms: C2_2  and  C3_3 
REMARK    2  A    between atoms: C3_3  and  C4_4 
REMARK    3  A    between atoms: C8_10  and  C9_11 
REMARK    4  A    between atoms: C11_13  and  C12_14 
REMARK    5  A    between atoms: C12_14  and  S1_15 
REMARK    6  A    between atoms: S1_15  and  C13_16 
REMARK    7  A    between atoms: C13_16  and  N2_20 
REMARK    8  A    between atoms: N2_20  and  N3_22 
ROOT
HETATM    1  C4  UNL     1       6.152   1.947  18.728  1.00  0.00     0.042 C 
HETATM    2  C5  UNL     1       5.887   2.079  20.174  1.00  0.00    -0.013 C 
HETATM    3  C6  UNL     1       6.151   3.141  20.919  1.00  0.00     0.079 C 
HETATM    4  C7  UNL     1       6.753   4.374  20.438  1.00  0.00     0.283 C 
HETATM    5  O1  UNL     1       7.761   4.853  21.069  1.00  0.00    -0.260 OA
HETATM    6  O2  UNL     1       6.317   5.092  19.329  1.00  0.00    -0.298 OA
HETATM    7  C8  UNL     1       4.940   5.442  19.116  1.00  0.00     0.252 C 
HETATM    8  C16 UNL     1       4.604   5.363  17.670  1.00  0.00     0.252 C 
HETATM    9  O3  UNL     1       5.485   5.737  16.853  1.00  0.00    -0.270 OA
HETATM   10  N4  UNL     1       3.373   4.901  17.164  1.00  0.00    -0.352 N 
ATOM     11  H4  UNL     1       3.120   5.125  16.202  1.00  0.00     0.163 HD
HETATM   12  C17 UNL     1       2.441   4.107  17.979  1.00  0.00     0.104 C 
HETATM   13  C18 UNL     1       1.138   3.901  17.240  1.00  0.00     0.034 C 
HETATM   14  C19 UNL     1       3.015   2.743  18.292  1.00  0.00     0.193 C 
HETATM   15  O4  UNL     1       4.217   2.638  17.611  1.00  0.00    -0.378 OA
HETATM   16  C20 UNL     1       4.953   1.514  17.945  1.00  0.00     0.060 C 
HETATM   17  C21 UNL     1       4.132   0.468  18.648  1.00  0.00     0.046 C 
HETATM   18  C22 UNL     1       5.436   0.909  16.642  1.00  0.00     0.046 C 
ENDROOT
BRANCH   7  19
HETATM   19  C9  UNL     1       4.809   6.861  19.570  1.00  0.00    -0.049 C 
HETATM   20  C10 UNL     1       3.435   7.338  19.925  1.00  0.00     0.046 C 
HETATM   21  C11 UNL     1       5.845   7.656  19.656  1.00  0.00    -0.011 C 
BRANCH  21  22
HETATM   22  C12 UNL     1       5.703   9.062  20.108  1.00  0.00     0.110 C 
BRANCH  22  23
HETATM   23  S1  UNL     1       6.085   9.271  21.842  1.00  0.00    -0.089 SA
BRANCH  23  24
HETATM   24  C13 UNL     1       7.262   8.030  22.343  1.00  0.00     0.156 C 
HETATM   25  N1  UNL     1       6.916   6.942  22.943  1.00  0.00    -0.374 N 
HETATM   26  C14 UNL     1       5.549   6.623  23.268  1.00  0.00     0.148 C 
ATOM     27  H1  UNL     1       7.645   6.276  23.199  1.00  0.00     0.161 HD
BRANCH  24  28
HETATM   28  N2  UNL     1       8.645   8.223  22.080  1.00  0.00    -0.282 N 
HETATM   29  C15 UNL     1       9.494   8.775  23.103  1.00  0.00     0.179 C 
BRANCH  28  30
HETATM   30  N3  UNL     1       9.205   7.885  20.830  1.00  0.00    -0.341 N 
ATOM     31  H32 UNL     1       8.754   8.217  19.977  1.00  0.00     0.177 HD
ATOM     32  H31 UNL     1      10.050   7.316  20.767  1.00  0.00     0.177 HD
ENDBRANCH  28  30
ENDBRANCH  24  28
ENDBRANCH  23  24
ENDBRANCH  22  23
ENDBRANCH  21  22
ENDBRANCH   7  19
BRANCH   1  33
HETATM   33  C3  UNL     1       7.244   0.891  18.513  1.00  0.00     0.011 C 
BRANCH  33  34
HETATM   34  C2  UNL     1       8.513   1.321  19.263  1.00  0.00    -0.004 C 
HETATM   35  C1  UNL     1       9.645   0.509  18.677  1.00  0.00     0.005 C 
ENDBRANCH  33  34
ENDBRANCH   1  33
TORSDOF 8
ENDMDL
