MODEL 1
REMARK VINA RESULT: -8.768172280      0.000      0.000
REMARK  8 active torsions:
REMARK  status: ('A' for Active; 'I' for Inactive)
REMARK    1  A    between atoms: C9_10  and  O2_11 
REMARK    2  A    between atoms: C11_14  and  O3_15 
REMARK    3  A    between atoms: C13_18  and  C14_19 
REMARK    4  A    between atoms: C14_19  and  O5_21 
REMARK    5  A    between atoms: O5_21  and  C15_22 
REMARK    6  A    between atoms: C22_29  and  C23_30 
REMARK    7  A    between atoms: C23_30  and  O6_31 
REMARK    8  A    between atoms: O6_31  and  C24_32 
ROOT
HETATM    1  C1  UNL     1       5.573   1.726  21.874  1.00  0.00     0.015 C 
HETATM    2  C2  UNL     1       5.446   2.881  21.243  1.00  0.00    -0.081 C 
HETATM    3  C3  UNL     1       4.079   3.484  21.050  1.00  0.00     0.034 C 
HETATM    4  C4  UNL     1       4.086   4.968  21.372  1.00  0.00     0.012 C 
HETATM    5  C5  UNL     1       5.457   5.327  21.819  1.00  0.00     0.026 C 
HETATM    6  C6  UNL     1       6.376   5.016  20.628  1.00  0.00     0.137 C 
HETATM    7  O1  UNL     1       7.451   5.839  20.900  1.00  0.00    -0.378 OA
HETATM    8  C7  UNL     1       6.953   7.053  21.324  1.00  0.00     0.137 C 
HETATM    9  C8  UNL     1       7.889   7.796  22.269  1.00  0.00     0.048 C 
HETATM   10  C9  UNL     1       8.393   9.065  21.679  1.00  0.00     0.127 C 
HETATM   11  C10 UNL     1       8.268  10.285  22.507  1.00  0.00     0.064 C 
HETATM   12  C11 UNL     1       9.018  10.397  23.753  1.00  0.00     0.121 C 
HETATM   13  C12 UNL     1       9.792   9.219  24.233  1.00  0.00     0.046 C 
HETATM   14  C13 UNL     1       9.036   8.382  25.248  1.00  0.00     0.088 C 
HETATM   15  C17 UNL     1       8.101   7.405  24.668  1.00  0.00     0.020 C 
HETATM   16  C18 UNL     1       7.214   7.901  23.577  1.00  0.00    -0.004 C 
HETATM   17  C19 UNL     1       5.995   6.966  23.531  1.00  0.00     0.017 C 
HETATM   18  C20 UNL     1       5.684   6.784  22.077  1.00  0.00    -0.011 C 
HETATM   19  C21 UNL     1       4.588   7.673  21.582  1.00  0.00     0.018 C 
HETATM   20  C22 UNL     1       6.672   3.554  20.740  1.00  0.00     0.067 C 
ENDROOT
BRANCH  14  21
HETATM   21  C14 UNL     1      10.074   7.629  26.012  1.00  0.00     0.263 C 
HETATM   22  O4  UNL     1       9.747   6.649  26.729  1.00  0.00    -0.265 OA
BRANCH  21  23
HETATM   23  O5  UNL     1      11.417   7.972  25.968  1.00  0.00    -0.322 OA
BRANCH  23  24
HETATM   24  C15 UNL     1      12.257   7.546  27.019  1.00  0.00     0.174 C 
HETATM   25  C16 UNL     1      13.711   7.484  26.612  1.00  0.00     0.034 C 
ENDBRANCH  23  24
ENDBRANCH  21  23
ENDBRANCH  14  21
BRANCH  12  26
HETATM   26  O3  UNL     1       9.855  11.544  23.738  1.00  0.00    -0.395 OA
ATOM     27  H3  UNL     1      10.725  11.323  23.426  1.00  0.00     0.210 HD
ENDBRANCH  12  26
BRANCH  10  28
HETATM   28  O2  UNL     1       9.682   8.926  21.107  1.00  0.00    -0.395 OA
ATOM     29  H2  UNL     1      10.237   9.681  21.268  1.00  0.00     0.210 HD
ENDBRANCH  10  28
BRANCH  20  30
HETATM   30  C23 UNL     1       7.161   2.946  19.450  1.00  0.00     0.190 C 
BRANCH  30  31
HETATM   31  O6  UNL     1       8.157   1.986  19.802  1.00  0.00    -0.321 OA
BRANCH  31  32
HETATM   32  C24 UNL     1       8.452   0.957  18.921  1.00  0.00     0.254 C 
HETATM   33  C25 UNL     1       9.846   0.502  18.657  1.00  0.00     0.126 C 
HETATM   34  O7  UNL     1       7.487   0.404  18.334  1.00  0.00    -0.266 OA
ENDBRANCH  31  32
ENDBRANCH  30  31
ENDBRANCH  20  30
TORSDOF 8
ENDMDL
MODEL 2
REMARK VINA RESULT: -8.654414905      1.190      1.573
REMARK  8 active torsions:
REMARK  status: ('A' for Active; 'I' for Inactive)
REMARK    1  A    between atoms: C9_10  and  O2_11 
REMARK    2  A    between atoms: C11_14  and  O3_15 
REMARK    3  A    between atoms: C13_18  and  C14_19 
REMARK    4  A    between atoms: C14_19  and  O5_21 
REMARK    5  A    between atoms: O5_21  and  C15_22 
REMARK    6  A    between atoms: C22_29  and  C23_30 
REMARK    7  A    between atoms: C23_30  and  O6_31 
REMARK    8  A    between atoms: O6_31  and  C24_32 
ROOT
HETATM    1  C1  UNL     1       5.601   1.374  22.027  1.00  0.00     0.015 C 
HETATM    2  C2  UNL     1       5.207   2.378  21.261  1.00  0.00    -0.081 C 
HETATM    3  C3  UNL     1       3.746   2.740  21.192  1.00  0.00     0.034 C 
HETATM    4  C4  UNL     1       3.552   4.244  21.291  1.00  0.00     0.012 C 
HETATM    5  C5  UNL     1       4.891   4.862  21.469  1.00  0.00     0.026 C 
HETATM    6  C6  UNL     1       5.689   4.490  20.209  1.00  0.00     0.137 C 
HETATM    7  O1  UNL     1       6.641   5.491  20.193  1.00  0.00    -0.378 OA
HETATM    8  C7  UNL     1       6.009   6.675  20.507  1.00  0.00     0.137 C 
HETATM    9  C8  UNL     1       6.924   7.691  21.181  1.00  0.00     0.048 C 
HETATM   10  C9  UNL     1       7.133   8.902  20.344  1.00  0.00     0.127 C 
HETATM   11  C10 UNL     1       6.917  10.213  20.996  1.00  0.00     0.064 C 
HETATM   12  C11 UNL     1       7.791  10.636  22.084  1.00  0.00     0.121 C 
HETATM   13  C12 UNL     1       8.803   9.676  22.606  1.00  0.00     0.046 C 
HETATM   14  C13 UNL     1       8.330   8.921  23.834  1.00  0.00     0.088 C 
HETATM   15  C17 UNL     1       7.501   7.738  23.551  1.00  0.00     0.020 C 
HETATM   16  C18 UNL     1       6.412   7.915  22.547  1.00  0.00    -0.004 C 
HETATM   17  C19 UNL     1       5.367   6.823  22.823  1.00  0.00     0.017 C 
HETATM   18  C20 UNL     1       4.907   6.359  21.475  1.00  0.00    -0.011 C 
HETATM   19  C21 UNL     1       3.627   6.989  21.028  1.00  0.00     0.018 C 
HETATM   20  C22 UNL     1       6.232   3.125  20.486  1.00  0.00     0.067 C 
ENDROOT
BRANCH  14  21
HETATM   21  C14 UNL     1       9.566   8.461  24.534  1.00  0.00     0.263 C 
HETATM   22  O4  UNL     1      10.649   9.081  24.381  1.00  0.00    -0.265 OA
BRANCH  21  23
HETATM   23  O5  UNL     1       9.573   7.351  25.364  1.00  0.00    -0.322 OA
BRANCH  23  24
HETATM   24  C15 UNL     1       9.766   7.547  26.749  1.00  0.00     0.174 C 
HETATM   25  C16 UNL     1      11.089   7.001  27.234  1.00  0.00     0.034 C 
ENDBRANCH  23  24
ENDBRANCH  21  23
ENDBRANCH  14  21
BRANCH  12  26
HETATM   26  O3  UNL     1       8.421  11.871  21.776  1.00  0.00    -0.395 OA
ATOM     27  H3  UNL     1       8.903  11.810  20.960  1.00  0.00     0.210 HD
ENDBRANCH  12  26
BRANCH  10  28
HETATM   28  O2  UNL     1       8.344   8.854  19.609  1.00  0.00    -0.395 OA
ATOM     29  H2  UNL     1       8.209   8.957  18.675  1.00  0.00     0.210 HD
ENDBRANCH  10  28
BRANCH  20  30
HETATM   30  C23 UNL     1       6.645   2.386  19.238  1.00  0.00     0.190 C 
BRANCH  30  31
HETATM   31  O6  UNL     1       7.958   1.878  19.480  1.00  0.00    -0.321 OA
BRANCH  31  32
HETATM   32  C24 UNL     1       8.461   0.877  18.663  1.00  0.00     0.254 C 
HETATM   33  C25 UNL     1       9.901   0.497  18.656  1.00  0.00     0.126 C 
HETATM   34  O7  UNL     1       7.649   0.284  17.908  1.00  0.00    -0.266 OA
ENDBRANCH  31  32
ENDBRANCH  30  31
ENDBRANCH  20  30
TORSDOF 8
ENDMDL
MODEL 3
REMARK VINA RESULT: -8.280315523      1.391      1.818
REMARK  8 active torsions:
REMARK  status: ('A' for Active; 'I' for Inactive)
REMARK    1  A    between atoms: C9_10  and  O2_11 
REMARK    2  A    between atoms: C11_14  and  O3_15 
REMARK    3  A    between atoms: C13_18  and  C14_19 
REMARK    4  A    between atoms: C14_19  and  O5_21 
REMARK    5  A    between atoms: O5_21  and  C15_22 
REMARK    6  A    between atoms: C22_29  and  C23_30 
REMARK    7  A    between atoms: C23_30  and  O6_31 
REMARK    8  A    between atoms: O6_31  and  C24_32 
ROOT
HETATM    1  C1  UNL     1       6.367   1.116  22.096  1.00  0.00     0.015 C 
HETATM    2  C2  UNL     1       5.996   2.081  21.272  1.00  0.00    -0.081 C 
HETATM    3  C3  UNL     1       4.532   2.333  21.021  1.00  0.00     0.034 C 
HETATM    4  C4  UNL     1       4.217   3.818  21.071  1.00  0.00     0.012 C 
HETATM    5  C5  UNL     1       5.475   4.537  21.399  1.00  0.00     0.026 C 
HETATM    6  C6  UNL     1       6.446   4.216  20.252  1.00  0.00     0.137 C 
HETATM    7  O1  UNL     1       7.316   5.286  20.334  1.00  0.00    -0.378 OA
HETATM    8  C7  UNL     1       6.565   6.422  20.550  1.00  0.00     0.137 C 
HETATM    9  C8  UNL     1       7.313   7.508  21.313  1.00  0.00     0.048 C 
HETATM   10  C9  UNL     1       7.534   8.725  20.489  1.00  0.00     0.127 C 
HETATM   11  C10 UNL     1       7.144  10.021  21.087  1.00  0.00     0.064 C 
HETATM   12  C11 UNL     1       7.845  10.516  22.266  1.00  0.00     0.121 C 
HETATM   13  C12 UNL     1       8.853   9.639  22.923  1.00  0.00     0.046 C 
HETATM   14  C13 UNL     1       8.290   8.860  24.097  1.00  0.00     0.088 C 
HETATM   15  C17 UNL     1       7.592   7.616  23.735  1.00  0.00     0.020 C 
HETATM   16  C18 UNL     1       6.624   7.703  22.604  1.00  0.00    -0.004 C 
HETATM   17  C19 UNL     1       5.636   6.538  22.769  1.00  0.00     0.017 C 
HETATM   18  C20 UNL     1       5.380   6.031  21.383  1.00  0.00    -0.011 C 
HETATM   19  C21 UNL     1       4.121   6.559  20.774  1.00  0.00     0.018 C 
HETATM   20  C22 UNL     1       7.050   2.898  20.614  1.00  0.00     0.067 C 
ENDROOT
BRANCH  14  21
HETATM   21  C14 UNL     1       9.462   8.499  24.948  1.00  0.00     0.263 C 
HETATM   22  O4  UNL     1      10.431   9.293  25.064  1.00  0.00    -0.265 OA
BRANCH  21  23
HETATM   23  O5  UNL     1       9.533   7.297  25.634  1.00  0.00    -0.322 OA
BRANCH  23  24
HETATM   24  C15 UNL     1       9.813   7.324  27.018  1.00  0.00     0.174 C 
HETATM   25  C16 UNL     1      11.229   6.899  27.333  1.00  0.00     0.034 C 
ENDBRANCH  23  24
ENDBRANCH  21  23
ENDBRANCH  14  21
BRANCH  12  26
HETATM   26  O3  UNL     1       8.414  11.793  22.017  1.00  0.00    -0.395 OA
ATOM     27  H3  UNL     1       9.361  11.736  21.961  1.00  0.00     0.210 HD
ENDBRANCH  12  26
BRANCH  10  28
HETATM   28  O2  UNL     1       8.826   8.763  19.906  1.00  0.00    -0.395 OA
ATOM     29  H2  UNL     1       9.112   9.647  19.708  1.00  0.00     0.210 HD
ENDBRANCH  10  28
BRANCH  20  30
HETATM   30  C23 UNL     1       7.666   2.183  19.438  1.00  0.00     0.190 C 
BRANCH  30  31
HETATM   31  O6  UNL     1       6.718   2.256  18.373  1.00  0.00    -0.321 OA
BRANCH  31  32
HETATM   32  C24 UNL     1       6.316   1.091  17.739  1.00  0.00     0.254 C 
HETATM   33  C25 UNL     1       4.901   0.626  17.739  1.00  0.00     0.126 C 
HETATM   34  O7  UNL     1       7.200   0.419  17.149  1.00  0.00    -0.266 OA
ENDBRANCH  31  32
ENDBRANCH  30  31
ENDBRANCH  20  30
TORSDOF 8
ENDMDL
MODEL 4
REMARK VINA RESULT: -7.852679551      1.961      7.966
REMARK  8 active torsions:
REMARK  status: ('A' for Active; 'I' for Inactive)
REMARK    1  A    between atoms: C9_10  and  O2_11 
REMARK    2  A    between atoms: C11_14  and  O3_15 
REMARK    3  A    between atoms: C13_18  and  C14_19 
REMARK    4  A    between atoms: C14_19  and  O5_21 
REMARK    5  A    between atoms: O5_21  and  C15_22 
REMARK    6  A    between atoms: C22_29  and  C23_30 
REMARK    7  A    between atoms: C23_30  and  O6_31 
REMARK    8  A    between atoms: O6_31  and  C24_32 
ROOT
HETATM    1  C1  UNL     1       9.564   8.963  22.402  1.00  0.00     0.015 C 
HETATM    2  C2  UNL     1       8.269   8.930  22.668  1.00  0.00    -0.081 C 
HETATM    3  C3  UNL     1       7.347   9.941  22.037  1.00  0.00     0.034 C 
HETATM    4  C4  UNL     1       6.089   9.276  21.506  1.00  0.00     0.012 C 
HETATM    5  C5  UNL     1       6.210   7.816  21.754  1.00  0.00     0.026 C 
HETATM    6  C6  UNL     1       6.315   7.663  23.280  1.00  0.00     0.137 C 
HETATM    7  O1  UNL     1       5.886   6.360  23.445  1.00  0.00    -0.378 OA
HETATM    8  C7  UNL     1       4.797   6.169  22.621  1.00  0.00     0.137 C 
HETATM    9  C8  UNL     1       4.629   4.726  22.162  1.00  0.00     0.048 C 
HETATM   10  C9  UNL     1       3.384   4.109  22.690  1.00  0.00     0.127 C 
HETATM   11  C10 UNL     1       2.503   3.433  21.712  1.00  0.00     0.064 C 
HETATM   12  C11 UNL     1       2.971   2.240  21.015  1.00  0.00     0.121 C 
HETATM   13  C12 UNL     1       4.383   1.806  21.207  1.00  0.00     0.046 C 
HETATM   14  C13 UNL     1       5.313   2.302  20.116  1.00  0.00     0.088 C 
HETATM   15  C17 UNL     1       5.814   3.672  20.308  1.00  0.00     0.020 C 
HETATM   16  C18 UNL     1       4.807   4.700  20.697  1.00  0.00    -0.004 C 
HETATM   17  C19 UNL     1       5.379   6.066  20.287  1.00  0.00     0.017 C 
HETATM   18  C20 UNL     1       5.005   7.005  21.393  1.00  0.00    -0.011 C 
HETATM   19  C21 UNL     1       3.783   7.816  21.104  1.00  0.00     0.018 C 
HETATM   20  C22 UNL     1       7.760   7.883  23.592  1.00  0.00     0.067 C 
ENDROOT
BRANCH  14  21
HETATM   21  C14 UNL     1       6.484   1.377  20.124  1.00  0.00     0.263 C 
HETATM   22  O4  UNL     1       7.175   1.238  21.166  1.00  0.00    -0.265 OA
BRANCH  21  23
HETATM   23  O5  UNL     1       6.856   0.647  19.006  1.00  0.00    -0.322 OA
BRANCH  23  24
HETATM   24  C15 UNL     1       7.932   1.115  18.222  1.00  0.00     0.174 C 
HETATM   25  C16 UNL     1       9.269   0.602  18.706  1.00  0.00     0.034 C 
ENDBRANCH  23  24
ENDBRANCH  21  23
ENDBRANCH  14  21
BRANCH  12  26
HETATM   26  O3  UNL     1       2.099   1.144  21.246  1.00  0.00    -0.395 OA
ATOM     27  H3  UNL     1       1.923   0.677  20.438  1.00  0.00     0.210 HD
ENDBRANCH  12  26
BRANCH  10  28
HETATM   28  O2  UNL     1       3.613   3.323  23.847  1.00  0.00    -0.395 OA
ATOM     29  H2  UNL     1       2.807   3.045  24.265  1.00  0.00     0.210 HD
ENDBRANCH  10  28
BRANCH  20  30
HETATM   30  C23 UNL     1       8.010   8.234  25.037  1.00  0.00     0.190 C 
BRANCH  30  31
HETATM   31  O6  UNL     1       8.841   7.203  25.571  1.00  0.00    -0.321 OA
BRANCH  31  32
HETATM   32  C24 UNL     1       9.963   7.548  26.308  1.00  0.00     0.254 C 
HETATM   33  C25 UNL     1      10.868   8.664  25.916  1.00  0.00     0.126 C 
HETATM   34  O7  UNL     1      10.203   6.876  27.344  1.00  0.00    -0.266 OA
ENDBRANCH  31  32
ENDBRANCH  30  31
ENDBRANCH  20  30
TORSDOF 8
ENDMDL
MODEL 5
REMARK VINA RESULT: -7.736326634      5.793      8.927
REMARK  8 active torsions:
REMARK  status: ('A' for Active; 'I' for Inactive)
REMARK    1  A    between atoms: C9_10  and  O2_11 
REMARK    2  A    between atoms: C11_14  and  O3_15 
REMARK    3  A    between atoms: C13_18  and  C14_19 
REMARK    4  A    between atoms: C14_19  and  O5_21 
REMARK    5  A    between atoms: O5_21  and  C15_22 
REMARK    6  A    between atoms: C22_29  and  C23_30 
REMARK    7  A    between atoms: C23_30  and  O6_31 
REMARK    8  A    between atoms: O6_31  and  C24_32 
ROOT
HETATM    1  C1  UNL     1       6.253   5.379  11.757  1.00  0.00     0.015 C 
HETATM    2  C2  UNL     1       5.545   5.599  12.851  1.00  0.00    -0.081 C 
HETATM    3  C3  UNL     1       4.052   5.394  12.833  1.00  0.00     0.034 C 
HETATM    4  C4  UNL     1       3.590   4.636  14.066  1.00  0.00     0.012 C 
HETATM    5  C5  UNL     1       4.794   4.307  14.872  1.00  0.00     0.026 C 
HETATM    6  C6  UNL     1       5.418   5.658  15.256  1.00  0.00     0.137 C 
HETATM    7  O1  UNL     1       6.140   5.307  16.380  1.00  0.00    -0.378 OA
HETATM    8  C7  UNL     1       5.354   4.462  17.136  1.00  0.00     0.137 C 
HETATM    9  C8  UNL     1       6.158   3.484  17.982  1.00  0.00     0.048 C 
HETATM   10  C9  UNL     1       5.980   3.722  19.439  1.00  0.00     0.127 C 
HETATM   11  C10 UNL     1       5.630   2.551  20.273  1.00  0.00     0.064 C 
HETATM   12  C11 UNL     1       6.582   1.455  20.421  1.00  0.00     0.121 C 
HETATM   13  C12 UNL     1       7.835   1.480  19.618  1.00  0.00     0.046 C 
HETATM   14  C13 UNL     1       7.738   0.671  18.338  1.00  0.00     0.088 C 
HETATM   15  C17 UNL     1       7.118   1.379  17.206  1.00  0.00     0.020 C 
HETATM   16  C18 UNL     1       5.859   2.122  17.497  1.00  0.00    -0.004 C 
HETATM   17  C19 UNL     1       5.109   2.273  16.165  1.00  0.00     0.017 C 
HETATM   18  C20 UNL     1       4.520   3.650  16.189  1.00  0.00    -0.011 C 
HETATM   19  C21 UNL     1       3.084   3.682  16.605  1.00  0.00     0.018 C 
HETATM   20  C22 UNL     1       6.254   6.045  14.079  1.00  0.00     0.067 C 
ENDROOT
BRANCH  14  21
HETATM   21  C14 UNL     1       9.143   0.336  17.958  1.00  0.00     0.263 C 
HETATM   22  O4  UNL     1      10.080   0.505  18.780  1.00  0.00    -0.265 OA
BRANCH  21  23
HETATM   23  O5  UNL     1       9.469  -0.164  16.707  1.00  0.00    -0.322 OA
BRANCH  23  24
HETATM   24  C15 UNL     1       9.344  -1.552  16.482  1.00  0.00     0.174 C 
HETATM   25  C16 UNL     1      10.669  -2.276  16.566  1.00  0.00     0.034 C 
ENDBRANCH  23  24
ENDBRANCH  21  23
ENDBRANCH  14  21
BRANCH  12  26
HETATM   26  O3  UNL     1       6.896   1.240  21.789  1.00  0.00    -0.395 OA
ATOM     27  H3  UNL     1       7.759   1.581  21.995  1.00  0.00     0.210 HD
ENDBRANCH  12  26
BRANCH  10  28
HETATM   28  O2  UNL     1       7.031   4.492  19.998  1.00  0.00    -0.395 OA
ATOM     29  H2  UNL     1       7.411   4.087  20.768  1.00  0.00     0.210 HD
ENDBRANCH  10  28
BRANCH  20  30
HETATM   30  C23 UNL     1       6.580   7.517  14.039  1.00  0.00     0.190 C 
BRANCH  30  31
HETATM   31  O6  UNL     1       7.843   7.674  14.688  1.00  0.00    -0.321 OA
BRANCH  31  32
HETATM   32  C24 UNL     1       8.997   7.735  13.923  1.00  0.00     0.254 C 
HETATM   33  C25 UNL     1       9.146   8.664  12.768  1.00  0.00     0.126 C 
HETATM   34  O7  UNL     1       9.940   6.964  14.237  1.00  0.00    -0.266 OA
ENDBRANCH  31  32
ENDBRANCH  30  31
ENDBRANCH  20  30
TORSDOF 8
ENDMDL
