MODEL 1
REMARK VINA RESULT: -6.088606946      0.000      0.000
REMARK  9 active torsions:
REMARK  status: ('A' for Active; 'I' for Inactive)
REMARK    1  A    between atoms: C2_2  and  C3_3 
REMARK    2  A    between atoms: C2_2  and  C4_5 
REMARK    3  A    between atoms: C9_11  and  C11_13 
REMARK    4  A    between atoms: C11_13  and  C12_14 
REMARK    5  A    between atoms: C22_25  and  C23_26 
REMARK    6  A    between atoms: C23_26  and  O4_27 
REMARK    7  A    between atoms: C23_26  and  C24_29 
REMARK    8  A    between atoms: C24_29  and  O5_30 
REMARK    9  A    between atoms: C25_32  and  O6_33 
ROOT
HETATM    1  C12 UNL     1       4.194   5.047  21.148  1.00  0.00     0.056 C 
HETATM    2  C13 UNL     1       4.170   4.634  19.767  1.00  0.00     0.133 C 
HETATM    3  O3  UNL     1       4.295   5.300  18.650  1.00  0.00    -0.385 OA
HETATM    4  C14 UNL     1       4.379   4.157  17.743  1.00  0.00     0.168 C 
HETATM    5  C15 UNL     1       5.629   3.470  18.380  1.00  0.00     0.034 C 
HETATM    6  C16 UNL     1       5.423   3.722  19.786  1.00  0.00     0.028 C 
HETATM    7  C17 UNL     1       4.912   2.733  20.758  1.00  0.00    -0.002 C 
HETATM    8  C18 UNL     1       6.158   2.143  21.467  1.00  0.00     0.019 C 
HETATM    9  C19 UNL     1       4.217   1.560  20.177  1.00  0.00     0.017 C 
HETATM   10  C20 UNL     1       3.455   0.886  21.348  1.00  0.00     0.028 C 
HETATM   11  C21 UNL     1       2.354   1.909  21.554  1.00  0.00    -0.018 C 
HETATM   12  C22 UNL     1       2.678   3.175  21.703  1.00  0.00    -0.018 C 
HETATM   13  C25 UNL     1       4.085   3.577  21.733  1.00  0.00     0.097 C 
ENDROOT
BRANCH   1  14
HETATM   14  C11 UNL     1       5.331   5.719  21.763  1.00  0.00     0.027 C 
BRANCH  14  15
HETATM   15  C9  UNL     1       5.456   7.103  21.948  1.00  0.00     0.010 A 
HETATM   16  C4  UNL     1       5.079   7.621  23.488  1.00  0.00    -0.030 A 
HETATM   17  C5  UNL     1       6.401   7.911  23.890  1.00  0.00     0.051 A 
HETATM   18  C6  UNL     1       7.736   8.201  24.293  1.00  0.00     0.067 A 
HETATM   19  O2  UNL     1       6.671   7.569  22.924  1.00  0.00    -0.349 OA
HETATM   20  C7  UNL     1       8.259   7.620  22.651  1.00  0.00     0.040 A 
HETATM   21  C8  UNL     1       7.083   7.303  22.118  1.00  0.00     0.141 A 
HETATM   22  C10 UNL     1       5.098   8.193  21.080  1.00  0.00     0.023 C 
BRANCH  16  23
HETATM   23  C2  UNL     1       3.963   7.724  24.233  1.00  0.00     0.075 C 
HETATM   24  C1  UNL     1       3.718   9.041  25.027  1.00  0.00     0.022 C 
BRANCH  23  25
HETATM   25  C3  UNL     1       2.614   7.465  23.546  1.00  0.00     0.239 C 
HETATM   26  O1  UNL     1       1.573   7.286  23.869  1.00  0.00    -0.306 OA
ENDBRANCH  23  25
ENDBRANCH  16  23
ENDBRANCH  14  15
ENDBRANCH   1  14
BRANCH  13  27
HETATM   27  O6  UNL     1       4.560   3.542  23.024  1.00  0.00    -0.384 OA
ATOM     28  H6  UNL     1       4.478   2.666  23.380  1.00  0.00     0.211 HD
ENDBRANCH  13  27
BRANCH  12  29
HETATM   29  C23 UNL     1       1.510   4.116  21.890  1.00  0.00     0.173 C 
BRANCH  29  30
HETATM   30  O4  UNL     1       0.545   3.893  20.894  1.00  0.00    -0.389 OA
ATOM     31  H4  UNL     1      -0.211   3.452  21.264  1.00  0.00     0.210 HD
ENDBRANCH  29  30
BRANCH  29  32
HETATM   32  C24 UNL     1       0.851   4.016  23.225  1.00  0.00     0.200 C 
BRANCH  32  33
HETATM   33  O5  UNL     1       1.728   4.127  24.277  1.00  0.00    -0.398 OA
ATOM     34  H5  UNL     1       2.493   3.571  24.192  1.00  0.00     0.209 HD
ENDBRANCH  32  33
ENDBRANCH  29  32
ENDBRANCH  12  29
TORSDOF 9
ENDMDL
MODEL 2
REMARK VINA RESULT: -6.032045421      1.778      6.527
REMARK  9 active torsions:
REMARK  status: ('A' for Active; 'I' for Inactive)
REMARK    1  A    between atoms: C2_2  and  C3_3 
REMARK    2  A    between atoms: C2_2  and  C4_5 
REMARK    3  A    between atoms: C9_11  and  C11_13 
REMARK    4  A    between atoms: C11_13  and  C12_14 
REMARK    5  A    between atoms: C22_25  and  C23_26 
REMARK    6  A    between atoms: C23_26  and  O4_27 
REMARK    7  A    between atoms: C23_26  and  C24_29 
REMARK    8  A    between atoms: C24_29  and  O5_30 
REMARK    9  A    between atoms: C25_32  and  O6_33 
ROOT
HETATM    1  C12 UNL     1       4.465   6.555  21.494  1.00  0.00     0.056 C 
HETATM    2  C13 UNL     1       4.360   7.503  22.575  1.00  0.00     0.133 C 
HETATM    3  O3  UNL     1       3.538   7.594  23.586  1.00  0.00    -0.385 OA
HETATM    4  C14 UNL     1       4.224   8.663  24.309  1.00  0.00     0.168 C 
HETATM    5  C15 UNL     1       5.600   7.948  24.491  1.00  0.00     0.034 C 
HETATM    6  C16 UNL     1       5.729   7.228  23.246  1.00  0.00     0.028 C 
HETATM    7  C17 UNL     1       6.575   7.645  22.109  1.00  0.00    -0.002 C 
HETATM    8  C18 UNL     1       7.894   6.841  22.235  1.00  0.00     0.019 C 
HETATM    9  C19 UNL     1       6.998   9.066  22.110  1.00  0.00     0.017 C 
HETATM   10  C20 UNL     1       7.526   9.361  20.682  1.00  0.00     0.028 C 
HETATM   11  C21 UNL     1       6.213   9.361  19.923  1.00  0.00    -0.018 C 
HETATM   12  C22 UNL     1       5.396   8.340  20.058  1.00  0.00    -0.018 C 
HETATM   13  C25 UNL     1       5.782   7.191  20.881  1.00  0.00     0.097 C 
ENDROOT
BRANCH   1  14
HETATM   14  C11 UNL     1       4.679   5.128  21.699  1.00  0.00     0.027 C 
BRANCH  14  15
HETATM   15  C9  UNL     1       4.005   4.099  21.026  1.00  0.00     0.010 A 
HETATM   16  C4  UNL     1       4.988   2.842  20.545  1.00  0.00    -0.030 A 
HETATM   17  C5  UNL     1       4.527   1.902  21.492  1.00  0.00     0.051 A 
HETATM   18  C6  UNL     1       4.059   0.958  22.451  1.00  0.00     0.067 A 
HETATM   19  O2  UNL     1       3.903   2.690  21.831  1.00  0.00    -0.349 OA
HETATM   20  C7  UNL     1       2.971   2.273  23.079  1.00  0.00     0.040 A 
HETATM   21  C8  UNL     1       3.290   3.267  22.256  1.00  0.00     0.141 A 
HETATM   22  C10 UNL     1       2.956   4.163  20.042  1.00  0.00     0.023 C 
BRANCH  16  23
HETATM   23  C2  UNL     1       5.961   2.663  19.633  1.00  0.00     0.075 C 
HETATM   24  C1  UNL     1       6.439   1.212  19.329  1.00  0.00     0.022 C 
BRANCH  23  25
HETATM   25  C3  UNL     1       5.759   3.272  18.238  1.00  0.00     0.239 C 
HETATM   26  O1  UNL     1       5.730   4.288  17.805  1.00  0.00    -0.306 OA
ENDBRANCH  23  25
ENDBRANCH  16  23
ENDBRANCH  14  15
ENDBRANCH   1  14
BRANCH  13  27
HETATM   27  O6  UNL     1       6.446   6.262  20.113  1.00  0.00    -0.384 OA
ATOM     28  H6  UNL     1       7.315   6.107  20.465  1.00  0.00     0.211 HD
ENDBRANCH  13  27
BRANCH  12  29
HETATM   29  C23 UNL     1       4.109   8.440  19.271  1.00  0.00     0.173 C 
BRANCH  29  30
HETATM   30  O4  UNL     1       3.586   9.741  19.364  1.00  0.00    -0.389 OA
ATOM     31  H4  UNL     1       2.933   9.880  18.689  1.00  0.00     0.210 HD
ENDBRANCH  29  30
BRANCH  29  32
HETATM   32  C24 UNL     1       4.244   8.082  17.829  1.00  0.00     0.200 C 
BRANCH  32  33
HETATM   33  O5  UNL     1       4.982   6.942  17.616  1.00  0.00    -0.398 OA
ATOM     34  H5  UNL     1       4.683   6.432  16.873  1.00  0.00     0.209 HD
ENDBRANCH  32  33
ENDBRANCH  29  32
ENDBRANCH  12  29
TORSDOF 9
ENDMDL
MODEL 3
REMARK VINA RESULT: -5.930601563      4.430      8.147
REMARK  9 active torsions:
REMARK  status: ('A' for Active; 'I' for Inactive)
REMARK    1  A    between atoms: C2_2  and  C3_3 
REMARK    2  A    between atoms: C2_2  and  C4_5 
REMARK    3  A    between atoms: C9_11  and  C11_13 
REMARK    4  A    between atoms: C11_13  and  C12_14 
REMARK    5  A    between atoms: C22_25  and  C23_26 
REMARK    6  A    between atoms: C23_26  and  O4_27 
REMARK    7  A    between atoms: C23_26  and  C24_29 
REMARK    8  A    between atoms: C24_29  and  O5_30 
REMARK    9  A    between atoms: C25_32  and  O6_33 
ROOT
HETATM    1  C12 UNL     1       4.796   2.487  15.758  1.00  0.00     0.056 C 
HETATM    2  C13 UNL     1       3.675   3.247  15.264  1.00  0.00     0.133 C 
HETATM    3  O3  UNL     1       2.543   3.600  15.813  1.00  0.00    -0.385 OA
HETATM    4  C14 UNL     1       2.086   4.510  14.764  1.00  0.00     0.168 C 
HETATM    5  C15 UNL     1       3.299   5.492  14.790  1.00  0.00     0.034 C 
HETATM    6  C16 UNL     1       4.403   4.596  15.037  1.00  0.00     0.028 C 
HETATM    7  C17 UNL     1       5.355   4.119  14.013  1.00  0.00    -0.002 C 
HETATM    8  C18 UNL     1       6.604   5.029  14.128  1.00  0.00     0.019 C 
HETATM    9  C19 UNL     1       4.910   4.263  12.606  1.00  0.00     0.017 C 
HETATM   10  C20 UNL     1       5.859   3.374  11.760  1.00  0.00     0.028 C 
HETATM   11  C21 UNL     1       5.355   2.004  12.173  1.00  0.00    -0.018 C 
HETATM   12  C22 UNL     1       5.255   1.720  13.453  1.00  0.00    -0.018 C 
HETATM   13  C25 UNL     1       5.684   2.692  14.461  1.00  0.00     0.097 C 
ENDROOT
BRANCH   1  14
HETATM   14  C11 UNL     1       5.571   2.874  16.929  1.00  0.00     0.027 C 
BRANCH  14  15
HETATM   15  C9  UNL     1       5.465   2.299  18.203  1.00  0.00     0.010 A 
HETATM   16  C4  UNL     1       6.879   1.614  18.761  1.00  0.00    -0.030 A 
HETATM   17  C5  UNL     1       7.163   2.598  19.733  1.00  0.00     0.051 A 
HETATM   18  C6  UNL     1       7.447   3.594  20.712  1.00  0.00     0.067 A 
HETATM   19  O2  UNL     1       6.278   3.065  19.385  1.00  0.00    -0.349 OA
HETATM   20  C7  UNL     1       5.940   4.443  20.151  1.00  0.00     0.040 A 
HETATM   21  C8  UNL     1       5.528   3.608  19.202  1.00  0.00     0.141 A 
HETATM   22  C10 UNL     1       4.406   1.515  18.784  1.00  0.00     0.023 C 
BRANCH  16  23
HETATM   23  C2  UNL     1       7.629   0.541  18.450  1.00  0.00     0.075 C 
HETATM   24  C1  UNL     1       7.671   0.068  16.967  1.00  0.00     0.022 C 
BRANCH  23  25
HETATM   25  C3  UNL     1       9.108   0.556  18.862  1.00  0.00     0.239 C 
HETATM   26  O1  UNL     1      10.063   0.208  18.429  1.00  0.00    -0.306 OA
ENDBRANCH  23  25
ENDBRANCH  16  23
ENDBRANCH  14  15
ENDBRANCH   1  14
BRANCH  13  27
HETATM   27  O6  UNL     1       7.014   2.506  14.760  1.00  0.00    -0.384 OA
ATOM     28  H6  UNL     1       7.394   3.315  15.083  1.00  0.00     0.211 HD
ENDBRANCH  13  27
BRANCH  12  29
HETATM   29  C23 UNL     1       4.732   0.335  13.762  1.00  0.00     0.173 C 
BRANCH  29  30
HETATM   30  O4  UNL     1       3.363   0.257  13.461  1.00  0.00    -0.389 OA
ATOM     31  H4  UNL     1       2.933  -0.355  14.047  1.00  0.00     0.210 HD
ENDBRANCH  29  30
BRANCH  29  32
HETATM   32  C24 UNL     1       5.443  -0.762  13.041  1.00  0.00     0.200 C 
BRANCH  32  33
HETATM   33  O5  UNL     1       6.364  -1.420  13.820  1.00  0.00    -0.398 OA
ATOM     34  H5  UNL     1       6.190  -2.350  13.906  1.00  0.00     0.209 HD
ENDBRANCH  32  33
ENDBRANCH  29  32
ENDBRANCH  12  29
TORSDOF 9
ENDMDL
MODEL 4
REMARK VINA RESULT: -5.869630414      1.925      6.354
REMARK  9 active torsions:
REMARK  status: ('A' for Active; 'I' for Inactive)
REMARK    1  A    between atoms: C2_2  and  C3_3 
REMARK    2  A    between atoms: C2_2  and  C4_5 
REMARK    3  A    between atoms: C9_11  and  C11_13 
REMARK    4  A    between atoms: C11_13  and  C12_14 
REMARK    5  A    between atoms: C22_25  and  C23_26 
REMARK    6  A    between atoms: C23_26  and  O4_27 
REMARK    7  A    between atoms: C23_26  and  C24_29 
REMARK    8  A    between atoms: C24_29  and  O5_30 
REMARK    9  A    between atoms: C25_32  and  O6_33 
ROOT
HETATM    1  C12 UNL     1       3.980   6.175  20.874  1.00  0.00     0.056 C 
HETATM    2  C13 UNL     1       2.999   7.214  20.684  1.00  0.00     0.133 C 
HETATM    3  O3  UNL     1       2.352   7.628  19.628  1.00  0.00    -0.385 OA
HETATM    4  C14 UNL     1       1.417   8.527  20.302  1.00  0.00     0.168 C 
HETATM    5  C15 UNL     1       0.759   7.476  21.251  1.00  0.00     0.034 C 
HETATM    6  C16 UNL     1       1.881   6.633  21.587  1.00  0.00     0.028 C 
HETATM    7  C17 UNL     1       2.630   6.685  22.859  1.00  0.00    -0.002 C 
HETATM    8  C18 UNL     1       2.046   5.559  23.750  1.00  0.00     0.019 C 
HETATM    9  C19 UNL     1       2.460   7.924  23.655  1.00  0.00     0.017 C 
HETATM   10  C20 UNL     1       3.597   7.920  24.710  1.00  0.00     0.028 C 
HETATM   11  C21 UNL     1       4.779   8.216  23.806  1.00  0.00    -0.018 C 
HETATM   12  C22 UNL     1       4.960   7.482  22.730  1.00  0.00    -0.018 C 
HETATM   13  C25 UNL     1       4.068   6.356  22.447  1.00  0.00     0.097 C 
ENDROOT
BRANCH   1  14
HETATM   14  C11 UNL     1       3.729   4.773  20.571  1.00  0.00     0.027 C 
BRANCH  14  15
HETATM   15  C9  UNL     1       4.216   4.082  19.453  1.00  0.00     0.010 A 
HETATM   16  C4  UNL     1       5.103   2.720  19.827  1.00  0.00    -0.030 A 
HETATM   17  C5  UNL     1       4.135   1.778  19.414  1.00  0.00     0.051 A 
HETATM   18  C6  UNL     1       3.156   0.831  18.998  1.00  0.00     0.067 A 
HETATM   19  O2  UNL     1       3.543   2.626  19.185  1.00  0.00    -0.349 OA
HETATM   20  C7  UNL     1       2.092   2.248  18.591  1.00  0.00     0.040 A 
HETATM   21  C8  UNL     1       2.890   3.257  18.927  1.00  0.00     0.141 A 
HETATM   22  C10 UNL     1       4.780   4.579  18.225  1.00  0.00     0.023 C 
BRANCH  16  23
HETATM   23  C2  UNL     1       6.301   2.462  20.382  1.00  0.00     0.075 C 
HETATM   24  C1  UNL     1       7.145   1.282  19.816  1.00  0.00     0.022 C 
BRANCH  23  25
HETATM   25  C3  UNL     1       7.313   3.613  20.473  1.00  0.00     0.239 C 
HETATM   26  O1  UNL     1       7.299   4.666  20.808  1.00  0.00    -0.306 OA
ENDBRANCH  23  25
ENDBRANCH  16  23
ENDBRANCH  14  15
ENDBRANCH   1  14
BRANCH  13  27
HETATM   27  O6  UNL     1       4.555   5.208  23.031  1.00  0.00    -0.384 OA
ATOM     28  H6  UNL     1       3.865   4.560  23.104  1.00  0.00     0.211 HD
ENDBRANCH  13  27
BRANCH  12  29
HETATM   29  C23 UNL     1       6.158   7.863  21.890  1.00  0.00     0.173 C 
BRANCH  29  30
HETATM   30  O4  UNL     1       5.948   9.116  21.290  1.00  0.00    -0.389 OA
ATOM     31  H4  UNL     1       6.288   9.806  21.848  1.00  0.00     0.210 HD
ENDBRANCH  29  30
BRANCH  29  32
HETATM   32  C24 UNL     1       7.446   7.903  22.643  1.00  0.00     0.200 C 
BRANCH  32  33
HETATM   33  O5  UNL     1       7.910   6.659  22.998  1.00  0.00    -0.398 OA
ATOM     34  H5  UNL     1       8.755   6.681  23.430  1.00  0.00     0.209 HD
ENDBRANCH  32  33
ENDBRANCH  29  32
ENDBRANCH  12  29
TORSDOF 9
ENDMDL
MODEL 5
REMARK VINA RESULT: -5.833807327      1.937      6.492
REMARK  9 active torsions:
REMARK  status: ('A' for Active; 'I' for Inactive)
REMARK    1  A    between atoms: C2_2  and  C3_3 
REMARK    2  A    between atoms: C2_2  and  C4_5 
REMARK    3  A    between atoms: C9_11  and  C11_13 
REMARK    4  A    between atoms: C11_13  and  C12_14 
REMARK    5  A    between atoms: C22_25  and  C23_26 
REMARK    6  A    between atoms: C23_26  and  O4_27 
REMARK    7  A    between atoms: C23_26  and  C24_29 
REMARK    8  A    between atoms: C24_29  and  O5_30 
REMARK    9  A    between atoms: C25_32  and  O6_33 
ROOT
HETATM    1  C12 UNL     1       4.816   6.305  21.204  1.00  0.00     0.056 C 
HETATM    2  C13 UNL     1       4.341   7.149  22.271  1.00  0.00     0.133 C 
HETATM    3  O3  UNL     1       3.326   7.044  23.088  1.00  0.00    -0.385 OA
HETATM    4  C14 UNL     1       3.669   8.152  23.978  1.00  0.00     0.168 C 
HETATM    5  C15 UNL     1       5.076   7.642  24.422  1.00  0.00     0.034 C 
HETATM    6  C16 UNL     1       5.571   7.038  23.207  1.00  0.00     0.028 C 
HETATM    7  C17 UNL     1       6.552   7.656  22.292  1.00  0.00    -0.002 C 
HETATM    8  C18 UNL     1       7.930   7.053  22.665  1.00  0.00     0.019 C 
HETATM    9  C19 UNL     1       6.730   9.121  22.434  1.00  0.00     0.017 C 
HETATM   10  C20 UNL     1       7.482   9.591  21.162  1.00  0.00     0.028 C 
HETATM   11  C21 UNL     1       6.369   9.446  20.142  1.00  0.00    -0.018 C 
HETATM   12  C22 UNL     1       5.718   8.306  20.064  1.00  0.00    -0.018 C 
HETATM   13  C25 UNL     1       6.109   7.174  20.907  1.00  0.00     0.097 C 
ENDROOT
BRANCH   1  14
HETATM   14  C11 UNL     1       5.212   4.917  21.396  1.00  0.00     0.027 C 
BRANCH  14  15
HETATM   15  C9  UNL     1       4.677   3.816  20.714  1.00  0.00     0.010 A 
HETATM   16  C4  UNL     1       5.185   3.684  19.130  1.00  0.00    -0.030 A 
HETATM   17  C5  UNL     1       6.032   2.571  19.324  1.00  0.00     0.051 A 
HETATM   18  C6  UNL     1       6.886   1.448  19.523  1.00  0.00     0.067 A 
HETATM   19  O2  UNL     1       5.740   2.643  20.340  1.00  0.00    -0.349 OA
HETATM   20  C7  UNL     1       6.427   1.528  21.281  1.00  0.00     0.040 A 
HETATM   21  C8  UNL     1       5.592   2.562  21.268  1.00  0.00     0.141 A 
HETATM   22  C10 UNL     1       3.348   3.264  20.736  1.00  0.00     0.023 C 
BRANCH  16  23
HETATM   23  C2  UNL     1       4.985   4.362  17.986  1.00  0.00     0.075 C 
HETATM   24  C1  UNL     1       5.409   3.697  16.643  1.00  0.00     0.022 C 
BRANCH  23  25
HETATM   25  C3  UNL     1       3.569   4.882  17.697  1.00  0.00     0.239 C 
HETATM   26  O1  UNL     1       3.123   5.698  17.101  1.00  0.00    -0.306 OA
ENDBRANCH  23  25
ENDBRANCH  16  23
ENDBRANCH  14  15
ENDBRANCH   1  14
BRANCH  13  27
HETATM   27  O6  UNL     1       7.058   6.412  20.264  1.00  0.00    -0.384 OA
ATOM     28  H6  UNL     1       7.229   5.618  20.757  1.00  0.00     0.211 HD
ENDBRANCH  13  27
BRANCH  12  29
HETATM   29  C23 UNL     1       4.619   8.266  19.026  1.00  0.00     0.173 C 
BRANCH  29  30
HETATM   30  O4  UNL     1       3.538   9.065  19.436  1.00  0.00    -0.389 OA
ATOM     31  H4  UNL     1       3.461   9.825  18.872  1.00  0.00     0.210 HD
ENDBRANCH  29  30
BRANCH  29  32
HETATM   32  C24 UNL     1       5.047   8.703  17.665  1.00  0.00     0.200 C 
BRANCH  32  33
HETATM   33  O5  UNL     1       5.439   7.665  16.856  1.00  0.00    -0.398 OA
ATOM     34  H5  UNL     1       6.090   7.100  17.255  1.00  0.00     0.209 HD
ENDBRANCH  32  33
ENDBRANCH  29  32
ENDBRANCH  12  29
TORSDOF 9
ENDMDL
