MODEL 1
REMARK VINA RESULT: -7.898195832      0.000      0.000
REMARK  8 active torsions:
REMARK  status: ('A' for Active; 'I' for Inactive)
REMARK    1  A    between atoms: C2_2  and  C3_4 
REMARK    2  A    between atoms: C3_4  and  C4_5 
REMARK    3  A    between atoms: C4_5  and  O2_6 
REMARK    4  A    between atoms: C7_10  and  C8_11 
REMARK    5  A    between atoms: C9_12  and  C10_13 
REMARK    6  A    between atoms: C22_26  and  O4_27 
REMARK    7  A    between atoms: C23_29  and  O5_30 
REMARK    8  A    between atoms: O5_30  and  C24_31 
ROOT
HETATM    1  C10 UNL     1       6.527   4.664  20.242  1.00  0.00     0.050 C 
HETATM    2  C11 UNL     1       5.976   4.694  18.889  1.00  0.00     0.049 C 
HETATM    3  C12 UNL     1       4.878   5.723  18.712  1.00  0.00     0.177 C 
HETATM    4  O3  UNL     1       4.711   5.983  17.350  1.00  0.00    -0.387 OA
HETATM    5  C13 UNL     1       4.446   4.886  16.584  1.00  0.00     0.195 C 
HETATM    6  C14 UNL     1       4.727   3.575  17.227  1.00  0.00     0.003 C 
HETATM    7  C15 UNL     1       5.449   3.414  18.326  1.00  0.00    -0.070 C 
HETATM    8  C16 UNL     1       5.621   2.055  18.811  1.00  0.00     0.025 C 
HETATM    9  C17 UNL     1       5.622   0.926  17.882  1.00  0.00     0.036 C 
HETATM   10  C18 UNL     1       6.925   0.681  17.191  1.00  0.00    -0.030 C 
HETATM   11  C19 UNL     1       7.967   0.567  18.003  1.00  0.00    -0.030 C 
HETATM   12  C20 UNL     1       7.661   0.702  19.455  1.00  0.00     0.035 C 
HETATM   13  C21 UNL     1       6.933   2.023  19.585  1.00  0.00     0.029 C 
HETATM   14  C22 UNL     1       6.638   2.322  21.006  1.00  0.00     0.153 C 
HETATM   15  C23 UNL     1       5.961   3.652  21.205  1.00  0.00     0.169 C 
ENDROOT
BRANCH   1  16
HETATM   16  C9  UNL     1       6.416   6.022  20.854  1.00  0.00    -0.022 C 
HETATM   17  C8  UNL     1       7.455   6.663  21.358  1.00  0.00    -0.023 C 
BRANCH  17  18
HETATM   18  C7  UNL     1       7.491   7.981  21.980  1.00  0.00     0.043 C 
HETATM   19  C4  UNL     1       7.203   7.835  23.489  1.00  0.00     0.071 C 
HETATM   20  C5  UNL     1       5.798   8.341  23.149  1.00  0.00     0.040 C 
HETATM   21  C6  UNL     1       6.317   8.885  21.819  1.00  0.00     0.014 C 
BRANCH  19  22
HETATM   22  C3  UNL     1       7.972   8.785  24.347  1.00  0.00     0.116 C 
BRANCH  22  23
HETATM   23  C2  UNL     1       9.233   8.230  24.860  1.00  0.00     0.126 C 
HETATM   24  C1  UNL     1      10.552   8.753  24.415  1.00  0.00     0.091 C 
HETATM   25  O1  UNL     1       9.242   7.314  25.675  1.00  0.00    -0.298 OA
ENDBRANCH  22  23
ENDBRANCH  19  22
BRANCH  19  26
HETATM   26  O2  UNL     1       7.246   6.538  23.936  1.00  0.00    -0.389 OA
ATOM     27  H2  UNL     1       7.558   5.923  23.283  1.00  0.00     0.210 HD
ENDBRANCH  19  26
ENDBRANCH  17  18
ENDBRANCH   1  16
BRANCH  15  28
HETATM   28  O5  UNL     1       4.572   3.609  21.255  1.00  0.00    -0.313 OA
BRANCH  28  29
HETATM   29  C24 UNL     1       3.816   3.944  22.383  1.00  0.00     0.255 C 
HETATM   30  C25 UNL     1       3.269   5.303  22.608  1.00  0.00     0.126 C 
HETATM   31  O6  UNL     1       3.632   2.989  23.206  1.00  0.00    -0.266 OA
ENDBRANCH  28  29
ENDBRANCH  15  28
BRANCH  14  32
HETATM   32  O4  UNL     1       5.824   1.318  21.510  1.00  0.00    -0.393 OA
ATOM     33  H4  UNL     1       5.944   0.537  20.984  1.00  0.00     0.210 HD
ENDBRANCH  14  32
TORSDOF 8
ENDMDL
MODEL 2
REMARK VINA RESULT: -7.803362296      1.654      2.374
REMARK  8 active torsions:
REMARK  status: ('A' for Active; 'I' for Inactive)
REMARK    1  A    between atoms: C2_2  and  C3_4 
REMARK    2  A    between atoms: C3_4  and  C4_5 
REMARK    3  A    between atoms: C4_5  and  O2_6 
REMARK    4  A    between atoms: C7_10  and  C8_11 
REMARK    5  A    between atoms: C9_12  and  C10_13 
REMARK    6  A    between atoms: C22_26  and  O4_27 
REMARK    7  A    between atoms: C23_29  and  O5_30 
REMARK    8  A    between atoms: O5_30  and  C24_31 
ROOT
HETATM    1  C10 UNL     1       6.311   4.580  20.200  1.00  0.00     0.050 C 
HETATM    2  C11 UNL     1       5.761   4.584  18.847  1.00  0.00     0.049 C 
HETATM    3  C12 UNL     1       4.588   5.528  18.680  1.00  0.00     0.177 C 
HETATM    4  O3  UNL     1       4.403   5.792  17.320  1.00  0.00    -0.387 OA
HETATM    5  C13 UNL     1       4.224   4.687  16.540  1.00  0.00     0.195 C 
HETATM    6  C14 UNL     1       4.603   3.393  17.168  1.00  0.00     0.003 C 
HETATM    7  C15 UNL     1       5.334   3.275  18.267  1.00  0.00    -0.070 C 
HETATM    8  C16 UNL     1       5.608   1.927  18.736  1.00  0.00     0.025 C 
HETATM    9  C17 UNL     1       5.697   0.813  17.793  1.00  0.00     0.036 C 
HETATM   10  C18 UNL     1       7.015   0.676  17.103  1.00  0.00    -0.030 C 
HETATM   11  C19 UNL     1       8.062   0.632  17.916  1.00  0.00    -0.030 C 
HETATM   12  C20 UNL     1       7.745   0.726  19.369  1.00  0.00     0.035 C 
HETATM   13  C21 UNL     1       6.918   1.986  19.513  1.00  0.00     0.029 C 
HETATM   14  C22 UNL     1       6.599   2.244  20.936  1.00  0.00     0.153 C 
HETATM   15  C23 UNL     1       5.823   3.517  21.149  1.00  0.00     0.169 C 
ENDROOT
BRANCH   1  16
HETATM   16  C9  UNL     1       6.096   5.918  20.828  1.00  0.00    -0.022 C 
HETATM   17  C8  UNL     1       7.061   6.581  21.440  1.00  0.00    -0.023 C 
BRANCH  17  18
HETATM   18  C7  UNL     1       6.993   7.884  22.091  1.00  0.00     0.043 C 
HETATM   19  C4  UNL     1       8.227   8.716  21.684  1.00  0.00     0.071 C 
HETATM   20  C5  UNL     1       8.775   8.362  23.070  1.00  0.00     0.040 C 
HETATM   21  C6  UNL     1       7.366   7.989  23.531  1.00  0.00     0.014 C 
BRANCH  19  22
HETATM   22  C3  UNL     1       7.946  10.174  21.524  1.00  0.00     0.116 C 
BRANCH  22  23
HETATM   23  C2  UNL     1       7.738  10.585  20.128  1.00  0.00     0.126 C 
HETATM   24  C1  UNL     1       6.439  10.367  19.438  1.00  0.00     0.091 C 
HETATM   25  O1  UNL     1       8.630  11.123  19.480  1.00  0.00    -0.298 OA
ENDBRANCH  22  23
ENDBRANCH  19  22
BRANCH  19  26
HETATM   26  O2  UNL     1       8.936   8.177  20.639  1.00  0.00    -0.389 OA
ATOM     27  H2  UNL     1       9.360   7.355  20.854  1.00  0.00     0.210 HD
ENDBRANCH  19  26
ENDBRANCH  17  18
ENDBRANCH   1  16
BRANCH  15  28
HETATM   28  O5  UNL     1       4.441   3.366  21.196  1.00  0.00    -0.313 OA
BRANCH  28  29
HETATM   29  C24 UNL     1       3.661   3.617  22.330  1.00  0.00     0.255 C 
HETATM   30  C25 UNL     1       2.928   4.889  22.535  1.00  0.00     0.126 C 
HETATM   31  O6  UNL     1       3.628   2.667  23.176  1.00  0.00    -0.266 OA
ENDBRANCH  28  29
ENDBRANCH  15  28
BRANCH  14  32
HETATM   32  O4  UNL     1       5.863   1.176  21.426  1.00  0.00    -0.393 OA
ATOM     33  H4  UNL     1       5.292   1.491  22.117  1.00  0.00     0.210 HD
ENDBRANCH  14  32
TORSDOF 8
ENDMDL
MODEL 3
REMARK VINA RESULT: -7.537469858      1.210      1.399
REMARK  8 active torsions:
REMARK  status: ('A' for Active; 'I' for Inactive)
REMARK    1  A    between atoms: C2_2  and  C3_4 
REMARK    2  A    between atoms: C3_4  and  C4_5 
REMARK    3  A    between atoms: C4_5  and  O2_6 
REMARK    4  A    between atoms: C7_10  and  C8_11 
REMARK    5  A    between atoms: C9_12  and  C10_13 
REMARK    6  A    between atoms: C22_26  and  O4_27 
REMARK    7  A    between atoms: C23_29  and  O5_30 
REMARK    8  A    between atoms: O5_30  and  C24_31 
ROOT
HETATM    1  C10 UNL     1       6.083   4.465  19.755  1.00  0.00     0.050 C 
HETATM    2  C11 UNL     1       5.507   4.301  18.422  1.00  0.00     0.049 C 
HETATM    3  C12 UNL     1       4.231   5.091  18.219  1.00  0.00     0.177 C 
HETATM    4  O3  UNL     1       3.989   5.224  16.849  1.00  0.00    -0.387 OA
HETATM    5  C13 UNL     1       3.920   4.048  16.161  1.00  0.00     0.195 C 
HETATM    6  C14 UNL     1       4.458   2.859  16.874  1.00  0.00     0.003 C 
HETATM    7  C15 UNL     1       5.220   2.910  17.956  1.00  0.00    -0.070 C 
HETATM    8  C16 UNL     1       5.657   1.643  18.518  1.00  0.00     0.025 C 
HETATM    9  C17 UNL     1       5.853   0.475  17.660  1.00  0.00     0.036 C 
HETATM   10  C18 UNL     1       7.164   0.434  16.943  1.00  0.00    -0.030 C 
HETATM   11  C19 UNL     1       8.225   0.571  17.725  1.00  0.00    -0.030 C 
HETATM   12  C20 UNL     1       7.930   0.743  19.175  1.00  0.00     0.035 C 
HETATM   13  C21 UNL     1       6.967   1.909  19.248  1.00  0.00     0.029 C 
HETATM   14  C22 UNL     1       6.651   2.242  20.657  1.00  0.00     0.153 C 
HETATM   15  C23 UNL     1       5.739   3.432  20.796  1.00  0.00     0.169 C 
ENDROOT
BRANCH   1  16
HETATM   16  C9  UNL     1       5.729   5.816  20.286  1.00  0.00    -0.022 C 
HETATM   17  C8  UNL     1       5.922   6.159  21.547  1.00  0.00    -0.023 C 
BRANCH  17  18
HETATM   18  C7  UNL     1       5.627   7.431  22.195  1.00  0.00     0.043 C 
HETATM   19  C4  UNL     1       6.553   7.601  23.418  1.00  0.00     0.071 C 
HETATM   20  C5  UNL     1       5.329   7.209  24.251  1.00  0.00     0.040 C 
HETATM   21  C6  UNL     1       4.420   7.531  23.065  1.00  0.00     0.014 C 
BRANCH  19  22
HETATM   22  C3  UNL     1       6.991   9.009  23.653  1.00  0.00     0.116 C 
BRANCH  22  23
HETATM   23  C2  UNL     1       8.198   9.385  22.902  1.00  0.00     0.126 C 
HETATM   24  C1  UNL     1       8.131   9.779  21.470  1.00  0.00     0.091 C 
HETATM   25  O1  UNL     1       9.305   9.387  23.430  1.00  0.00    -0.298 OA
ENDBRANCH  22  23
ENDBRANCH  19  22
BRANCH  19  26
HETATM   26  O2  UNL     1       7.583   6.693  23.461  1.00  0.00    -0.389 OA
ATOM     27  H2  UNL     1       8.250   6.908  24.103  1.00  0.00     0.210 HD
ENDBRANCH  19  26
ENDBRANCH  17  18
ENDBRANCH   1  16
BRANCH  15  28
HETATM   28  O5  UNL     1       4.385   3.131  20.895  1.00  0.00    -0.313 OA
BRANCH  28  29
HETATM   29  C24 UNL     1       3.603   3.388  22.027  1.00  0.00     0.255 C 
HETATM   30  C25 UNL     1       2.546   4.427  22.053  1.00  0.00     0.126 C 
HETATM   31  O6  UNL     1       3.870   2.660  23.036  1.00  0.00    -0.266 OA
ENDBRANCH  28  29
ENDBRANCH  15  28
BRANCH  14  32
HETATM   32  O4  UNL     1       6.052   1.139  21.248  1.00  0.00    -0.393 OA
ATOM     33  H4  UNL     1       6.632   0.804  21.922  1.00  0.00     0.210 HD
ENDBRANCH  14  32
TORSDOF 8
ENDMDL
MODEL 4
REMARK VINA RESULT: -7.198251221      1.247      1.400
REMARK  8 active torsions:
REMARK  status: ('A' for Active; 'I' for Inactive)
REMARK    1  A    between atoms: C2_2  and  C3_4 
REMARK    2  A    between atoms: C3_4  and  C4_5 
REMARK    3  A    between atoms: C4_5  and  O2_6 
REMARK    4  A    between atoms: C7_10  and  C8_11 
REMARK    5  A    between atoms: C9_12  and  C10_13 
REMARK    6  A    between atoms: C22_26  and  O4_27 
REMARK    7  A    between atoms: C23_29  and  O5_30 
REMARK    8  A    between atoms: O5_30  and  C24_31 
ROOT
HETATM    1  C10 UNL     1       5.442   4.630  19.749  1.00  0.00     0.050 C 
HETATM    2  C11 UNL     1       4.653   4.560  18.521  1.00  0.00     0.049 C 
HETATM    3  C12 UNL     1       3.420   5.439  18.550  1.00  0.00     0.177 C 
HETATM    4  O3  UNL     1       2.974   5.645  17.242  1.00  0.00    -0.387 OA
HETATM    5  C13 UNL     1       2.714   4.506  16.538  1.00  0.00     0.195 C 
HETATM    6  C14 UNL     1       3.272   3.255  17.118  1.00  0.00     0.003 C 
HETATM    7  C15 UNL     1       4.198   3.211  18.064  1.00  0.00    -0.070 C 
HETATM    8  C16 UNL     1       4.628   1.896  18.509  1.00  0.00     0.025 C 
HETATM    9  C17 UNL     1       4.601   0.755  17.595  1.00  0.00     0.036 C 
HETATM   10  C18 UNL     1       5.776   0.658  16.676  1.00  0.00    -0.030 C 
HETATM   11  C19 UNL     1       6.955   0.694  17.281  1.00  0.00    -0.030 C 
HETATM   12  C20 UNL     1       6.906   0.823  18.764  1.00  0.00     0.035 C 
HETATM   13  C21 UNL     1       6.052   2.046  19.027  1.00  0.00     0.029 C 
HETATM   14  C22 UNL     1       5.987   2.338  20.478  1.00  0.00     0.153 C 
HETATM   15  C23 UNL     1       5.195   3.578  20.799  1.00  0.00     0.169 C 
ENDROOT
BRANCH   1  16
HETATM   16  C9  UNL     1       5.274   5.977  20.371  1.00  0.00    -0.022 C 
HETATM   17  C8  UNL     1       5.994   6.381  21.402  1.00  0.00    -0.023 C 
BRANCH  17  18
HETATM   18  C7  UNL     1       5.937   7.658  22.103  1.00  0.00     0.043 C 
HETATM   19  C4  UNL     1       6.923   7.627  23.290  1.00  0.00     0.071 C 
HETATM   20  C5  UNL     1       5.682   7.408  24.161  1.00  0.00     0.040 C 
HETATM   21  C6  UNL     1       4.796   7.920  23.026  1.00  0.00     0.014 C 
BRANCH  19  22
HETATM   22  C3  UNL     1       7.595   8.934  23.552  1.00  0.00     0.116 C 
BRANCH  22  23
HETATM   23  C2  UNL     1       9.027   8.938  23.217  1.00  0.00     0.126 C 
HETATM   24  C1  UNL     1      10.072   8.974  24.274  1.00  0.00     0.091 C 
HETATM   25  O1  UNL     1       9.411   8.913  22.053  1.00  0.00    -0.298 OA
ENDBRANCH  22  23
ENDBRANCH  19  22
BRANCH  19  26
HETATM   26  O2  UNL     1       7.789   6.562  23.260  1.00  0.00    -0.389 OA
ATOM     27  H2  UNL     1       7.817   6.121  22.419  1.00  0.00     0.210 HD
ENDBRANCH  19  26
ENDBRANCH  17  18
ENDBRANCH   1  16
BRANCH  15  28
HETATM   28  O5  UNL     1       3.856   3.363  21.105  1.00  0.00    -0.313 OA
BRANCH  28  29
HETATM   29  C24 UNL     1       3.288   3.605  22.360  1.00  0.00     0.255 C 
HETATM   30  C25 UNL     1       2.552   4.851  22.682  1.00  0.00     0.126 C 
HETATM   31  O6  UNL     1       3.451   2.670  23.210  1.00  0.00    -0.266 OA
ENDBRANCH  28  29
ENDBRANCH  15  28
BRANCH  14  32
HETATM   32  O4  UNL     1       5.413   1.253  21.124  1.00  0.00    -0.393 OA
ATOM     33  H4  UNL     1       5.324   1.461  22.046  1.00  0.00     0.210 HD
ENDBRANCH  14  32
TORSDOF 8
ENDMDL
MODEL 5
REMARK VINA RESULT: -6.947450801      4.518      6.887
REMARK  8 active torsions:
REMARK  status: ('A' for Active; 'I' for Inactive)
REMARK    1  A    between atoms: C2_2  and  C3_4 
REMARK    2  A    between atoms: C3_4  and  C4_5 
REMARK    3  A    between atoms: C4_5  and  O2_6 
REMARK    4  A    between atoms: C7_10  and  C8_11 
REMARK    5  A    between atoms: C9_12  and  C10_13 
REMARK    6  A    between atoms: C22_26  and  O4_27 
REMARK    7  A    between atoms: C23_29  and  O5_30 
REMARK    8  A    between atoms: O5_30  and  C24_31 
ROOT
HETATM    1  C10 UNL     1       6.109  10.315  18.193  1.00  0.00     0.050 C 
HETATM    2  C11 UNL     1       5.062  11.250  17.788  1.00  0.00     0.049 C 
HETATM    3  C12 UNL     1       3.812  11.156  18.639  1.00  0.00     0.177 C 
HETATM    4  O3  UNL     1       3.060  12.323  18.478  1.00  0.00    -0.387 OA
HETATM    5  C13 UNL     1       2.723  12.614  17.189  1.00  0.00     0.195 C 
HETATM    6  C14 UNL     1       3.485  11.879  16.146  1.00  0.00     0.003 C 
HETATM    7  C15 UNL     1       4.607  11.209  16.365  1.00  0.00    -0.070 C 
HETATM    8  C16 UNL     1       5.218  10.550  15.222  1.00  0.00     0.025 C 
HETATM    9  C17 UNL     1       5.058  11.094  13.875  1.00  0.00     0.036 C 
HETATM   10  C18 UNL     1       5.989  12.212  13.533  1.00  0.00    -0.030 C 
HETATM   11  C19 UNL     1       7.271  11.943  13.736  1.00  0.00    -0.030 C 
HETATM   12  C20 UNL     1       7.561  10.582  14.266  1.00  0.00     0.035 C 
HETATM   13  C21 UNL     1       6.710  10.453  15.512  1.00  0.00     0.029 C 
HETATM   14  C22 UNL     1       6.965   9.160  16.190  1.00  0.00     0.153 C 
HETATM   15  C23 UNL     1       6.187   8.997  17.468  1.00  0.00     0.169 C 
ENDROOT
BRANCH   1  16
HETATM   16  C9  UNL     1       5.998  10.050  19.659  1.00  0.00    -0.022 C 
HETATM   17  C8  UNL     1       6.777   9.189  20.288  1.00  0.00    -0.023 C 
BRANCH  17  18
HETATM   18  C7  UNL     1       6.780   8.835  21.703  1.00  0.00     0.043 C 
HETATM   19  C4  UNL     1       8.238   8.647  22.173  1.00  0.00     0.071 C 
HETATM   20  C5  UNL     1       7.949   7.146  22.083  1.00  0.00     0.040 C 
HETATM   21  C6  UNL     1       6.448   7.435  22.093  1.00  0.00     0.014 C 
BRANCH  19  22
HETATM   22  C3  UNL     1       8.486   9.110  23.571  1.00  0.00     0.116 C 
BRANCH  22  23
HETATM   23  C2  UNL     1       9.837   8.804  24.063  1.00  0.00     0.126 C 
HETATM   24  C1  UNL     1      10.054   8.113  25.362  1.00  0.00     0.091 C 
HETATM   25  O1  UNL     1      10.835   9.107  23.419  1.00  0.00    -0.298 OA
ENDBRANCH  22  23
ENDBRANCH  19  22
BRANCH  19  26
HETATM   26  O2  UNL     1       9.171   9.101  21.274  1.00  0.00    -0.389 OA
ATOM     27  H2  UNL     1      10.036   9.213  21.650  1.00  0.00     0.210 HD
ENDBRANCH  19  26
ENDBRANCH  17  18
ENDBRANCH   1  16
BRANCH  15  28
HETATM   28  O5  UNL     1       4.974   8.328  17.341  1.00  0.00    -0.313 OA
BRANCH  28  29
HETATM   29  C24 UNL     1       4.712   7.065  17.883  1.00  0.00     0.255 C 
HETATM   30  C25 UNL     1       4.029   6.875  19.185  1.00  0.00     0.126 C 
HETATM   31  O6  UNL     1       5.107   6.086  17.170  1.00  0.00    -0.266 OA
ENDBRANCH  28  29
ENDBRANCH  15  28
BRANCH  14  32
HETATM   32  O4  UNL     1       6.634   8.131  15.321  1.00  0.00    -0.393 OA
ATOM     33  H4  UNL     1       6.864   7.304  15.728  1.00  0.00     0.210 HD
ENDBRANCH  14  32
TORSDOF 8
ENDMDL
