MODEL 1
REMARK VINA RESULT: -7.154461595      0.000      0.000
REMARK  7 active torsions:
REMARK  status: ('A' for Active; 'I' for Inactive)
REMARK    1  A    between atoms: O1_2  and  C2_3 
REMARK    2  A    between atoms: C5_8  and  C6_9 
REMARK    3  A    between atoms: C6_9  and  N2_11 
REMARK    4  A    between atoms: N2_11  and  C8_12 
REMARK    5  A    between atoms: N2_11  and  C21_29 
REMARK       I    between atoms: N3_18  and  C14_19 
REMARK    6  A    between atoms: C14_19  and  O3_21 
REMARK    7  A    between atoms: O3_21  and  C15_22 
ROOT
HETATM    1  C8  UNL     1       4.969   5.681  21.423  1.00  0.00     0.229 C 
HETATM    2  C9  UNL     1       4.026   5.024  22.357  1.00  0.00     0.042 C 
HETATM    3  C10 UNL     1       3.282   3.881  21.670  1.00  0.00     0.008 C 
HETATM    4  C11 UNL     1       2.374   4.578  20.645  1.00  0.00     0.031 C 
HETATM    5  C12 UNL     1       3.393   4.906  19.615  1.00  0.00     0.091 C 
HETATM    6  C13 UNL     1       4.462   5.883  20.043  1.00  0.00     0.061 C 
HETATM    7  N3  UNL     1       4.035   3.616  19.432  1.00  0.00    -0.323 N 
HETATM    8  C14 UNL     1       4.410   3.051  18.187  1.00  0.00     0.363 C 
HETATM    9  O2  UNL     1       4.187   3.672  17.123  1.00  0.00    -0.238 OA
HETATM   10  C20 UNL     1       4.184   3.071  20.767  1.00  0.00     0.133 C 
ENDROOT
BRANCH   1  11
HETATM   11  N2  UNL     1       5.547   6.945  21.915  1.00  0.00     0.134 N 
BRANCH  11  12
HETATM   12  C6  UNL     1       6.915   7.028  21.979  1.00  0.00     0.259 C 
HETATM   13  C7  UNL     1       7.959   6.348  21.216  1.00  0.00     0.048 C 
BRANCH  12  14
HETATM   14  C5  UNL     1       7.163   8.485  21.405  1.00  0.00     0.027 A 
HETATM   15  C2  UNL     1       7.876   9.506  21.914  1.00  0.00     0.150 A 
HETATM   16  N1  UNL     1       7.905  10.515  20.988  1.00  0.00    -0.346 N 
HETATM   17  C3  UNL     1       7.219  10.154  19.901  1.00  0.00     0.091 A 
ATOM     18  H1  UNL     1       8.380  11.409  21.110  1.00  0.00     0.167 HD
HETATM   19  C4  UNL     1       6.745   8.874  20.154  1.00  0.00     0.030 A 
BRANCH  15  20
HETATM   20  O1  UNL     1       8.494   9.599  23.153  1.00  0.00    -0.340 OA
HETATM   21  C1  UNL     1       9.600   8.803  23.473  1.00  0.00     0.211 C 
ENDBRANCH  15  20
ENDBRANCH  12  14
ENDBRANCH  11  12
BRANCH  11  22
HETATM   22  C21 UNL     1       5.013   6.862  23.337  1.00  0.00     0.446 A 
HETATM   23  C22 UNL     1       4.743   7.907  24.221  1.00  0.00     0.300 A 
HETATM   24  N4  UNL     1       5.917   7.021  24.426  1.00  0.00    -0.038 N 
ATOM     25  H42 UNL     1       6.281   6.437  25.178  1.00  0.00     0.279 HD
ATOM     26  H41 UNL     1       6.924   7.139  24.543  1.00  0.00     0.279 HD
ENDBRANCH  11  22
ENDBRANCH   1  11
BRANCH   8  27
HETATM   27  O3  UNL     1       5.036   1.796  18.065  1.00  0.00    -0.296 OA
BRANCH  27  28
HETATM   28  C15 UNL     1       6.461   1.752  17.931  1.00  0.00     0.157 C 
HETATM   29  C16 UNL     1       7.073   0.978  19.089  1.00  0.00     0.037 C 
HETATM   30  C17 UNL     1       8.472   0.525  18.759  1.00  0.00     0.029 C 
HETATM   31  C18 UNL     1       8.638   0.085  17.329  1.00  0.00     0.167 C 
HETATM   32  O4  UNL     1       7.359  -0.134  16.793  1.00  0.00    -0.389 OA
HETATM   33  C19 UNL     1       6.825   1.160  16.593  1.00  0.00     0.200 C 
ENDBRANCH  27  28
ENDBRANCH   8  27
TORSDOF 7
ENDMDL
MODEL 2
REMARK VINA RESULT: -6.604260925      4.406      7.619
REMARK  7 active torsions:
REMARK  status: ('A' for Active; 'I' for Inactive)
REMARK    1  A    between atoms: O1_2  and  C2_3 
REMARK    2  A    between atoms: C5_8  and  C6_9 
REMARK    3  A    between atoms: C6_9  and  N2_11 
REMARK    4  A    between atoms: N2_11  and  C8_12 
REMARK    5  A    between atoms: N2_11  and  C21_29 
REMARK       I    between atoms: N3_18  and  C14_19 
REMARK    6  A    between atoms: C14_19  and  O3_21 
REMARK    7  A    between atoms: O3_21  and  C15_22 
ROOT
HETATM    1  C8  UNL     1       4.698   6.860  22.727  1.00  0.00     0.229 C 
HETATM    2  C9  UNL     1       4.952   5.706  21.833  1.00  0.00     0.042 C 
HETATM    3  C10 UNL     1       6.222   5.919  21.014  1.00  0.00     0.008 C 
HETATM    4  C11 UNL     1       5.871   7.067  20.056  1.00  0.00     0.031 C 
HETATM    5  C12 UNL     1       5.962   8.203  21.009  1.00  0.00     0.091 C 
HETATM    6  C13 UNL     1       4.951   8.195  22.131  1.00  0.00     0.061 C 
HETATM    7  N3  UNL     1       7.267   7.970  21.602  1.00  0.00    -0.323 N 
HETATM    8  C14 UNL     1       8.238   8.966  21.874  1.00  0.00     0.363 C 
HETATM    9  O2  UNL     1       8.005  10.163  21.595  1.00  0.00    -0.238 OA
HETATM   10  C20 UNL     1       7.333   6.539  21.828  1.00  0.00     0.133 C 
ENDROOT
BRANCH   1  11
HETATM   11  N2  UNL     1       3.372   6.862  23.371  1.00  0.00     0.134 N 
BRANCH  11  12
HETATM   12  C6  UNL     1       2.283   7.096  22.569  1.00  0.00     0.259 C 
HETATM   13  C7  UNL     1       2.034   6.775  21.166  1.00  0.00     0.048 C 
BRANCH  12  14
HETATM   14  C5  UNL     1       1.219   6.101  23.196  1.00  0.00     0.027 A 
HETATM   15  C2  UNL     1       0.125   6.358  23.934  1.00  0.00     0.150 A 
HETATM   16  N1  UNL     1      -0.552   5.182  24.125  1.00  0.00    -0.346 N 
HETATM   17  C3  UNL     1       0.097   4.182  23.524  1.00  0.00     0.091 A 
ATOM     18  H1  UNL     1      -1.422   5.085  24.649  1.00  0.00     0.167 HD
HETATM   19  C4  UNL     1       1.217   4.751  22.935  1.00  0.00     0.030 A 
BRANCH  15  20
HETATM   20  O1  UNL     1      -0.304   7.571  24.456  1.00  0.00    -0.340 OA
HETATM   21  C1  UNL     1      -0.547   7.726  25.825  1.00  0.00     0.211 C 
ENDBRANCH  15  20
ENDBRANCH  12  14
ENDBRANCH  11  12
BRANCH  11  22
HETATM   22  C21 UNL     1       3.583   8.088  24.248  1.00  0.00     0.446 A 
HETATM   23  C22 UNL     1       3.113   8.317  25.542  1.00  0.00     0.300 A 
HETATM   24  N4  UNL     1       2.525   9.033  24.382  1.00  0.00    -0.038 N 
ATOM     25  H42 UNL     1       2.362  10.004  24.116  1.00  0.00     0.279 HD
ATOM     26  H41 UNL     1       1.594   9.166  23.986  1.00  0.00     0.279 HD
ENDBRANCH  11  22
ENDBRANCH   1  11
BRANCH   8  27
HETATM   27  O3  UNL     1       9.489   8.686  22.456  1.00  0.00    -0.296 OA
BRANCH  27  28
HETATM   28  C15 UNL     1       9.678   8.976  23.847  1.00  0.00     0.157 C 
HETATM   29  C16 UNL     1       9.002   7.912  24.699  1.00  0.00     0.037 C 
HETATM   30  C17 UNL     1       9.545   7.919  26.105  1.00  0.00     0.029 C 
HETATM   31  C18 UNL     1      11.027   8.175  26.173  1.00  0.00     0.167 C 
HETATM   32  O4  UNL     1      11.561   7.967  24.891  1.00  0.00    -0.389 OA
HETATM   33  C19 UNL     1      11.151   9.095  24.143  1.00  0.00     0.200 C 
ENDBRANCH  27  28
ENDBRANCH   8  27
TORSDOF 7
ENDMDL
MODEL 3
REMARK VINA RESULT: -6.596619320      3.088      4.866
REMARK  7 active torsions:
REMARK  status: ('A' for Active; 'I' for Inactive)
REMARK    1  A    between atoms: O1_2  and  C2_3 
REMARK    2  A    between atoms: C5_8  and  C6_9 
REMARK    3  A    between atoms: C6_9  and  N2_11 
REMARK    4  A    between atoms: N2_11  and  C8_12 
REMARK    5  A    between atoms: N2_11  and  C21_29 
REMARK       I    between atoms: N3_18  and  C14_19 
REMARK    6  A    between atoms: C14_19  and  O3_21 
REMARK    7  A    between atoms: O3_21  and  C15_22 
ROOT
HETATM    1  C8  UNL     1       4.864   6.344  21.754  1.00  0.00     0.229 C 
HETATM    2  C9  UNL     1       3.504   6.656  21.257  1.00  0.00     0.042 C 
HETATM    3  C10 UNL     1       2.699   5.378  21.028  1.00  0.00     0.008 C 
HETATM    4  C11 UNL     1       3.390   4.701  19.834  1.00  0.00     0.031 C 
HETATM    5  C12 UNL     1       4.583   4.158  20.533  1.00  0.00     0.091 C 
HETATM    6  C13 UNL     1       5.529   5.186  21.107  1.00  0.00     0.061 C 
HETATM    7  N3  UNL     1       3.965   3.467  21.651  1.00  0.00    -0.323 N 
HETATM    8  C14 UNL     1       4.338   2.188  22.137  1.00  0.00     0.363 C 
HETATM    9  O2  UNL     1       5.268   1.554  21.590  1.00  0.00    -0.238 OA
HETATM   10  C20 UNL     1       2.921   4.357  22.119  1.00  0.00     0.133 C 
ENDROOT
BRANCH   1  11
HETATM   11  N2  UNL     1       5.793   7.488  21.768  1.00  0.00     0.134 N 
BRANCH  11  12
HETATM   12  C6  UNL     1       5.731   8.336  22.845  1.00  0.00     0.259 C 
HETATM   13  C7  UNL     1       5.096   8.188  24.152  1.00  0.00     0.048 C 
BRANCH  12  14
HETATM   14  C5  UNL     1       7.235   8.307  23.348  1.00  0.00     0.027 A 
HETATM   15  C2  UNL     1       8.355   8.756  22.753  1.00  0.00     0.150 A 
HETATM   16  N1  UNL     1       9.393   8.631  23.638  1.00  0.00    -0.346 N 
HETATM   17  C3  UNL     1       8.952   8.106  24.783  1.00  0.00     0.091 A 
ATOM     18  H1  UNL     1      10.359   8.899  23.450  1.00  0.00     0.167 HD
HETATM   19  C4  UNL     1       7.591   7.897  24.610  1.00  0.00     0.030 A 
BRANCH  15  20
HETATM   20  O1  UNL     1       8.512   9.261  21.469  1.00  0.00    -0.340 OA
HETATM   21  C1  UNL     1       9.105   8.499  20.457  1.00  0.00     0.211 C 
ENDBRANCH  15  20
ENDBRANCH  12  14
ENDBRANCH  11  12
BRANCH  11  22
HETATM   22  C21 UNL     1       5.223   8.218  20.561  1.00  0.00     0.446 A 
HETATM   23  C22 UNL     1       5.792   8.374  19.297  1.00  0.00     0.300 A 
HETATM   24  N4  UNL     1       5.713   9.517  20.241  1.00  0.00    -0.038 N 
ATOM     25  H42 UNL     1       5.341  10.466  20.226  1.00  0.00     0.279 HD
ATOM     26  H41 UNL     1       6.365  10.185  20.653  1.00  0.00     0.279 HD
ENDBRANCH  11  22
ENDBRANCH   1  11
BRANCH   8  27
HETATM   27  O3  UNL     1       3.707   1.564  23.230  1.00  0.00    -0.296 OA
BRANCH  27  28
HETATM   28  C15 UNL     1       2.694   0.586  22.969  1.00  0.00     0.157 C 
HETATM   29  C16 UNL     1       2.931  -0.654  23.819  1.00  0.00     0.037 C 
HETATM   30  C17 UNL     1       1.681  -1.490  23.918  1.00  0.00     0.029 C 
HETATM   31  C18 UNL     1       0.422  -0.674  24.032  1.00  0.00     0.167 C 
HETATM   32  O4  UNL     1       0.786   0.635  24.388  1.00  0.00    -0.389 OA
HETATM   33  C19 UNL     1       1.334   1.191  23.209  1.00  0.00     0.200 C 
ENDBRANCH  27  28
ENDBRANCH   8  27
TORSDOF 7
ENDMDL
MODEL 4
REMARK VINA RESULT: -6.537832228      4.265      7.550
REMARK  7 active torsions:
REMARK  status: ('A' for Active; 'I' for Inactive)
REMARK    1  A    between atoms: O1_2  and  C2_3 
REMARK    2  A    between atoms: C5_8  and  C6_9 
REMARK    3  A    between atoms: C6_9  and  N2_11 
REMARK    4  A    between atoms: N2_11  and  C8_12 
REMARK    5  A    between atoms: N2_11  and  C21_29 
REMARK       I    between atoms: N3_18  and  C14_19 
REMARK    6  A    between atoms: C14_19  and  O3_21 
REMARK    7  A    between atoms: O3_21  and  C15_22 
ROOT
HETATM    1  C8  UNL     1       4.629   6.978  22.947  1.00  0.00     0.229 C 
HETATM    2  C9  UNL     1       4.820   5.765  22.118  1.00  0.00     0.042 C 
HETATM    3  C10 UNL     1       6.071   5.887  21.252  1.00  0.00     0.008 C 
HETATM    4  C11 UNL     1       5.727   6.988  20.236  1.00  0.00     0.031 C 
HETATM    5  C12 UNL     1       5.880   8.174  21.116  1.00  0.00     0.091 C 
HETATM    6  C13 UNL     1       4.904   8.266  22.264  1.00  0.00     0.061 C 
HETATM    7  N3  UNL     1       7.195   7.935  21.686  1.00  0.00    -0.323 N 
HETATM    8  C14 UNL     1       8.204   8.914  21.870  1.00  0.00     0.363 C 
HETATM    9  O2  UNL     1       7.999  10.100  21.524  1.00  0.00    -0.238 OA
HETATM   10  C20 UNL     1       7.225   6.519  21.996  1.00  0.00     0.133 C 
ENDROOT
BRANCH   1  11
HETATM   11  N2  UNL     1       3.323   7.061  23.627  1.00  0.00     0.134 N 
BRANCH  11  12
HETATM   12  C6  UNL     1       2.239   7.417  22.865  1.00  0.00     0.259 C 
HETATM   13  C7  UNL     1       1.782   6.946  21.560  1.00  0.00     0.048 C 
BRANCH  12  14
HETATM   14  C5  UNL     1       1.048   6.819  23.724  1.00  0.00     0.027 A 
HETATM   15  C2  UNL     1       0.954   5.645  24.374  1.00  0.00     0.150 A 
HETATM   16  N1  UNL     1      -0.216   5.639  25.087  1.00  0.00    -0.346 N 
HETATM   17  C3  UNL     1      -0.868   6.789  24.898  1.00  0.00     0.091 A 
ATOM     18  H1  UNL     1      -0.540   4.871  25.675  1.00  0.00     0.167 HD
HETATM   19  C4  UNL     1      -0.080   7.540  24.038  1.00  0.00     0.030 A 
BRANCH  15  20
HETATM   20  O1  UNL     1       1.839   4.575  24.364  1.00  0.00    -0.340 OA
HETATM   21  C1  UNL     1       1.795   3.606  23.356  1.00  0.00     0.211 C 
ENDBRANCH  15  20
ENDBRANCH  12  14
ENDBRANCH  11  12
BRANCH  11  22
HETATM   22  C21 UNL     1       3.656   8.226  24.547  1.00  0.00     0.446 A 
HETATM   23  C22 UNL     1       3.108   8.526  25.795  1.00  0.00     0.300 A 
HETATM   24  N4  UNL     1       2.771   9.341  24.600  1.00  0.00    -0.038 N 
ATOM     25  H42 UNL     1       2.805  10.327  24.342  1.00  0.00     0.279 HD
ATOM     26  H41 UNL     1       1.920   9.636  24.120  1.00  0.00     0.279 HD
ENDBRANCH  11  22
ENDBRANCH   1  11
BRANCH   8  27
HETATM   27  O3  UNL     1       9.463   8.630  22.432  1.00  0.00    -0.296 OA
BRANCH  27  28
HETATM   28  C15 UNL     1       9.687   8.957  23.808  1.00  0.00     0.157 C 
HETATM   29  C16 UNL     1       9.034   7.918  24.707  1.00  0.00     0.037 C 
HETATM   30  C17 UNL     1       9.613   7.963  26.098  1.00  0.00     0.029 C 
HETATM   31  C18 UNL     1      11.096   8.218  26.120  1.00  0.00     0.167 C 
HETATM   32  O4  UNL     1      11.597   7.975  24.831  1.00  0.00    -0.389 OA
HETATM   33  C19 UNL     1      11.168   9.082  24.063  1.00  0.00     0.200 C 
ENDBRANCH  27  28
ENDBRANCH   8  27
TORSDOF 7
ENDMDL
MODEL 5
REMARK VINA RESULT: -6.492890779      1.675      2.941
REMARK  7 active torsions:
REMARK  status: ('A' for Active; 'I' for Inactive)
REMARK    1  A    between atoms: O1_2  and  C2_3 
REMARK    2  A    between atoms: C5_8  and  C6_9 
REMARK    3  A    between atoms: C6_9  and  N2_11 
REMARK    4  A    between atoms: N2_11  and  C8_12 
REMARK    5  A    between atoms: N2_11  and  C21_29 
REMARK       I    between atoms: N3_18  and  C14_19 
REMARK    6  A    between atoms: C14_19  and  O3_21 
REMARK    7  A    between atoms: O3_21  and  C15_22 
ROOT
HETATM    1  C8  UNL     1       4.697   4.702  21.423  1.00  0.00     0.229 C 
HETATM    2  C9  UNL     1       3.906   3.864  22.355  1.00  0.00     0.042 C 
HETATM    3  C10 UNL     1       3.400   2.603  21.660  1.00  0.00     0.008 C 
HETATM    4  C11 UNL     1       2.366   3.114  20.645  1.00  0.00     0.031 C 
HETATM    5  C12 UNL     1       3.295   3.647  19.614  1.00  0.00     0.091 C 
HETATM    6  C13 UNL     1       4.151   4.812  20.047  1.00  0.00     0.061 C 
HETATM    7  N3  UNL     1       4.178   2.511  19.417  1.00  0.00    -0.323 N 
HETATM    8  C14 UNL     1       4.650   2.042  18.165  1.00  0.00     0.363 C 
HETATM    9  O2  UNL     1       4.302   2.615  17.108  1.00  0.00    -0.238 OA
HETATM   10  C20 UNL     1       4.438   1.994  20.746  1.00  0.00     0.133 C 
ENDROOT
BRANCH   1  11
HETATM   11  N2  UNL     1       5.016   6.051  21.925  1.00  0.00     0.134 N 
BRANCH  11  12
HETATM   12  C6  UNL     1       4.045   7.014  21.802  1.00  0.00     0.259 C 
HETATM   13  C7  UNL     1       2.612   6.909  21.542  1.00  0.00     0.048 C 
BRANCH  12  14
HETATM   14  C5  UNL     1       3.941   7.539  23.295  1.00  0.00     0.027 A 
HETATM   15  C2  UNL     1       4.801   8.285  24.012  1.00  0.00     0.150 A 
HETATM   16  N1  UNL     1       4.208   8.597  25.206  1.00  0.00    -0.346 N 
HETATM   17  C3  UNL     1       2.988   8.058  25.263  1.00  0.00     0.091 A 
ATOM     18  H1  UNL     1       4.635   9.158  25.944  1.00  0.00     0.167 HD
HETATM   19  C4  UNL     1       2.810   7.386  24.061  1.00  0.00     0.030 A 
BRANCH  15  20
HETATM   20  O1  UNL     1       6.082   8.699  23.672  1.00  0.00    -0.340 OA
HETATM   21  C1  UNL     1       7.194   8.311  24.428  1.00  0.00     0.211 C 
ENDBRANCH  15  20
ENDBRANCH  12  14
ENDBRANCH  11  12
BRANCH  11  22
HETATM   22  C21 UNL     1       6.125   6.371  20.935  1.00  0.00     0.446 A 
HETATM   23  C22 UNL     1       7.483   6.566  21.191  1.00  0.00     0.300 A 
HETATM   24  N4  UNL     1       6.603   7.709  20.839  1.00  0.00    -0.038 N 
ATOM     25  H42 UNL     1       6.596   8.450  20.139  1.00  0.00     0.279 HD
ATOM     26  H41 UNL     1       6.364   8.613  21.248  1.00  0.00     0.279 HD
ENDBRANCH  11  22
ENDBRANCH   1  11
BRANCH   8  27
HETATM   27  O3  UNL     1       5.511   0.937  18.029  1.00  0.00    -0.296 OA
BRANCH  27  28
HETATM   28  C15 UNL     1       6.913   1.177  17.864  1.00  0.00     0.157 C 
HETATM   29  C16 UNL     1       7.674   0.708  19.095  1.00  0.00     0.037 C 
HETATM   30  C17 UNL     1       9.138   0.522  18.790  1.00  0.00     0.029 C 
HETATM   31  C18 UNL     1       9.396  -0.056  17.425  1.00  0.00     0.167 C 
HETATM   32  O4  UNL     1       8.194  -0.609  16.955  1.00  0.00    -0.389 OA
HETATM   33  C19 UNL     1       7.397   0.506  16.604  1.00  0.00     0.200 C 
ENDBRANCH  27  28
ENDBRANCH   8  27
TORSDOF 7
ENDMDL
