MODEL 1
REMARK VINA RESULT: -6.624223118      0.000      0.000
REMARK  10 active torsions:
REMARK  status: ('A' for Active; 'I' for Inactive)
REMARK    1  A    between atoms: C2_2  and  C3_3 
REMARK    2  A    between atoms: C3_3  and  C4_4 
REMARK    3  A    between atoms: C5_5  and  O1_6 
REMARK    4  A    between atoms: C6_10  and  C7_11 
REMARK    5  A    between atoms: C7_11  and  C8_12 
REMARK    6  A    between atoms: C11_15  and  O2_16 
REMARK    7  A    between atoms: C12_20  and  C13_21 
REMARK    8  A    between atoms: C13_21  and  C14_23 
REMARK    9  A    between atoms: C18_31  and  C19_32 
REMARK   10  A    between atoms: C22_37  and  O6_38 
ROOT
HETATM    1  C4  UNL     1      14.852  -5.444  19.613  1.00  0.00     0.137 C 
HETATM    2  C5  UNL     1      13.406  -5.225  19.614  1.00  0.00     0.124 C 
HETATM    3  N1  UNL     1      12.302  -5.473  20.351  1.00  0.00    -0.362 N 
ATOM      4  H1  UNL     1      11.646  -6.040  19.814  1.00  0.00     0.162 HD
HETATM    5  C6  UNL     1      11.754  -5.193  21.654  1.00  0.00     0.158 C 
HETATM    6  C11 UNL     1      11.347  -6.440  22.350  1.00  0.00     0.136 C 
HETATM    7  N2  UNL     1      12.014  -7.596  22.681  1.00  0.00    -0.345 N 
ATOM      8  H2  UNL     1      12.313  -7.597  23.657  1.00  0.00     0.163 HD
HETATM    9  C12 UNL     1      12.401  -8.813  21.998  1.00  0.00     0.260 C 
HETATM   10  N3  UNL     1      12.489  -8.761  20.587  1.00  0.00    -0.332 N 
ATOM     11  H3  UNL     1      11.607  -8.702  20.079  1.00  0.00     0.165 HD
HETATM   12  C17 UNL     1      13.669  -8.780  19.803  1.00  0.00     0.242 C 
HETATM   13  O5  UNL     1      13.519  -8.705  18.555  1.00  0.00    -0.271 OA
HETATM   14  C18 UNL     1      15.037  -8.880  20.318  1.00  0.00     0.179 C 
HETATM   15  N4  UNL     1      15.704  -7.682  20.675  1.00  0.00    -0.360 N 
ATOM     16  H4  UNL     1      16.606  -7.873  21.110  1.00  0.00     0.162 HD
HETATM   17  C22 UNL     1      15.462  -6.326  20.593  1.00  0.00     0.124 C 
ENDROOT
BRANCH   9  18
HETATM   18  C13 UNL     1      11.414  -9.901  22.339  1.00  0.00     0.204 C 
HETATM   19  O3  UNL     1      11.874 -10.954  22.859  1.00  0.00    -0.290 OA
BRANCH  18  20
HETATM   20  C14 UNL     1       9.977  -9.913  22.151  1.00  0.00     0.142 A 
HETATM   21  C15 UNL     1       9.100 -10.559  23.179  1.00  0.00     0.057 C 
HETATM   22  C16 UNL     1       9.535 -10.265  20.723  1.00  0.00     0.215 A 
HETATM   23  O4  UNL     1       9.388  -9.005  21.262  1.00  0.00    -0.367 OA
ENDBRANCH  18  20
ENDBRANCH   9  18
BRANCH   6  24
HETATM   24  O2  UNL     1      10.077  -6.459  22.743  1.00  0.00    -0.348 OA
ATOM     25  H2  UNL     1       9.932  -6.118  23.618  1.00  0.00     0.219 HD
ENDBRANCH   6  24
BRANCH   5  26
HETATM   26  C7  UNL     1      12.480  -4.183  22.446  1.00  0.00     0.037 C 
BRANCH  26  27
HETATM   27  C8  UNL     1      12.928  -4.534  23.829  1.00  0.00    -0.020 C 
HETATM   28  C9  UNL     1      14.325  -4.039  24.144  1.00  0.00     0.009 C 
HETATM   29  C10 UNL     1      12.014  -4.195  24.947  1.00  0.00     0.009 C 
ENDBRANCH  26  27
ENDBRANCH   5  26
BRANCH  14  30
HETATM   30  C19 UNL     1      15.801  -9.805  19.401  1.00  0.00     0.009 C 
HETATM   31  C20 UNL     1      17.236  -9.545  19.254  1.00  0.00     0.012 C 
HETATM   32  C21 UNL     1      15.553 -11.248  19.776  1.00  0.00     0.012 C 
ENDBRANCH  14  30
BRANCH   2  33
HETATM   33  O1  UNL     1      13.128  -4.556  18.502  1.00  0.00    -0.349 OA
ATOM     34  H1  UNL     1      13.544  -5.033  17.793  1.00  0.00     0.219 HD
ENDBRANCH   2  33
BRANCH  17  35
HETATM   35  O6  UNL     1      15.868  -5.638  21.622  1.00  0.00    -0.349 OA
ATOM     36  H6  UNL     1      15.360  -5.872  22.390  1.00  0.00     0.219 HD
ENDBRANCH  17  35
BRANCH   1  37
HETATM   37  C3  UNL     1      15.438  -4.048  19.573  1.00  0.00     0.047 C 
BRANCH  37  38
HETATM   38  C2  UNL     1      16.520  -3.778  18.652  1.00  0.00    -0.036 C 
HETATM   39  C1  UNL     1      17.158  -2.663  18.447  1.00  0.00     0.007 C 
ENDBRANCH  37  38
ENDBRANCH   1  37
TORSDOF 10
ENDMDL
MODEL 2
REMARK VINA RESULT: -6.561741960      0.819      1.241
REMARK  10 active torsions:
REMARK  status: ('A' for Active; 'I' for Inactive)
REMARK    1  A    between atoms: C2_2  and  C3_3 
REMARK    2  A    between atoms: C3_3  and  C4_4 
REMARK    3  A    between atoms: C5_5  and  O1_6 
REMARK    4  A    between atoms: C6_10  and  C7_11 
REMARK    5  A    between atoms: C7_11  and  C8_12 
REMARK    6  A    between atoms: C11_15  and  O2_16 
REMARK    7  A    between atoms: C12_20  and  C13_21 
REMARK    8  A    between atoms: C13_21  and  C14_23 
REMARK    9  A    between atoms: C18_31  and  C19_32 
REMARK   10  A    between atoms: C22_37  and  O6_38 
ROOT
HETATM    1  C4  UNL     1      14.822  -5.457  19.579  1.00  0.00     0.137 C 
HETATM    2  C5  UNL     1      13.374  -5.256  19.595  1.00  0.00     0.124 C 
HETATM    3  N1  UNL     1      12.280  -5.519  20.343  1.00  0.00    -0.362 N 
ATOM      4  H1  UNL     1      11.626  -6.093  19.811  1.00  0.00     0.162 HD
HETATM    5  C6  UNL     1      11.741  -5.248  21.651  1.00  0.00     0.158 C 
HETATM    6  C11 UNL     1      11.357  -6.500  22.349  1.00  0.00     0.136 C 
HETATM    7  N2  UNL     1      12.042  -7.648  22.672  1.00  0.00    -0.345 N 
ATOM      8  H2  UNL     1      12.350  -7.646  23.645  1.00  0.00     0.163 HD
HETATM    9  C12 UNL     1      12.437  -8.859  21.983  1.00  0.00     0.260 C 
HETATM   10  N3  UNL     1      12.511  -8.804  20.572  1.00  0.00    -0.332 N 
ATOM     11  H3  UNL     1      11.622  -8.756  20.073  1.00  0.00     0.165 HD
HETATM   12  C17 UNL     1      13.683  -8.808  19.776  1.00  0.00     0.242 C 
HETATM   13  O5  UNL     1      13.520  -8.733  18.530  1.00  0.00    -0.271 OA
HETATM   14  C18 UNL     1      15.057  -8.892  20.278  1.00  0.00     0.179 C 
HETATM   15  N4  UNL     1      15.713  -7.685  20.630  1.00  0.00    -0.360 N 
ATOM     16  H4  UNL     1      16.621  -7.866  21.056  1.00  0.00     0.162 HD
HETATM   17  C22 UNL     1      15.453  -6.332  20.552  1.00  0.00     0.124 C 
ENDROOT
BRANCH   9  18
HETATM   18  C13 UNL     1      11.467  -9.960  22.333  1.00  0.00     0.204 C 
HETATM   19  O3  UNL     1      10.243  -9.658  22.377  1.00  0.00    -0.290 OA
BRANCH  18  20
HETATM   20  C14 UNL     1      11.745 -11.350  22.634  1.00  0.00     0.142 A 
HETATM   21  C15 UNL     1      12.950 -11.705  23.449  1.00  0.00     0.057 C 
HETATM   22  C16 UNL     1      11.565 -12.299  21.439  1.00  0.00     0.215 A 
HETATM   23  O4  UNL     1      10.720 -12.300  22.529  1.00  0.00    -0.367 OA
ENDBRANCH  18  20
ENDBRANCH   9  18
BRANCH   6  24
HETATM   24  O2  UNL     1      10.091  -6.535  22.754  1.00  0.00    -0.348 OA
ATOM     25  H2  UNL     1       9.702  -7.402  22.750  1.00  0.00     0.219 HD
ENDBRANCH   6  24
BRANCH   5  26
HETATM   26  C7  UNL     1      12.463  -4.230  22.437  1.00  0.00     0.037 C 
BRANCH  26  27
HETATM   27  C8  UNL     1      12.933  -4.578  23.813  1.00  0.00    -0.020 C 
HETATM   28  C9  UNL     1      14.332  -4.078  24.107  1.00  0.00     0.009 C 
HETATM   29  C10 UNL     1      12.034  -4.241  24.945  1.00  0.00     0.009 C 
ENDBRANCH  26  27
ENDBRANCH   5  26
BRANCH  14  30
HETATM   30  C19 UNL     1      15.823  -9.806  19.352  1.00  0.00     0.009 C 
HETATM   31  C20 UNL     1      17.239  -9.488  19.140  1.00  0.00     0.012 C 
HETATM   32  C21 UNL     1      15.655 -11.248  19.771  1.00  0.00     0.012 C 
ENDBRANCH  14  30
BRANCH   2  33
HETATM   33  O1  UNL     1      13.077  -4.590  18.486  1.00  0.00    -0.349 OA
ATOM     34  H1  UNL     1      12.131  -4.623  18.400  1.00  0.00     0.219 HD
ENDBRANCH   2  33
BRANCH  17  35
HETATM   35  O6  UNL     1      15.860  -5.641  21.578  1.00  0.00    -0.349 OA
ATOM     36  H6  UNL     1      16.588  -6.081  22.000  1.00  0.00     0.219 HD
ENDBRANCH  17  35
BRANCH   1  37
HETATM   37  C3  UNL     1      15.390  -4.054  19.536  1.00  0.00     0.047 C 
BRANCH  37  38
HETATM   38  C2  UNL     1      16.498  -3.783  18.646  1.00  0.00    -0.036 C 
HETATM   39  C1  UNL     1      17.149  -2.671  18.468  1.00  0.00     0.007 C 
ENDBRANCH  37  38
ENDBRANCH   1  37
TORSDOF 10
ENDMDL
MODEL 3
REMARK VINA RESULT: -6.124912854      2.355      7.520
REMARK  10 active torsions:
REMARK  status: ('A' for Active; 'I' for Inactive)
REMARK    1  A    between atoms: C2_2  and  C3_3 
REMARK    2  A    between atoms: C3_3  and  C4_4 
REMARK    3  A    between atoms: C5_5  and  O1_6 
REMARK    4  A    between atoms: C6_10  and  C7_11 
REMARK    5  A    between atoms: C7_11  and  C8_12 
REMARK    6  A    between atoms: C11_15  and  O2_16 
REMARK    7  A    between atoms: C12_20  and  C13_21 
REMARK    8  A    between atoms: C13_21  and  C14_23 
REMARK    9  A    between atoms: C18_31  and  C19_32 
REMARK   10  A    between atoms: C22_37  and  O6_38 
ROOT
HETATM    1  C4  UNL     1      13.927  -8.158  21.064  1.00  0.00     0.137 C 
HETATM    2  C5  UNL     1      13.712  -8.078  19.619  1.00  0.00     0.124 C 
HETATM    3  N1  UNL     1      14.256  -7.555  18.499  1.00  0.00    -0.362 N 
ATOM      4  H1  UNL     1      13.598  -6.909  18.063  1.00  0.00     0.162 HD
HETATM    5  C6  UNL     1      15.468  -7.617  17.723  1.00  0.00     0.158 C 
HETATM    6  C11 UNL     1      16.035  -6.265  17.495  1.00  0.00     0.136 C 
HETATM    7  N2  UNL     1      16.415  -5.246  18.338  1.00  0.00    -0.345 N 
ATOM      8  H2  UNL     1      17.424  -5.232  18.487  1.00  0.00     0.163 HD
HETATM    9  C12 UNL     1      15.747  -4.190  19.068  1.00  0.00     0.260 C 
HETATM   10  N3  UNL     1      14.372  -4.366  19.345  1.00  0.00    -0.332 N 
ATOM     11  H3  UNL     1      13.735  -4.282  18.553  1.00  0.00     0.165 HD
HETATM   12  C17 UNL     1      13.781  -4.647  20.603  1.00  0.00     0.242 C 
HETATM   13  O5  UNL     1      12.530  -4.785  20.621  1.00  0.00    -0.271 OA
HETATM   14  C18 UNL     1      14.499  -4.788  21.872  1.00  0.00     0.179 C 
HETATM   15  N4  UNL     1      15.009  -6.066  22.211  1.00  0.00    -0.360 N 
ATOM     16  H4  UNL     1      15.570  -6.030  23.061  1.00  0.00     0.162 HD
HETATM   17  C22 UNL     1      14.950  -7.347  21.701  1.00  0.00     0.124 C 
ENDROOT
BRANCH   9  18
HETATM   18  C13 UNL     1      15.881  -2.900  18.297  1.00  0.00     0.204 C 
HETATM   19  O3  UNL     1      16.317  -1.896  18.924  1.00  0.00    -0.290 OA
BRANCH  18  20
HETATM   20  C14 UNL     1      15.573  -2.641  16.905  1.00  0.00     0.142 A 
HETATM   21  C15 UNL     1      16.561  -1.910  16.050  1.00  0.00     0.057 C 
HETATM   22  C16 UNL     1      14.137  -2.151  16.661  1.00  0.00     0.215 A 
HETATM   23  O4  UNL     1      14.581  -3.394  16.263  1.00  0.00    -0.367 OA
ENDBRANCH  18  20
ENDBRANCH   9  18
BRANCH   6  24
HETATM   24  O2  UNL     1      16.224  -5.958  16.215  1.00  0.00    -0.348 OA
ATOM     25  H2  UNL     1      15.800  -6.549  15.603  1.00  0.00     0.219 HD
ENDBRANCH   6  24
BRANCH   5  26
HETATM   26  C7  UNL     1      16.408  -8.690  18.097  1.00  0.00     0.037 C 
BRANCH  26  27
HETATM   27  C8  UNL     1      15.930 -10.108  18.081  1.00  0.00    -0.020 C 
HETATM   28  C9  UNL     1      15.884 -10.703  16.688  1.00  0.00     0.009 C 
HETATM   29  C10 UNL     1      16.589 -11.058  19.010  1.00  0.00     0.009 C 
ENDBRANCH  26  27
ENDBRANCH   5  26
BRANCH  14  30
HETATM   30  C19 UNL     1      13.672  -4.110  22.938  1.00  0.00     0.009 C 
HETATM   31  C20 UNL     1      12.701  -4.950  23.647  1.00  0.00     0.012 C 
HETATM   32  C21 UNL     1      14.562  -3.379  23.916  1.00  0.00     0.012 C 
ENDBRANCH  14  30
BRANCH   2  33
HETATM   33  O1  UNL     1      12.601  -8.759  19.369  1.00  0.00    -0.349 OA
ATOM     34  H1  UNL     1      11.894  -8.125  19.366  1.00  0.00     0.219 HD
ENDBRANCH   2  33
BRANCH  17  35
HETATM   35  O6  UNL     1      16.060  -8.022  21.798  1.00  0.00    -0.349 OA
ATOM     36  H6  UNL     1      16.233  -8.235  22.708  1.00  0.00     0.219 HD
ENDBRANCH  17  35
BRANCH   1  37
HETATM   37  C3  UNL     1      14.042  -9.643  21.339  1.00  0.00     0.047 C 
BRANCH  37  38
HETATM   38  C2  UNL     1      13.301 -10.200  22.449  1.00  0.00    -0.036 C 
HETATM   39  C1  UNL     1      13.505 -11.313  23.091  1.00  0.00     0.007 C 
ENDBRANCH  37  38
ENDBRANCH   1  37
TORSDOF 10
ENDMDL
MODEL 4
REMARK VINA RESULT: -5.935839050      2.201      5.762
REMARK  10 active torsions:
REMARK  status: ('A' for Active; 'I' for Inactive)
REMARK    1  A    between atoms: C2_2  and  C3_3 
REMARK    2  A    between atoms: C3_3  and  C4_4 
REMARK    3  A    between atoms: C5_5  and  O1_6 
REMARK    4  A    between atoms: C6_10  and  C7_11 
REMARK    5  A    between atoms: C7_11  and  C8_12 
REMARK    6  A    between atoms: C11_15  and  O2_16 
REMARK    7  A    between atoms: C12_20  and  C13_21 
REMARK    8  A    between atoms: C13_21  and  C14_23 
REMARK    9  A    between atoms: C18_31  and  C19_32 
REMARK   10  A    between atoms: C22_37  and  O6_38 
ROOT
HETATM    1  C4  UNL     1      15.881  -8.184  18.433  1.00  0.00     0.137 C 
HETATM    2  C5  UNL     1      15.949  -8.473  19.865  1.00  0.00     0.124 C 
HETATM    3  N1  UNL     1      15.199  -8.426  20.988  1.00  0.00    -0.362 N 
ATOM      4  H1  UNL     1      15.632  -7.802  21.669  1.00  0.00     0.162 HD
HETATM    5  C6  UNL     1      13.984  -8.976  21.532  1.00  0.00     0.158 C 
HETATM    6  C11 UNL     1      13.073  -7.907  22.012  1.00  0.00     0.136 C 
HETATM    7  N2  UNL     1      12.516  -6.802  21.411  1.00  0.00    -0.345 N 
ATOM      8  H2  UNL     1      11.553  -6.971  21.121  1.00  0.00     0.163 HD
HETATM    9  C12 UNL     1      12.950  -5.460  21.085  1.00  0.00     0.260 C 
HETATM   10  N3  UNL     1      14.342  -5.238  20.981  1.00  0.00    -0.332 N 
ATOM     11  H3  UNL     1      14.869  -5.244  21.854  1.00  0.00     0.165 HD
HETATM   12  C17 UNL     1      15.086  -5.009  19.796  1.00  0.00     0.242 C 
HETATM   13  O5  UNL     1      16.329  -4.854  19.930  1.00  0.00    -0.271 OA
HETATM   14  C18 UNL     1      14.535  -4.939  18.440  1.00  0.00     0.179 C 
HETATM   15  N4  UNL     1      14.399  -6.148  17.713  1.00  0.00    -0.360 N 
ATOM     16  H4  UNL     1      13.919  -5.997  16.826  1.00  0.00     0.162 HD
HETATM   17  C22 UNL     1      14.741  -7.474  17.880  1.00  0.00     0.124 C 
ENDROOT
BRANCH   9  18
HETATM   18  C13 UNL     1      12.428  -4.508  22.132  1.00  0.00     0.204 C 
HETATM   19  O3  UNL     1      11.505  -3.720  21.786  1.00  0.00    -0.290 OA
BRANCH  18  20
HETATM   20  C14 UNL     1      12.843  -4.363  23.512  1.00  0.00     0.142 A 
HETATM   21  C15 UNL     1      11.817  -4.111  24.573  1.00  0.00     0.057 C 
HETATM   22  C16 UNL     1      14.087  -3.481  23.703  1.00  0.00     0.215 A 
HETATM   23  O4  UNL     1      14.097  -4.844  23.912  1.00  0.00    -0.367 OA
ENDBRANCH  18  20
ENDBRANCH   9  18
BRANCH   6  24
HETATM   24  O2  UNL     1      12.708  -8.028  23.285  1.00  0.00    -0.348 OA
ATOM     25  H2  UNL     1      13.205  -7.488  23.888  1.00  0.00     0.219 HD
ENDBRANCH   6  24
BRANCH   5  26
HETATM   26  C7  UNL     1      13.384 -10.079  20.759  1.00  0.00     0.037 C 
BRANCH  26  27
HETATM   27  C8  UNL     1      13.671 -11.489  21.169  1.00  0.00    -0.020 C 
HETATM   28  C9  UNL     1      14.901 -12.063  20.498  1.00  0.00     0.009 C 
HETATM   29  C10 UNL     1      13.712 -11.780  22.623  1.00  0.00     0.009 C 
ENDBRANCH  26  27
ENDBRANCH   5  26
BRANCH  14  30
HETATM   30  C19 UNL     1      15.247  -3.819  17.720  1.00  0.00     0.009 C 
HETATM   31  C20 UNL     1      16.189  -4.211  16.667  1.00  0.00     0.012 C 
HETATM   32  C21 UNL     1      14.252  -2.807  17.200  1.00  0.00     0.012 C 
ENDBRANCH  14  30
BRANCH   2  33
HETATM   33  O1  UNL     1      17.173  -8.932  20.097  1.00  0.00    -0.349 OA
ATOM     34  H1  UNL     1      17.119  -9.878  20.038  1.00  0.00     0.219 HD
ENDBRANCH   2  33
BRANCH  17  35
HETATM   35  O6  UNL     1      13.853  -8.323  17.448  1.00  0.00    -0.349 OA
ATOM     36  H6  UNL     1      14.275  -9.004  16.938  1.00  0.00     0.219 HD
ENDBRANCH  17  35
BRANCH   1  37
HETATM   37  C3  UNL     1      16.173  -9.515  17.773  1.00  0.00     0.047 C 
BRANCH  37  38
HETATM   38  C2  UNL     1      17.195  -9.571  16.751  1.00  0.00    -0.036 C 
HETATM   39  C1  UNL     1      18.173  -8.743  16.528  1.00  0.00     0.007 C 
ENDBRANCH  37  38
ENDBRANCH   1  37
TORSDOF 10
ENDMDL
MODEL 5
REMARK VINA RESULT: -5.808191149      2.591      6.582
REMARK  10 active torsions:
REMARK  status: ('A' for Active; 'I' for Inactive)
REMARK    1  A    between atoms: C2_2  and  C3_3 
REMARK    2  A    between atoms: C3_3  and  C4_4 
REMARK    3  A    between atoms: C5_5  and  O1_6 
REMARK    4  A    between atoms: C6_10  and  C7_11 
REMARK    5  A    between atoms: C7_11  and  C8_12 
REMARK    6  A    between atoms: C11_15  and  O2_16 
REMARK    7  A    between atoms: C12_20  and  C13_21 
REMARK    8  A    between atoms: C13_21  and  C14_23 
REMARK    9  A    between atoms: C18_31  and  C19_32 
REMARK   10  A    between atoms: C22_37  and  O6_38 
ROOT
HETATM    1  C4  UNL     1      14.346  -8.233  20.642  1.00  0.00     0.137 C 
HETATM    2  C5  UNL     1      15.290  -7.199  21.065  1.00  0.00     0.124 C 
HETATM    3  N1  UNL     1      15.597  -5.901  20.856  1.00  0.00    -0.362 N 
ATOM      4  H1  UNL     1      16.547  -5.822  20.492  1.00  0.00     0.162 HD
HETATM    5  C6  UNL     1      15.012  -4.590  20.983  1.00  0.00     0.158 C 
HETATM    6  C11 UNL     1      15.092  -3.835  19.708  1.00  0.00     0.136 C 
HETATM    7  N2  UNL     1      14.665  -4.098  18.428  1.00  0.00    -0.345 N 
ATOM      8  H2  UNL     1      13.786  -3.625  18.215  1.00  0.00     0.163 HD
HETATM    9  C12 UNL     1      15.144  -4.876  17.304  1.00  0.00     0.260 C 
HETATM   10  N3  UNL     1      16.044  -5.929  17.585  1.00  0.00    -0.332 N 
ATOM     11  H3  UNL     1      16.989  -5.658  17.858  1.00  0.00     0.165 HD
HETATM   12  C17 UNL     1      15.778  -7.320  17.530  1.00  0.00     0.242 C 
HETATM   13  O5  UNL     1      16.726  -8.089  17.841  1.00  0.00    -0.271 OA
HETATM   14  C18 UNL     1      14.504  -7.932  17.145  1.00  0.00     0.179 C 
HETATM   15  N4  UNL     1      13.530  -8.134  18.154  1.00  0.00    -0.360 N 
ATOM     16  H4  UNL     1      12.652  -8.473  17.762  1.00  0.00     0.162 HD
HETATM   17  C22 UNL     1      13.448  -7.994  19.525  1.00  0.00     0.124 C 
ENDROOT
BRANCH   9  18
HETATM   18  C13 UNL     1      15.832  -3.954  16.328  1.00  0.00     0.204 C 
HETATM   19  O3  UNL     1      15.531  -4.077  15.109  1.00  0.00    -0.290 OA
BRANCH  18  20
HETATM   20  C14 UNL     1      16.814  -2.923  16.594  1.00  0.00     0.142 A 
HETATM   21  C15 UNL     1      16.623  -1.552  16.023  1.00  0.00     0.057 C 
HETATM   22  C16 UNL     1      18.270  -3.396  16.464  1.00  0.00     0.215 A 
HETATM   23  O4  UNL     1      17.695  -3.068  17.673  1.00  0.00    -0.367 OA
ENDBRANCH  18  20
ENDBRANCH   9  18
BRANCH   6  24
HETATM   24  O2  UNL     1      15.699  -2.656  19.806  1.00  0.00    -0.348 OA
ATOM     25  H2  UNL     1      15.926  -2.261  18.971  1.00  0.00     0.219 HD
ENDBRANCH   6  24
BRANCH   5  26
HETATM   26  C7  UNL     1      13.739  -4.532  21.725  1.00  0.00     0.037 C 
BRANCH  26  27
HETATM   27  C8  UNL     1      13.749  -4.785  23.199  1.00  0.00    -0.020 C 
HETATM   28  C9  UNL     1      14.594  -3.790  23.967  1.00  0.00     0.009 C 
HETATM   29  C10 UNL     1      12.436  -4.949  23.870  1.00  0.00     0.009 C 
ENDBRANCH  26  27
ENDBRANCH   5  26
BRANCH  14  30
HETATM   30  C19 UNL     1      14.820  -9.137  16.292  1.00  0.00     0.009 C 
HETATM   31  C20 UNL     1      14.121 -10.382  16.629  1.00  0.00     0.012 C 
HETATM   32  C21 UNL     1      14.652  -8.809  14.827  1.00  0.00     0.012 C 
ENDBRANCH  14  30
BRANCH   2  33
HETATM   33  O1  UNL     1      16.099  -7.771  21.949  1.00  0.00    -0.349 OA
ATOM     34  H1  UNL     1      16.041  -7.249  22.740  1.00  0.00     0.219 HD
ENDBRANCH   2  33
BRANCH  17  35
HETATM   35  O6  UNL     1      12.305  -7.546  19.958  1.00  0.00    -0.349 OA
ATOM     36  H6  UNL     1      11.613  -7.774  19.348  1.00  0.00     0.219 HD
ENDBRANCH  17  35
BRANCH   1  37
HETATM   37  C3  UNL     1      13.656  -8.651  21.923  1.00  0.00     0.047 C 
BRANCH  37  38
HETATM   38  C2  UNL     1      13.465 -10.062  22.177  1.00  0.00    -0.036 C 
HETATM   39  C1  UNL     1      12.764 -10.636  23.110  1.00  0.00     0.007 C 
ENDBRANCH  37  38
ENDBRANCH   1  37
TORSDOF 10
ENDMDL
