MODEL 1
REMARK VINA RESULT: -7.501040445      0.000      0.000
REMARK  7 active torsions:
REMARK  status: ('A' for Active; 'I' for Inactive)
REMARK    1  A    between atoms: C2_2  and  C3_3 
REMARK    2  A    between atoms: C3_3  and  C4_4 
REMARK    3  A    between atoms: C6_6  and  C7_7 
REMARK       I    between atoms: C7_7  and  N1_9 
REMARK       I    between atoms: N4_20  and  C13_21 
REMARK    4  A    between atoms: C13_21  and  C14_23 
REMARK    5  A    between atoms: C16_25  and  O3_26 
REMARK    6  A    between atoms: C16_25  and  C17_28 
REMARK    7  A    between atoms: N5_35  and  O4_36 
ROOT
HETATM    1  C4  UNL     1      13.143  -9.406  19.852  1.00  0.00     0.091 C 
HETATM    2  C5  UNL     1      12.934 -10.500  20.905  1.00  0.00     0.060 C 
HETATM    3  C6  UNL     1      14.185 -11.311  21.149  1.00  0.00     0.172 C 
HETATM    4  N3  UNL     1      15.190 -11.209  20.152  1.00  0.00    -0.393 N 
ATOM      5  H3  UNL     1      15.653 -12.038  19.780  1.00  0.00     0.155 HD
HETATM    6  C12 UNL     1      15.526  -9.913  19.695  1.00  0.00     0.245 C 
HETATM    7  N4  UNL     1      14.505  -8.925  19.938  1.00  0.00    -0.330 N 
HETATM    8  C13 UNL     1      14.851  -7.621  20.271  1.00  0.00     0.241 C 
HETATM    9  O2  UNL     1      16.080  -7.306  20.254  1.00  0.00    -0.271 OA
ENDROOT
BRANCH   1  10
HETATM   10  C3  UNL     1      12.818 -10.035  18.533  1.00  0.00     0.025 C 
BRANCH  10  11
HETATM   11  C2  UNL     1      12.320  -9.080  17.491  1.00  0.00    -0.002 C 
HETATM   12  C1  UNL     1      11.532  -7.947  18.073  1.00  0.00     0.005 C 
ENDBRANCH  10  11
ENDBRANCH   1  10
BRANCH   8  13
HETATM   13  C14 UNL     1      13.933  -6.531  20.656  1.00  0.00     0.181 C 
HETATM   14  C15 UNL     1      13.680  -6.573  22.184  1.00  0.00     0.071 C 
HETATM   15  C16 UNL     1      14.133  -5.225  22.602  1.00  0.00     0.077 C 
HETATM   16  C23 UNL     1      13.745  -4.400  21.367  1.00  0.00     0.159 C 
HETATM   17  N5  UNL     1      14.374  -5.220  20.341  1.00  0.00    -0.183 NA
BRANCH  15  18
HETATM   18  O3  UNL     1      15.547  -5.237  22.724  1.00  0.00    -0.388 OA
ATOM     19  H3  UNL     1      15.913  -4.649  22.074  1.00  0.00     0.210 HD
ENDBRANCH  15  18
BRANCH  15  20
HETATM   20  C17 UNL     1      13.606  -4.670  23.868  1.00  0.00     0.021 C 
HETATM   21  C18 UNL     1      14.310  -3.345  24.206  1.00  0.00     0.007 C 
HETATM   22  C19 UNL     1      14.305  -3.186  25.688  1.00  0.00     0.000 C 
HETATM   23  C20 UNL     1      12.953  -3.643  26.200  1.00  0.00     0.000 C 
HETATM   24  C21 UNL     1      11.878  -3.521  25.146  1.00  0.00     0.000 C 
HETATM   25  C22 UNL     1      12.141  -4.428  23.945  1.00  0.00     0.007 C 
ENDBRANCH  15  20
BRANCH  17  26
HETATM   26  O4  UNL     1      15.675  -4.981  20.380  1.00  0.00    -0.312 OA
ATOM     27  H4  UNL     1      15.983  -4.148  20.040  1.00  0.00     0.237 HD
ENDBRANCH  17  26
ENDBRANCH   8  13
BRANCH   3  28
HETATM   28  C7  UNL     1      13.852 -12.772  21.290  1.00  0.00     0.242 C 
HETATM   29  O1  UNL     1      13.545 -13.415  20.232  1.00  0.00    -0.271 OA
HETATM   30  N1  UNL     1      13.858 -13.480  22.506  1.00  0.00    -0.347 N 
HETATM   31  C8  UNL     1      13.489 -14.895  22.472  1.00  0.00     0.153 C 
HETATM   32  C11 UNL     1      14.225 -12.821  23.726  1.00  0.00     0.153 C 
HETATM   33  C9  UNL     1      13.798 -15.604  23.748  1.00  0.00     0.252 C 
HETATM   34  N2  UNL     1      15.042 -15.042  24.263  1.00  0.00    -0.072 N 
HETATM   35  C10 UNL     1      14.725 -13.756  24.806  1.00  0.00     0.252 C 
ATOM     36  H22 UNL     1      15.512 -15.655  24.930  1.00  0.00     0.277 HD
ATOM     37  H21 UNL     1      15.787 -15.012  23.568  1.00  0.00     0.277 HD
ENDBRANCH   3  28
TORSDOF 7
ENDMDL
MODEL 2
REMARK VINA RESULT: -7.299063945      4.381      6.491
REMARK  7 active torsions:
REMARK  status: ('A' for Active; 'I' for Inactive)
REMARK    1  A    between atoms: C2_2  and  C3_3 
REMARK    2  A    between atoms: C3_3  and  C4_4 
REMARK    3  A    between atoms: C6_6  and  C7_7 
REMARK       I    between atoms: C7_7  and  N1_9 
REMARK       I    between atoms: N4_20  and  C13_21 
REMARK    4  A    between atoms: C13_21  and  C14_23 
REMARK    5  A    between atoms: C16_25  and  O3_26 
REMARK    6  A    between atoms: C16_25  and  C17_28 
REMARK    7  A    between atoms: N5_35  and  O4_36 
ROOT
HETATM    1  C4  UNL     1      15.419  -7.162  19.560  1.00  0.00     0.091 C 
HETATM    2  C5  UNL     1      14.063  -7.876  19.587  1.00  0.00     0.060 C 
HETATM    3  C6  UNL     1      13.308  -7.627  20.871  1.00  0.00     0.172 C 
HETATM    4  N3  UNL     1      14.079  -7.129  21.954  1.00  0.00    -0.393 N 
ATOM      5  H3  UNL     1      13.999  -7.529  22.888  1.00  0.00     0.155 HD
HETATM    6  C12 UNL     1      14.961  -6.056  21.688  1.00  0.00     0.245 C 
HETATM    7  N4  UNL     1      15.313  -5.922  20.296  1.00  0.00    -0.330 N 
HETATM    8  C13 UNL     1      15.488  -4.663  19.732  1.00  0.00     0.241 C 
HETATM    9  O2  UNL     1      15.428  -3.652  20.496  1.00  0.00    -0.271 OA
ENDROOT
BRANCH   1  10
HETATM   10  C3  UNL     1      16.403  -8.122  20.154  1.00  0.00     0.025 C 
BRANCH  10  11
HETATM   11  C2  UNL     1      16.245  -9.541  19.699  1.00  0.00    -0.002 C 
HETATM   12  C1  UNL     1      17.415 -10.027  18.900  1.00  0.00     0.005 C 
ENDBRANCH  10  11
ENDBRANCH   1  10
BRANCH   8  13
HETATM   13  C14 UNL     1      15.737  -4.356  18.310  1.00  0.00     0.181 C 
HETATM   14  C15 UNL     1      14.961  -3.077  17.905  1.00  0.00     0.071 C 
HETATM   15  C16 UNL     1      16.056  -2.197  17.433  1.00  0.00     0.077 C 
HETATM   16  C23 UNL     1      17.013  -3.234  16.828  1.00  0.00     0.159 C 
HETATM   17  N5  UNL     1      17.095  -4.150  17.957  1.00  0.00    -0.183 NA
BRANCH  15  18
HETATM   18  O3  UNL     1      16.677  -1.598  18.560  1.00  0.00    -0.388 OA
ATOM     19  H3  UNL     1      16.360  -0.706  18.644  1.00  0.00     0.210 HD
ENDBRANCH  15  18
BRANCH  15  20
HETATM   20  C17 UNL     1      15.719  -1.097  16.503  1.00  0.00     0.021 C 
HETATM   21  C18 UNL     1      16.309  -1.375  15.110  1.00  0.00     0.007 C 
HETATM   22  C19 UNL     1      16.570  -0.063  14.450  1.00  0.00     0.000 C 
HETATM   23  C20 UNL     1      15.408   0.857  14.769  1.00  0.00     0.000 C 
HETATM   24  C21 UNL     1      14.143   0.088  15.070  1.00  0.00     0.000 C 
HETATM   25  C22 UNL     1      14.278  -0.779  16.321  1.00  0.00     0.007 C 
ENDBRANCH  15  20
BRANCH  17  26
HETATM   26  O4  UNL     1      17.891  -3.600  18.862  1.00  0.00    -0.312 OA
ATOM     27  H4  UNL     1      18.814  -3.823  18.834  1.00  0.00     0.237 HD
ENDBRANCH  17  26
ENDBRANCH   8  13
BRANCH   3  28
HETATM   28  C7  UNL     1      12.641  -8.888  21.348  1.00  0.00     0.242 C 
HETATM   29  O1  UNL     1      13.391  -9.844  21.736  1.00  0.00    -0.271 OA
HETATM   30  N1  UNL     1      11.249  -9.089  21.400  1.00  0.00    -0.347 N 
HETATM   31  C8  UNL     1      10.764 -10.385  21.871  1.00  0.00     0.153 C 
HETATM   32  C11 UNL     1      10.352  -8.040  21.007  1.00  0.00     0.153 C 
HETATM   33  C9  UNL     1       9.298 -10.388  22.149  1.00  0.00     0.252 C 
HETATM   34  N2  UNL     1       8.961  -9.081  22.701  1.00  0.00    -0.072 N 
HETATM   35  C10 UNL     1       8.969  -8.153  21.611  1.00  0.00     0.252 C 
ATOM     36  H22 UNL     1       8.084  -9.079  23.223  1.00  0.00     0.277 HD
ATOM     37  H21 UNL     1       9.569  -8.801  23.471  1.00  0.00     0.277 HD
ENDBRANCH   3  28
TORSDOF 7
ENDMDL
MODEL 3
REMARK VINA RESULT: -7.215233297      4.422      7.818
REMARK  7 active torsions:
REMARK  status: ('A' for Active; 'I' for Inactive)
REMARK    1  A    between atoms: C2_2  and  C3_3 
REMARK    2  A    between atoms: C3_3  and  C4_4 
REMARK    3  A    between atoms: C6_6  and  C7_7 
REMARK       I    between atoms: C7_7  and  N1_9 
REMARK       I    between atoms: N4_20  and  C13_21 
REMARK    4  A    between atoms: C13_21  and  C14_23 
REMARK    5  A    between atoms: C16_25  and  O3_26 
REMARK    6  A    between atoms: C16_25  and  C17_28 
REMARK    7  A    between atoms: N5_35  and  O4_36 
ROOT
HETATM    1  C4  UNL     1      13.037  -5.777  19.905  1.00  0.00     0.091 C 
HETATM    2  C5  UNL     1      12.399  -4.885  20.975  1.00  0.00     0.060 C 
HETATM    3  C6  UNL     1      13.297  -4.695  22.175  1.00  0.00     0.172 C 
HETATM    4  N3  UNL     1      14.360  -5.628  22.304  1.00  0.00    -0.393 N 
ATOM      5  H3  UNL     1      14.559  -6.084  23.194  1.00  0.00     0.155 HD
HETATM    6  C12 UNL     1      15.132  -5.899  21.151  1.00  0.00     0.245 C 
HETATM    7  N4  UNL     1      14.469  -5.573  19.913  1.00  0.00    -0.330 N 
HETATM    8  C13 UNL     1      15.189  -5.060  18.841  1.00  0.00     0.241 C 
HETATM    9  O2  UNL     1      16.451  -4.985  18.950  1.00  0.00    -0.271 OA
ENDROOT
BRANCH   1  10
HETATM   10  C3  UNL     1      12.635  -7.179  20.243  1.00  0.00     0.025 C 
BRANCH  10  11
HETATM   11  C2  UNL     1      11.170  -7.366  20.499  1.00  0.00    -0.002 C 
HETATM   12  C1  UNL     1      10.890  -8.436  21.508  1.00  0.00     0.005 C 
ENDBRANCH  10  11
ENDBRANCH   1  10
BRANCH   8  13
HETATM   13  C14 UNL     1      14.645  -4.576  17.557  1.00  0.00     0.181 C 
HETATM   14  C15 UNL     1      14.565  -3.029  17.570  1.00  0.00     0.071 C 
HETATM   15  C16 UNL     1      15.405  -2.673  16.402  1.00  0.00     0.077 C 
HETATM   16  C23 UNL     1      15.112  -3.859  15.472  1.00  0.00     0.159 C 
HETATM   17  N5  UNL     1      15.379  -4.947  16.402  1.00  0.00    -0.183 NA
BRANCH  15  18
HETATM   18  O3  UNL     1      16.769  -2.718  16.791  1.00  0.00    -0.388 OA
ATOM     19  H3  UNL     1      16.963  -1.947  17.311  1.00  0.00     0.210 HD
ENDBRANCH  15  18
BRANCH  15  20
HETATM   20  C17 UNL     1      15.192  -1.358  15.760  1.00  0.00     0.021 C 
HETATM   21  C18 UNL     1      13.690  -1.040  15.678  1.00  0.00     0.007 C 
HETATM   22  C19 UNL     1      13.470  -0.156  14.497  1.00  0.00     0.000 C 
HETATM   23  C20 UNL     1      14.606   0.847  14.450  1.00  0.00     0.000 C 
HETATM   24  C21 UNL     1      15.214   1.079  15.813  1.00  0.00     0.000 C 
HETATM   25  C22 UNL     1      15.863  -0.184  16.379  1.00  0.00     0.007 C 
ENDBRANCH  15  20
BRANCH  17  26
HETATM   26  O4  UNL     1      16.693  -5.062  16.517  1.00  0.00    -0.312 OA
ATOM     27  H4  UNL     1      17.060  -5.938  16.549  1.00  0.00     0.237 HD
ENDBRANCH  17  26
ENDBRANCH   8  13
BRANCH   3  28
HETATM   28  C7  UNL     1      12.500  -4.758  23.450  1.00  0.00     0.242 C 
HETATM   29  O1  UNL     1      11.487  -5.532  23.478  1.00  0.00    -0.271 OA
HETATM   30  N1  UNL     1      12.793  -4.025  24.615  1.00  0.00    -0.347 N 
HETATM   31  C8  UNL     1      11.903  -4.186  25.763  1.00  0.00     0.153 C 
HETATM   32  C11 UNL     1      13.939  -3.161  24.656  1.00  0.00     0.153 C 
HETATM   33  C9  UNL     1      12.460  -3.592  27.014  1.00  0.00     0.252 C 
HETATM   34  N2  UNL     1      13.901  -3.815  26.994  1.00  0.00    -0.072 N 
HETATM   35  C10 UNL     1      14.454  -2.887  26.054  1.00  0.00     0.252 C 
ATOM     36  H22 UNL     1      14.330  -3.753  27.917  1.00  0.00     0.277 HD
ATOM     37  H21 UNL     1      14.155  -4.783  26.798  1.00  0.00     0.277 HD
ENDBRANCH   3  28
TORSDOF 7
ENDMDL
MODEL 4
REMARK VINA RESULT: -7.212991360      4.459      8.070
REMARK  7 active torsions:
REMARK  status: ('A' for Active; 'I' for Inactive)
REMARK    1  A    between atoms: C2_2  and  C3_3 
REMARK    2  A    between atoms: C3_3  and  C4_4 
REMARK    3  A    between atoms: C6_6  and  C7_7 
REMARK       I    between atoms: C7_7  and  N1_9 
REMARK       I    between atoms: N4_20  and  C13_21 
REMARK    4  A    between atoms: C13_21  and  C14_23 
REMARK    5  A    between atoms: C16_25  and  O3_26 
REMARK    6  A    between atoms: C16_25  and  C17_28 
REMARK    7  A    between atoms: N5_35  and  O4_36 
ROOT
HETATM    1  C4  UNL     1      12.878  -5.346  20.102  1.00  0.00     0.091 C 
HETATM    2  C5  UNL     1      12.815  -4.520  21.390  1.00  0.00     0.060 C 
HETATM    3  C6  UNL     1      13.374  -5.264  22.579  1.00  0.00     0.172 C 
HETATM    4  N3  UNL     1      13.502  -6.670  22.423  1.00  0.00    -0.393 N 
ATOM      5  H3  UNL     1      13.182  -7.314  23.145  1.00  0.00     0.155 HD
HETATM    6  C12 UNL     1      14.090  -7.142  21.226  1.00  0.00     0.245 C 
HETATM    7  N4  UNL     1      14.050  -6.193  20.142  1.00  0.00    -0.330 N 
HETATM    8  C13 UNL     1      15.107  -6.104  19.244  1.00  0.00     0.241 C 
HETATM    9  O2  UNL     1      16.052  -6.944  19.348  1.00  0.00    -0.271 OA
ENDROOT
BRANCH   1  10
HETATM   10  C3  UNL     1      11.594  -6.113  20.041  1.00  0.00     0.025 C 
BRANCH  10  11
HETATM   11  C2  UNL     1      10.384  -5.344  20.478  1.00  0.00    -0.002 C 
HETATM   12  C1  UNL     1       9.531  -4.902  19.329  1.00  0.00     0.005 C 
ENDBRANCH  10  11
ENDBRANCH   1  10
BRANCH   8  13
HETATM   13  C14 UNL     1      15.266  -5.117  18.157  1.00  0.00     0.181 C 
HETATM   14  C15 UNL     1      16.757  -4.715  18.026  1.00  0.00     0.071 C 
HETATM   15  C16 UNL     1      17.046  -5.081  16.619  1.00  0.00     0.077 C 
HETATM   16  C23 UNL     1      15.687  -4.790  15.967  1.00  0.00     0.159 C 
HETATM   17  N5  UNL     1      14.835  -5.544  16.875  1.00  0.00    -0.183 NA
BRANCH  15  18
HETATM   18  O3  UNL     1      17.301  -6.475  16.554  1.00  0.00    -0.388 OA
ATOM     19  H3  UNL     1      17.186  -6.847  17.421  1.00  0.00     0.210 HD
ENDBRANCH  15  18
BRANCH  15  20
HETATM   20  C17 UNL     1      18.178  -4.413  15.941  1.00  0.00     0.021 C 
HETATM   21  C18 UNL     1      18.592  -5.203  14.688  1.00  0.00     0.007 C 
HETATM   22  C19 UNL     1      20.044  -4.960  14.450  1.00  0.00     0.000 C 
HETATM   23  C20 UNL     1      20.321  -3.495  14.722  1.00  0.00     0.000 C 
HETATM   24  C21 UNL     1      19.089  -2.641  14.536  1.00  0.00     0.000 C 
HETATM   25  C22 UNL     1      17.984  -2.997  15.531  1.00  0.00     0.007 C 
ENDBRANCH  15  20
BRANCH  17  26
HETATM   26  O4  UNL     1      14.966  -6.827  16.576  1.00  0.00    -0.312 OA
ATOM     27  H4  UNL     1      15.584  -7.061  15.892  1.00  0.00     0.237 HD
ENDBRANCH  17  26
ENDBRANCH   8  13
BRANCH   3  28
HETATM   28  C7  UNL     1      12.525  -5.033  23.799  1.00  0.00     0.242 C 
HETATM   29  O1  UNL     1      11.400  -5.632  23.860  1.00  0.00    -0.271 OA
HETATM   30  N1  UNL     1      12.882  -4.205  24.879  1.00  0.00    -0.347 N 
HETATM   31  C8  UNL     1      11.930  -4.072  25.980  1.00  0.00     0.153 C 
HETATM   32  C11 UNL     1      14.148  -3.529  24.884  1.00  0.00     0.153 C 
HETATM   33  C9  UNL     1      12.521  -3.408  27.179  1.00  0.00     0.252 C 
HETATM   34  N2  UNL     1      13.907  -3.850  27.278  1.00  0.00    -0.072 N 
HETATM   35  C10 UNL     1      14.640  -3.152  26.265  1.00  0.00     0.252 C 
ATOM     36  H22 UNL     1      14.301  -3.732  28.212  1.00  0.00     0.277 HD
ATOM     37  H21 UNL     1      14.010  -4.863  27.222  1.00  0.00     0.277 HD
ENDBRANCH   3  28
TORSDOF 7
ENDMDL
MODEL 5
REMARK VINA RESULT: -7.149563935      1.403      1.584
REMARK  7 active torsions:
REMARK  status: ('A' for Active; 'I' for Inactive)
REMARK    1  A    between atoms: C2_2  and  C3_3 
REMARK    2  A    between atoms: C3_3  and  C4_4 
REMARK    3  A    between atoms: C6_6  and  C7_7 
REMARK       I    between atoms: C7_7  and  N1_9 
REMARK       I    between atoms: N4_20  and  C13_21 
REMARK    4  A    between atoms: C13_21  and  C14_23 
REMARK    5  A    between atoms: C16_25  and  O3_26 
REMARK    6  A    between atoms: C16_25  and  C17_28 
REMARK    7  A    between atoms: N5_35  and  O4_36 
ROOT
HETATM    1  C4  UNL     1      14.018  -9.799  18.953  1.00  0.00     0.091 C 
HETATM    2  C5  UNL     1      13.526 -11.115  19.564  1.00  0.00     0.060 C 
HETATM    3  C6  UNL     1      14.661 -11.985  20.049  1.00  0.00     0.172 C 
HETATM    4  N3  UNL     1      15.947 -11.658  19.544  1.00  0.00    -0.393 N 
ATOM      5  H3  UNL     1      16.572 -12.378  19.182  1.00  0.00     0.155 HD
HETATM    6  C12 UNL     1      16.329 -10.297  19.563  1.00  0.00     0.245 C 
HETATM    7  N4  UNL     1      15.219  -9.380  19.643  1.00  0.00    -0.330 N 
HETATM    8  C13 UNL     1      15.326  -8.206  20.378  1.00  0.00     0.241 C 
HETATM    9  O2  UNL     1      16.453  -7.920  20.888  1.00  0.00    -0.271 OA
ENDROOT
BRANCH   1  10
HETATM   10  C3  UNL     1      14.236 -10.075  17.498  1.00  0.00     0.025 C 
BRANCH  10  11
HETATM   11  C2  UNL     1      14.366  -8.852  16.642  1.00  0.00    -0.002 C 
HETATM   12  C1  UNL     1      13.384  -7.782  17.007  1.00  0.00     0.005 C 
ENDBRANCH  10  11
ENDBRANCH   1  10
BRANCH   8  13
HETATM   13  C14 UNL     1      14.254  -7.228  20.647  1.00  0.00     0.181 C 
HETATM   14  C15 UNL     1      14.087  -7.038  22.176  1.00  0.00     0.071 C 
HETATM   15  C16 UNL     1      14.321  -5.582  22.328  1.00  0.00     0.077 C 
HETATM   16  C23 UNL     1      13.736  -5.063  21.007  1.00  0.00     0.159 C 
HETATM   17  N5  UNL     1      14.446  -5.940  20.085  1.00  0.00    -0.183 NA
BRANCH  15  18
HETATM   18  O3  UNL     1      15.720  -5.345  22.338  1.00  0.00    -0.388 OA
ATOM     19  H3  UNL     1      15.987  -5.060  21.472  1.00  0.00     0.210 HD
ENDBRANCH  15  18
BRANCH  15  20
HETATM   20  C17 UNL     1      13.769  -4.905  23.521  1.00  0.00     0.021 C 
HETATM   21  C18 UNL     1      14.293  -3.462  23.607  1.00  0.00     0.007 C 
HETATM   22  C19 UNL     1      14.321  -3.066  25.044  1.00  0.00     0.000 C 
HETATM   23  C20 UNL     1      13.066  -3.609  25.700  1.00  0.00     0.000 C 
HETATM   24  C21 UNL     1      11.946  -3.803  24.706  1.00  0.00     0.000 C 
HETATM   25  C22 UNL     1      12.288  -4.850  23.646  1.00  0.00     0.007 C 
ENDBRANCH  15  20
BRANCH  17  26
HETATM   26  O4  UNL     1      15.687  -5.490  19.982  1.00  0.00    -0.312 OA
ATOM     27  H4  UNL     1      15.921  -5.013  19.194  1.00  0.00     0.237 HD
ENDBRANCH  17  26
ENDBRANCH   8  13
BRANCH   3  28
HETATM   28  C7  UNL     1      14.408 -13.429  19.708  1.00  0.00     0.242 C 
HETATM   29  O1  UNL     1      14.925 -13.883  18.634  1.00  0.00    -0.271 OA
HETATM   30  N1  UNL     1      13.643 -14.314  20.490  1.00  0.00    -0.347 N 
HETATM   31  C8  UNL     1      13.477 -15.683  20.003  1.00  0.00     0.153 C 
HETATM   32  C11 UNL     1      13.062 -13.871  21.724  1.00  0.00     0.153 C 
HETATM   33  C9  UNL     1      12.897 -16.595  21.032  1.00  0.00     0.252 C 
HETATM   34  N2  UNL     1      13.442 -16.192  22.324  1.00  0.00    -0.072 N 
HETATM   35  C10 UNL     1      12.767 -14.988  22.703  1.00  0.00     0.252 C 
ATOM     36  H22 UNL     1      13.383 -16.925  23.031  1.00  0.00     0.277 HD
ATOM     37  H21 UNL     1      14.458 -16.099  22.319  1.00  0.00     0.277 HD
ENDBRANCH   3  28
TORSDOF 7
ENDMDL
