MODEL 1
REMARK VINA RESULT: -6.838646181      0.000      0.000
REMARK  9 active torsions:
REMARK  status: ('A' for Active; 'I' for Inactive)
REMARK       I    between atoms: C2_2  and  N1_4 
REMARK    1  A    between atoms: N1_4  and  C3_6 
REMARK    2  A    between atoms: C3_6  and  C4_7 
REMARK    3  A    between atoms: C3_6  and  C9_15 
REMARK    4  A    between atoms: C9_15  and  C10_16 
REMARK    5  A    between atoms: C9_15  and  N4_28 
REMARK    6  A    between atoms: C10_16  and  C11_18 
REMARK    7  A    between atoms: C11_18  and  N3_20 
REMARK       I    between atoms: N3_20  and  C13_22 
REMARK    8  A    between atoms: C13_22  and  C14_24 
REMARK    9  A    between atoms: C22_34  and  O4_35 
ROOT
HETATM    1  C9  UNL     1      13.069  -6.454  21.902  1.00  0.00     0.085 C 
ENDROOT
BRANCH   1   2
HETATM    2  C3  UNL     1      12.393  -5.683  22.919  1.00  0.00     0.142 C 
BRANCH   2   3
HETATM    3  N1  UNL     1      11.403  -4.854  22.169  1.00  0.00    -0.351 N 
HETATM    4  C2  UNL     1      10.032  -5.144  22.109  1.00  0.00     0.214 C 
HETATM    5  C1  UNL     1       9.122  -4.280  21.341  1.00  0.00     0.117 C 
HETATM    6  O1  UNL     1       9.597  -6.153  22.719  1.00  0.00    -0.274 OA
ATOM      7  H1  UNL     1      11.743  -4.030  21.673  1.00  0.00     0.163 HD
ENDBRANCH   2   3
BRANCH   2   8
HETATM    8  C4  UNL     1      12.879  -4.820  23.966  1.00  0.00     0.018 C 
HETATM    9  C5  UNL     1      11.897  -4.095  24.854  1.00  0.00     0.034 C 
HETATM   10  C6  UNL     1      12.571  -3.828  26.217  1.00  0.00     0.232 C 
HETATM   11  N2  UNL     1      13.620  -2.858  25.913  1.00  0.00    -0.075 N 
HETATM   12  C7  UNL     1      14.609  -3.457  25.039  1.00  0.00     0.232 C 
ATOM     13  H22 UNL     1      13.241  -1.993  25.527  1.00  0.00     0.277 HD
ATOM     14  H21 UNL     1      14.040  -2.471  26.758  1.00  0.00     0.277 HD
HETATM   15  C8  UNL     1      14.015  -3.869  23.709  1.00  0.00     0.034 C 
ENDBRANCH   2   8
ENDBRANCH   1   2
BRANCH   1  16
HETATM   16  C10 UNL     1      13.581  -5.766  20.675  1.00  0.00     0.196 C 
HETATM   17  O2  UNL     1      12.766  -5.277  19.924  1.00  0.00    -0.289 OA
BRANCH  16  18
HETATM   18  C11 UNL     1      14.994  -5.634  20.276  1.00  0.00     0.156 C 
HETATM   19  C12 UNL     1      15.419  -4.340  19.688  1.00  0.00     0.041 C 
BRANCH  18  20
HETATM   20  N3  UNL     1      15.316  -6.654  19.247  1.00  0.00    -0.349 N 
HETATM   21  C13 UNL     1      16.034  -7.838  19.576  1.00  0.00     0.226 C 
HETATM   22  O3  UNL     1      16.382  -7.955  20.802  1.00  0.00    -0.273 OA
ATOM     23  H3  UNL     1      15.017  -6.502  18.284  1.00  0.00     0.163 HD
BRANCH  21  24
HETATM   24  C14 UNL     1      16.366  -8.872  18.595  1.00  0.00     0.030 C 
HETATM   25  C15 UNL     1      17.101 -10.003  19.292  1.00  0.00     0.024 C 
HETATM   26  C16 UNL     1      17.190  -8.395  17.431  1.00  0.00     0.024 C 
HETATM   27  C17 UNL     1      15.108  -9.523  18.008  1.00  0.00     0.024 C 
ENDBRANCH  21  24
ENDBRANCH  18  20
ENDBRANCH  16  18
ENDBRANCH   1  16
BRANCH   1  28
HETATM   28  N4  UNL     1      12.533  -7.744  21.540  1.00  0.00    -0.325 N 
HETATM   29  C18 UNL     1      11.671  -7.974  20.512  1.00  0.00     0.110 C 
HETATM   30  C19 UNL     1      11.879  -9.271  19.733  1.00  0.00     0.102 C 
HETATM   31  N5  UNL     1      12.447 -10.327  20.474  1.00  0.00    -0.389 N 
HETATM   32  C20 UNL     1      11.583 -11.377  20.880  1.00  0.00     0.149 C 
HETATM   33  C21 UNL     1      13.521  -9.989  21.331  1.00  0.00     0.175 C 
HETATM   34  C22 UNL     1      13.081  -8.863  22.235  1.00  0.00     0.242 C 
BRANCH  34  35
HETATM   35  O4  UNL     1      12.268  -9.356  23.263  1.00  0.00    -0.375 OA
ATOM     36  H4  UNL     1      12.500 -10.229  23.559  1.00  0.00     0.212 HD
ENDBRANCH  34  35
ENDBRANCH   1  28
TORSDOF 9
ENDMDL
MODEL 2
REMARK VINA RESULT: -6.494452342      2.579      6.162
REMARK  9 active torsions:
REMARK  status: ('A' for Active; 'I' for Inactive)
REMARK       I    between atoms: C2_2  and  N1_4 
REMARK    1  A    between atoms: N1_4  and  C3_6 
REMARK    2  A    between atoms: C3_6  and  C4_7 
REMARK    3  A    between atoms: C3_6  and  C9_15 
REMARK    4  A    between atoms: C9_15  and  C10_16 
REMARK    5  A    between atoms: C9_15  and  N4_28 
REMARK    6  A    between atoms: C10_16  and  C11_18 
REMARK    7  A    between atoms: C11_18  and  N3_20 
REMARK       I    between atoms: N3_20  and  C13_22 
REMARK    8  A    between atoms: C13_22  and  C14_24 
REMARK    9  A    between atoms: C22_34  and  O4_35 
ROOT
HETATM    1  C9  UNL     1      12.849  -4.785  21.073  1.00  0.00     0.085 C 
ENDROOT
BRANCH   1   2
HETATM    2  C3  UNL     1      13.402  -5.181  22.347  1.00  0.00     0.142 C 
BRANCH   2   3
HETATM    3  N1  UNL     1      12.868  -6.556  22.581  1.00  0.00    -0.351 N 
HETATM    4  C2  UNL     1      13.560  -7.727  22.240  1.00  0.00     0.214 C 
HETATM    5  C1  UNL     1      12.961  -9.046  22.497  1.00  0.00     0.117 C 
HETATM    6  O1  UNL     1      14.697  -7.630  21.712  1.00  0.00    -0.274 OA
ATOM      7  H1  UNL     1      11.949  -6.648  23.013  1.00  0.00     0.163 HD
ENDBRANCH   2   3
BRANCH   2   8
HETATM    8  C4  UNL     1      13.392  -4.556  23.646  1.00  0.00     0.018 C 
HETATM    9  C5  UNL     1      12.150  -3.845  24.125  1.00  0.00     0.034 C 
HETATM   10  C6  UNL     1      12.129  -3.875  25.668  1.00  0.00     0.232 C 
HETATM   11  N2  UNL     1      13.248  -3.021  26.057  1.00  0.00    -0.075 N 
HETATM   12  C7  UNL     1      14.497  -3.611  25.618  1.00  0.00     0.232 C 
ATOM     13  H22 UNL     1      13.136  -2.065  25.717  1.00  0.00     0.277 HD
ATOM     14  H21 UNL     1      13.248  -2.824  27.057  1.00  0.00     0.277 HD
HETATM   15  C8  UNL     1      14.565  -3.738  24.111  1.00  0.00     0.034 C 
ENDBRANCH   2   8
ENDBRANCH   1   2
BRANCH   1  16
HETATM   16  C10 UNL     1      11.522  -5.333  20.645  1.00  0.00     0.196 C 
HETATM   17  O2  UNL     1      11.522  -6.323  19.949  1.00  0.00    -0.289 OA
BRANCH  16  18
HETATM   18  C11 UNL     1      10.200  -4.771  20.978  1.00  0.00     0.156 C 
HETATM   19  C12 UNL     1       9.520  -5.297  22.187  1.00  0.00     0.041 C 
BRANCH  18  20
HETATM   20  N3  UNL     1       9.258  -5.025  19.860  1.00  0.00    -0.349 N 
HETATM   21  C13 UNL     1       8.188  -4.132  19.576  1.00  0.00     0.226 C 
HETATM   22  O3  UNL     1       8.093  -3.113  20.346  1.00  0.00    -0.273 OA
ATOM     23  H3  UNL     1       9.381  -5.857  19.284  1.00  0.00     0.163 HD
BRANCH  21  24
HETATM   24  C14 UNL     1       7.240  -4.339  18.480  1.00  0.00     0.030 C 
HETATM   25  C15 UNL     1       6.440  -5.602  18.743  1.00  0.00     0.024 C 
HETATM   26  C16 UNL     1       7.866  -4.431  17.115  1.00  0.00     0.024 C 
HETATM   27  C17 UNL     1       6.197  -3.218  18.412  1.00  0.00     0.024 C 
ENDBRANCH  21  24
ENDBRANCH  18  20
ENDBRANCH  16  18
ENDBRANCH   1  16
BRANCH   1  28
HETATM   28  N4  UNL     1      13.727  -4.707  19.931  1.00  0.00    -0.325 N 
HETATM   29  C18 UNL     1      13.336  -4.836  18.633  1.00  0.00     0.110 C 
HETATM   30  C19 UNL     1      14.041  -3.934  17.623  1.00  0.00     0.102 C 
HETATM   31  N5  UNL     1      15.357  -3.565  17.967  1.00  0.00    -0.389 N 
HETATM   32  C20 UNL     1      16.416  -4.208  17.275  1.00  0.00     0.149 C 
HETATM   33  C21 UNL     1      15.576  -3.203  19.318  1.00  0.00     0.175 C 
HETATM   34  C22 UNL     1      15.070  -4.315  20.204  1.00  0.00     0.242 C 
BRANCH  34  35
HETATM   35  O4  UNL     1      15.986  -5.375  20.221  1.00  0.00    -0.375 OA
ATOM     36  H4  UNL     1      16.740  -5.248  19.659  1.00  0.00     0.212 HD
ENDBRANCH  34  35
ENDBRANCH   1  28
TORSDOF 9
ENDMDL
MODEL 3
REMARK VINA RESULT: -6.480917358      1.702      2.539
REMARK  9 active torsions:
REMARK  status: ('A' for Active; 'I' for Inactive)
REMARK       I    between atoms: C2_2  and  N1_4 
REMARK    1  A    between atoms: N1_4  and  C3_6 
REMARK    2  A    between atoms: C3_6  and  C4_7 
REMARK    3  A    between atoms: C3_6  and  C9_15 
REMARK    4  A    between atoms: C9_15  and  C10_16 
REMARK    5  A    between atoms: C9_15  and  N4_28 
REMARK    6  A    between atoms: C10_16  and  C11_18 
REMARK    7  A    between atoms: C11_18  and  N3_20 
REMARK       I    between atoms: N3_20  and  C13_22 
REMARK    8  A    between atoms: C13_22  and  C14_24 
REMARK    9  A    between atoms: C22_34  and  O4_35 
ROOT
HETATM    1  C9  UNL     1      12.698  -7.058  21.927  1.00  0.00     0.085 C 
ENDROOT
BRANCH   1   2
HETATM    2  C3  UNL     1      12.206  -5.942  22.700  1.00  0.00     0.142 C 
BRANCH   2   3
HETATM    3  N1  UNL     1      11.536  -5.056  21.701  1.00  0.00    -0.351 N 
HETATM    4  C2  UNL     1      10.150  -4.850  21.652  1.00  0.00     0.214 C 
HETATM    5  C1  UNL     1       9.566  -3.966  20.631  1.00  0.00     0.117 C 
HETATM    6  O1  UNL     1       9.418  -5.432  22.491  1.00  0.00    -0.274 OA
ATOM      7  H1  UNL     1      12.120  -4.574  21.017  1.00  0.00     0.163 HD
ENDBRANCH   2   3
BRANCH   2   8
HETATM    8  C4  UNL     1      12.851  -5.039  23.620  1.00  0.00     0.018 C 
HETATM    9  C5  UNL     1      12.014  -4.158  24.515  1.00  0.00     0.034 C 
HETATM   10  C6  UNL     1      12.825  -3.837  25.787  1.00  0.00     0.232 C 
HETATM   11  N2  UNL     1      13.917  -2.992  25.311  1.00  0.00    -0.075 N 
HETATM   12  C7  UNL     1      14.773  -3.747  24.417  1.00  0.00     0.232 C 
ATOM     13  H22 UNL     1      13.576  -2.133  24.879  1.00  0.00     0.277 HD
ATOM     14  H21 UNL     1      14.440  -2.573  26.080  1.00  0.00     0.277 HD
HETATM   15  C8  UNL     1      14.032  -4.217  23.184  1.00  0.00     0.034 C 
ENDBRANCH   2   8
ENDBRANCH   1   2
BRANCH   1  16
HETATM   16  C10 UNL     1      13.275  -6.814  20.567  1.00  0.00     0.196 C 
HETATM   17  O2  UNL     1      12.506  -6.555  19.668  1.00  0.00    -0.289 OA
BRANCH  16  18
HETATM   18  C11 UNL     1      14.704  -6.872  20.203  1.00  0.00     0.156 C 
HETATM   19  C12 UNL     1      15.656  -7.320  21.249  1.00  0.00     0.041 C 
BRANCH  18  20
HETATM   20  N3  UNL     1      15.170  -5.520  19.806  1.00  0.00    -0.349 N 
HETATM   21  C13 UNL     1      15.673  -5.264  18.500  1.00  0.00     0.226 C 
HETATM   22  O3  UNL     1      15.702  -6.269  17.708  1.00  0.00    -0.273 OA
ATOM     23  H3  UNL     1      15.128  -4.759  20.484  1.00  0.00     0.163 HD
BRANCH  21  24
HETATM   24  C14 UNL     1      16.136  -3.946  18.064  1.00  0.00     0.030 C 
HETATM   25  C15 UNL     1      15.245  -3.450  16.939  1.00  0.00     0.024 C 
HETATM   26  C16 UNL     1      17.569  -3.899  17.611  1.00  0.00     0.024 C 
HETATM   27  C17 UNL     1      15.989  -2.897  19.173  1.00  0.00     0.024 C 
ENDBRANCH  21  24
ENDBRANCH  18  20
ENDBRANCH  16  18
ENDBRANCH   1  16
BRANCH   1  28
HETATM   28  N4  UNL     1      11.932  -8.281  21.910  1.00  0.00    -0.325 N 
HETATM   29  C18 UNL     1      10.654  -8.398  21.456  1.00  0.00     0.110 C 
HETATM   30  C19 UNL     1      10.318  -9.686  20.707  1.00  0.00     0.102 C 
HETATM   31  N5  UNL     1      11.076 -10.812  21.085  1.00  0.00    -0.389 N 
HETATM   32  C20 UNL     1      10.436 -11.787  21.893  1.00  0.00     0.149 C 
HETATM   33  C21 UNL     1      12.462 -10.601  21.281  1.00  0.00     0.175 C 
HETATM   34  C22 UNL     1      12.644  -9.466  22.259  1.00  0.00     0.242 C 
BRANCH  34  35
HETATM   35  O4  UNL     1      12.412  -9.911  23.567  1.00  0.00    -0.375 OA
ATOM     36  H4  UNL     1      11.928  -9.298  24.107  1.00  0.00     0.212 HD
ENDBRANCH  34  35
ENDBRANCH   1  28
TORSDOF 9
ENDMDL
MODEL 4
REMARK VINA RESULT: -6.279113406      1.618      3.500
REMARK  9 active torsions:
REMARK  status: ('A' for Active; 'I' for Inactive)
REMARK       I    between atoms: C2_2  and  N1_4 
REMARK    1  A    between atoms: N1_4  and  C3_6 
REMARK    2  A    between atoms: C3_6  and  C4_7 
REMARK    3  A    between atoms: C3_6  and  C9_15 
REMARK    4  A    between atoms: C9_15  and  C10_16 
REMARK    5  A    between atoms: C9_15  and  N4_28 
REMARK    6  A    between atoms: C10_16  and  C11_18 
REMARK    7  A    between atoms: C11_18  and  N3_20 
REMARK       I    between atoms: N3_20  and  C13_22 
REMARK    8  A    between atoms: C13_22  and  C14_24 
REMARK    9  A    between atoms: C22_34  and  O4_35 
ROOT
HETATM    1  C9  UNL     1      12.667  -6.210  21.575  1.00  0.00     0.085 C 
ENDROOT
BRANCH   1   2
HETATM    2  C3  UNL     1      12.167  -5.548  22.758  1.00  0.00     0.142 C 
BRANCH   2   3
HETATM    3  N1  UNL     1      11.044  -4.695  22.268  1.00  0.00    -0.351 N 
HETATM    4  C2  UNL     1       9.717  -5.139  22.169  1.00  0.00     0.214 C 
HETATM    5  C1  UNL     1       8.667  -4.237  21.670  1.00  0.00     0.117 C 
HETATM    6  O1  UNL     1       9.442  -6.316  22.513  1.00  0.00    -0.274 OA
ATOM      7  H1  UNL     1      11.253  -3.736  21.991  1.00  0.00     0.163 HD
ENDBRANCH   2   3
BRANCH   2   8
HETATM    8  C4  UNL     1      12.815  -4.758  23.775  1.00  0.00     0.018 C 
HETATM    9  C5  UNL     1      11.986  -3.886  24.686  1.00  0.00     0.034 C 
HETATM   10  C6  UNL     1      12.742  -3.710  26.020  1.00  0.00     0.232 C 
HETATM   11  N2  UNL     1      13.911  -2.910  25.665  1.00  0.00    -0.075 N 
HETATM   12  C7  UNL     1      14.767  -3.658  24.765  1.00  0.00     0.232 C 
ATOM     13  H22 UNL     1      13.651  -2.002  25.280  1.00  0.00     0.277 HD
ATOM     14  H21 UNL     1      14.415  -2.583  26.489  1.00  0.00     0.277 HD
HETATM   15  C8  UNL     1      14.069  -3.989  23.464  1.00  0.00     0.034 C 
ENDBRANCH   2   8
ENDBRANCH   1   2
BRANCH   1  16
HETATM   16  C10 UNL     1      13.637  -7.341  21.719  1.00  0.00     0.196 C 
HETATM   17  O2  UNL     1      14.762  -7.074  22.079  1.00  0.00    -0.289 OA
BRANCH  16  18
HETATM   18  C11 UNL     1      13.362  -8.765  21.450  1.00  0.00     0.156 C 
HETATM   19  C12 UNL     1      12.885  -9.594  22.584  1.00  0.00     0.041 C 
BRANCH  18  20
HETATM   20  N3  UNL     1      14.602  -9.429  20.977  1.00  0.00    -0.349 N 
HETATM   21  C13 UNL     1      14.808  -9.719  19.600  1.00  0.00     0.226 C 
HETATM   22  O3  UNL     1      13.859  -9.379  18.811  1.00  0.00    -0.273 OA
ATOM     23  H3  UNL     1      15.322  -9.682  21.654  1.00  0.00     0.163 HD
BRANCH  21  24
HETATM   24  C14 UNL     1      16.018 -10.365  19.089  1.00  0.00     0.030 C 
HETATM   25  C15 UNL     1      16.119 -11.765  19.668  1.00  0.00     0.024 C 
HETATM   26  C16 UNL     1      17.295  -9.624  19.371  1.00  0.00     0.024 C 
HETATM   27  C17 UNL     1      15.954 -10.572  17.571  1.00  0.00     0.024 C 
ENDBRANCH  21  24
ENDBRANCH  18  20
ENDBRANCH  16  18
ENDBRANCH   1  16
BRANCH   1  28
HETATM   28  N4  UNL     1      13.033  -5.407  20.434  1.00  0.00    -0.325 N 
HETATM   29  C18 UNL     1      14.108  -4.574  20.374  1.00  0.00     0.110 C 
HETATM   30  C19 UNL     1      14.842  -4.514  19.037  1.00  0.00     0.102 C 
HETATM   31  N5  UNL     1      14.044  -4.776  17.905  1.00  0.00    -0.389 N 
HETATM   32  C20 UNL     1      13.669  -3.667  17.102  1.00  0.00     0.149 C 
HETATM   33  C21 UNL     1      13.129  -5.849  18.014  1.00  0.00     0.175 C 
HETATM   34  C22 UNL     1      12.280  -5.637  19.244  1.00  0.00     0.242 C 
BRANCH  34  35
HETATM   35  O4  UNL     1      11.295  -4.674  18.993  1.00  0.00    -0.375 OA
ATOM     36  H4  UNL     1      11.392  -4.224  18.162  1.00  0.00     0.212 HD
ENDBRANCH  34  35
ENDBRANCH   1  28
TORSDOF 9
ENDMDL
MODEL 5
REMARK VINA RESULT: -6.200878618      2.416      6.184
REMARK  9 active torsions:
REMARK  status: ('A' for Active; 'I' for Inactive)
REMARK       I    between atoms: C2_2  and  N1_4 
REMARK    1  A    between atoms: N1_4  and  C3_6 
REMARK    2  A    between atoms: C3_6  and  C4_7 
REMARK    3  A    between atoms: C3_6  and  C9_15 
REMARK    4  A    between atoms: C9_15  and  C10_16 
REMARK    5  A    between atoms: C9_15  and  N4_28 
REMARK    6  A    between atoms: C10_16  and  C11_18 
REMARK    7  A    between atoms: C11_18  and  N3_20 
REMARK       I    between atoms: N3_20  and  C13_22 
REMARK    8  A    between atoms: C13_22  and  C14_24 
REMARK    9  A    between atoms: C22_34  and  O4_35 
ROOT
HETATM    1  C9  UNL     1      14.074  -6.192  20.639  1.00  0.00     0.085 C 
ENDROOT
BRANCH   1   2
HETATM    2  C3  UNL     1      14.464  -7.581  20.589  1.00  0.00     0.142 C 
BRANCH   2   3
HETATM    3  N1  UNL     1      15.152  -7.735  19.273  1.00  0.00    -0.351 N 
HETATM    4  C2  UNL     1      16.351  -8.441  19.100  1.00  0.00     0.214 C 
HETATM    5  C1  UNL     1      16.970  -8.540  17.769  1.00  0.00     0.117 C 
HETATM    6  O1  UNL     1      16.887  -8.985  20.099  1.00  0.00    -0.274 OA
ATOM      7  H1  UNL     1      14.725  -7.302  18.454  1.00  0.00     0.163 HD
ENDBRANCH   2   3
BRANCH   2   8
HETATM    8  C4  UNL     1      13.721  -8.805  20.763  1.00  0.00     0.018 C 
HETATM    9  C5  UNL     1      12.276  -8.871  20.332  1.00  0.00     0.034 C 
HETATM   10  C6  UNL     1      11.933 -10.334  19.984  1.00  0.00     0.232 C 
HETATM   11  N2  UNL     1      11.995 -11.031  21.265  1.00  0.00    -0.075 N 
HETATM   12  C7  UNL     1      13.351 -11.003  21.778  1.00  0.00     0.232 C 
ATOM     13  H22 UNL     1      11.324 -10.657  21.937  1.00  0.00     0.277 HD
ATOM     14  H21 UNL     1      11.629 -11.981  21.202  1.00  0.00     0.277 HD
HETATM   15  C8  UNL     1      13.829  -9.591  22.040  1.00  0.00     0.034 C 
ENDBRANCH   2   8
ENDBRANCH   1   2
BRANCH   1  16
HETATM   16  C10 UNL     1      14.860  -5.179  19.866  1.00  0.00     0.196 C 
HETATM   17  O2  UNL     1      16.043  -5.082  20.108  1.00  0.00    -0.289 OA
BRANCH  16  18
HETATM   18  C11 UNL     1      14.331  -4.265  18.836  1.00  0.00     0.156 C 
HETATM   19  C12 UNL     1      13.019  -4.605  18.232  1.00  0.00     0.041 C 
BRANCH  18  20
HETATM   20  N3  UNL     1      15.279  -4.198  17.697  1.00  0.00    -0.349 N 
HETATM   21  C13 UNL     1      15.779  -2.954  17.221  1.00  0.00     0.226 C 
HETATM   22  O3  UNL     1      15.353  -1.913  17.831  1.00  0.00    -0.273 OA
ATOM     23  H3  UNL     1      15.579  -5.063  17.246  1.00  0.00     0.163 HD
BRANCH  21  24
HETATM   24  C14 UNL     1      16.720  -2.843  16.106  1.00  0.00     0.030 C 
HETATM   25  C15 UNL     1      16.322  -3.821  15.015  1.00  0.00     0.024 C 
HETATM   26  C16 UNL     1      18.160  -3.076  16.471  1.00  0.00     0.024 C 
HETATM   27  C17 UNL     1      16.652  -1.464  15.440  1.00  0.00     0.024 C 
ENDBRANCH  21  24
ENDBRANCH  18  20
ENDBRANCH  16  18
ENDBRANCH   1  16
BRANCH   1  28
HETATM   28  N4  UNL     1      13.679  -5.627  21.906  1.00  0.00    -0.325 N 
HETATM   29  C18 UNL     1      14.520  -5.025  22.791  1.00  0.00     0.110 C 
HETATM   30  C19 UNL     1      13.965  -3.810  23.532  1.00  0.00     0.102 C 
HETATM   31  N5  UNL     1      12.569  -3.813  23.721  1.00  0.00    -0.389 N 
HETATM   32  C20 UNL     1      12.088  -4.114  25.022  1.00  0.00     0.149 C 
HETATM   33  C21 UNL     1      11.784  -4.227  22.618  1.00  0.00     0.175 C 
HETATM   34  C22 UNL     1      12.275  -5.576  22.155  1.00  0.00     0.242 C 
BRANCH  34  35
HETATM   35  O4  UNL     1      11.807  -6.582  23.009  1.00  0.00    -0.375 OA
ATOM     36  H4  UNL     1      11.648  -7.415  22.581  1.00  0.00     0.212 HD
ENDBRANCH  34  35
ENDBRANCH   1  28
TORSDOF 9
ENDMDL
