MODEL 1
REMARK VINA RESULT: -7.977078158      0.000      0.000
REMARK  8 active torsions:
REMARK  status: ('A' for Active; 'I' for Inactive)
REMARK    1  A    between atoms: C2_2  and  C3_3 
REMARK    2  A    between atoms: C3_3  and  C4_4 
REMARK       I    between atoms: C4_4  and  N1_6 
REMARK    3  A    between atoms: N1_6  and  C5_7 
REMARK    4  A    between atoms: N1_6  and  S1_18 
REMARK    5  A    between atoms: C5_7  and  C6_8 
REMARK       I    between atoms: N2_12  and  C10_13 
REMARK    6  A    between atoms: S1_18  and  N5_21 
REMARK    7  A    between atoms: C14_24  and  C15_25 
REMARK    8  A    between atoms: C15_25  and  C16_26 
ROOT
HETATM    1  S1  UNL     1      12.964 -10.384  21.311  1.00  0.00     0.112 S 
HETATM    2  C11 UNL     1      12.269 -10.432  19.557  1.00  0.00     0.161 C 
HETATM    3  O2  UNL     1      11.124 -10.902  21.865  1.00  0.00    -0.228 OA
ENDROOT
BRANCH   1   4
HETATM    4  N1  UNL     1      14.011 -11.872  21.008  1.00  0.00    -0.260 N 
HETATM    5  C4  UNL     1      14.218 -12.800  22.059  1.00  0.00     0.235 C 
HETATM    6  O1  UNL     1      14.849 -13.866  21.781  1.00  0.00    -0.272 OA
BRANCH   5   7
HETATM    7  C3  UNL     1      13.776 -12.653  23.453  1.00  0.00     0.130 C 
BRANCH   7   8
HETATM    8  C2  UNL     1      14.721 -13.383  24.382  1.00  0.00    -0.028 C 
HETATM    9  C1  UNL     1      14.302 -14.357  25.169  1.00  0.00     0.007 C 
ENDBRANCH   7   8
ENDBRANCH   5   7
BRANCH   4  10
HETATM   10  C5  UNL     1      14.583 -12.208  19.751  1.00  0.00     0.168 C 
BRANCH  10  11
HETATM   11  C6  UNL     1      15.955 -11.730  19.483  1.00  0.00     0.106 C 
HETATM   12  C7  UNL     1      16.166 -10.267  19.300  1.00  0.00     0.028 C 
HETATM   13  C8  UNL     1      17.606 -10.230  18.752  1.00  0.00     0.022 C 
HETATM   14  C9  UNL     1      17.884 -11.655  18.265  1.00  0.00     0.126 C 
HETATM   15  N2  UNL     1      16.535 -12.240  18.250  1.00  0.00    -0.350 N 
HETATM   16  C10 UNL     1      16.037 -13.067  17.232  1.00  0.00     0.184 C 
HETATM   17  N3  UNL     1      16.030 -12.671  16.007  1.00  0.00    -0.374 N 
HETATM   18  N4  UNL     1      15.533 -14.349  17.533  1.00  0.00    -0.064 NA
ATOM     19  H32 UNL     1      16.395 -11.743  15.790  1.00  0.00     0.158 HD
ATOM     20  H31 UNL     1      15.668 -13.273  15.268  1.00  0.00     0.158 HD
ENDBRANCH  10  11
ENDBRANCH   4  10
ENDBRANCH   1   4
BRANCH   1  21
HETATM   21  N5  UNL     1      13.344  -8.696  21.248  1.00  0.00    -0.307 N 
HETATM   22  C12 UNL     1      12.253  -7.868  21.745  1.00  0.00     0.139 C 
HETATM   23  C13 UNL     1      12.196  -6.658  20.878  1.00  0.00     0.026 C 
HETATM   24  C14 UNL     1      13.443  -5.822  21.196  1.00  0.00    -0.003 C 
HETATM   25  C20 UNL     1      14.455  -6.603  21.973  1.00  0.00     0.050 C 
HETATM   26  C21 UNL     1      14.546  -8.031  21.564  1.00  0.00     0.075 C 
BRANCH  24  27
HETATM   27  C15 UNL     1      12.947  -4.610  21.948  1.00  0.00     0.064 C 
BRANCH  27  28
HETATM   28  C16 UNL     1      13.836  -4.224  23.068  1.00  0.00     0.037 A 
HETATM   29  N6  UNL     1      15.156  -3.997  23.032  1.00  0.00    -0.301 N 
HETATM   30  N7  UNL     1      15.595  -3.664  24.251  1.00  0.00    -0.266 N 
ATOM     31  H6  UNL     1      15.740  -4.068  22.199  1.00  0.00     0.186 HD
HETATM   32  C17 UNL     1      14.576  -3.663  25.124  1.00  0.00     0.267 A 
ATOM     33  H7  UNL     1      16.564  -3.442  24.482  1.00  0.00     0.190 HD
HETATM   34  O3  UNL     1      14.610  -3.402  26.345  1.00  0.00    -0.266 OA
HETATM   35  C18 UNL     1      13.453  -4.018  24.377  1.00  0.00     0.031 A 
HETATM   36  C19 UNL     1      12.080  -4.150  24.934  1.00  0.00     0.056 C 
ENDBRANCH  27  28
ENDBRANCH  24  27
ENDBRANCH   1  21
TORSDOF 8
ENDMDL
MODEL 2
REMARK VINA RESULT: -7.952646633      4.180      5.800
REMARK  8 active torsions:
REMARK  status: ('A' for Active; 'I' for Inactive)
REMARK    1  A    between atoms: C2_2  and  C3_3 
REMARK    2  A    between atoms: C3_3  and  C4_4 
REMARK       I    between atoms: C4_4  and  N1_6 
REMARK    3  A    between atoms: N1_6  and  C5_7 
REMARK    4  A    between atoms: N1_6  and  S1_18 
REMARK    5  A    between atoms: C5_7  and  C6_8 
REMARK       I    between atoms: N2_12  and  C10_13 
REMARK    6  A    between atoms: S1_18  and  N5_21 
REMARK    7  A    between atoms: C14_24  and  C15_25 
REMARK    8  A    between atoms: C15_25  and  C16_26 
ROOT
HETATM    1  S1  UNL     1      13.281  -6.967  19.046  1.00  0.00     0.112 S 
HETATM    2  C11 UNL     1      12.512  -5.484  18.169  1.00  0.00     0.161 C 
HETATM    3  O2  UNL     1      11.939  -8.037  18.039  1.00  0.00    -0.228 OA
ENDROOT
BRANCH   1   4
HETATM    4  N1  UNL     1      14.851  -6.800  18.092  1.00  0.00    -0.260 N 
HETATM    5  C4  UNL     1      15.809  -7.844  18.145  1.00  0.00     0.235 C 
HETATM    6  O1  UNL     1      16.823  -7.744  17.388  1.00  0.00    -0.272 OA
BRANCH   5   7
HETATM    7  C3  UNL     1      15.750  -9.040  18.997  1.00  0.00     0.130 C 
BRANCH   7   8
HETATM    8  C2  UNL     1      16.557  -8.825  20.259  1.00  0.00    -0.028 C 
HETATM    9  C1  UNL     1      16.070  -8.150  21.283  1.00  0.00     0.007 C 
ENDBRANCH   7   8
ENDBRANCH   5   7
BRANCH   4  10
HETATM   10  C5  UNL     1      15.154  -5.713  17.228  1.00  0.00     0.168 C 
BRANCH  10  11
HETATM   11  C6  UNL     1      16.105  -4.699  17.727  1.00  0.00     0.106 C 
HETATM   12  C7  UNL     1      15.554  -3.460  18.344  1.00  0.00     0.028 C 
HETATM   13  C8  UNL     1      16.812  -2.574  18.432  1.00  0.00     0.022 C 
HETATM   14  C9  UNL     1      17.816  -3.211  17.468  1.00  0.00     0.126 C 
HETATM   15  N2  UNL     1      16.962  -4.127  16.699  1.00  0.00    -0.350 N 
HETATM   16  C10 UNL     1      17.040  -4.313  15.311  1.00  0.00     0.184 C 
HETATM   17  N3  UNL     1      16.930  -3.314  14.506  1.00  0.00    -0.374 N 
HETATM   18  N4  UNL     1      17.239  -5.600  14.770  1.00  0.00    -0.064 NA
ATOM     19  H32 UNL     1      16.786  -2.383  14.898  1.00  0.00     0.158 HD
ATOM     20  H31 UNL     1      16.987  -3.450  13.497  1.00  0.00     0.158 HD
ENDBRANCH  10  11
ENDBRANCH   4  10
ENDBRANCH   1   4
BRANCH   1  21
HETATM   21  N5  UNL     1      12.849  -6.413  20.629  1.00  0.00    -0.307 N 
HETATM   22  C12 UNL     1      13.189  -5.011  20.832  1.00  0.00     0.139 C 
HETATM   23  C13 UNL     1      13.681  -4.881  22.232  1.00  0.00     0.026 C 
HETATM   24  C14 UNL     1      12.469  -5.085  23.151  1.00  0.00    -0.003 C 
HETATM   25  C20 UNL     1      11.304  -5.670  22.417  1.00  0.00     0.050 C 
HETATM   26  C21 UNL     1      11.692  -6.673  21.389  1.00  0.00     0.075 C 
BRANCH  24  27
HETATM   27  C15 UNL     1      12.161  -3.727  23.735  1.00  0.00     0.064 C 
BRANCH  27  28
HETATM   28  C16 UNL     1      12.326  -3.681  25.207  1.00  0.00     0.037 A 
HETATM   29  N6  UNL     1      11.372  -3.732  26.146  1.00  0.00    -0.301 N 
HETATM   30  N7  UNL     1      11.925  -3.669  27.362  1.00  0.00    -0.266 N 
ATOM     31  H6  UNL     1      10.372  -3.807  25.962  1.00  0.00     0.186 HD
HETATM   32  C17 UNL     1      13.260  -3.575  27.258  1.00  0.00     0.267 A 
ATOM     33  H7  UNL     1      11.407  -3.691  28.241  1.00  0.00     0.190 HD
HETATM   34  O3  UNL     1      14.099  -3.496  28.179  1.00  0.00    -0.266 OA
HETATM   35  C18 UNL     1      13.522  -3.582  25.888  1.00  0.00     0.031 A 
HETATM   36  C19 UNL     1      14.881  -3.491  25.291  1.00  0.00     0.056 C 
ENDBRANCH  27  28
ENDBRANCH  24  27
ENDBRANCH   1  21
TORSDOF 8
ENDMDL
MODEL 3
REMARK VINA RESULT: -7.829337401      3.087      8.828
REMARK  8 active torsions:
REMARK  status: ('A' for Active; 'I' for Inactive)
REMARK    1  A    between atoms: C2_2  and  C3_3 
REMARK    2  A    between atoms: C3_3  and  C4_4 
REMARK       I    between atoms: C4_4  and  N1_6 
REMARK    3  A    between atoms: N1_6  and  C5_7 
REMARK    4  A    between atoms: N1_6  and  S1_18 
REMARK    5  A    between atoms: C5_7  and  C6_8 
REMARK       I    between atoms: N2_12  and  C10_13 
REMARK    6  A    between atoms: S1_18  and  N5_21 
REMARK    7  A    between atoms: C14_24  and  C15_25 
REMARK    8  A    between atoms: C15_25  and  C16_26 
ROOT
HETATM    1  S1  UNL     1      13.569 -10.592  21.336  1.00  0.00     0.112 S 
HETATM    2  C11 UNL     1      12.632  -9.973  22.852  1.00  0.00     0.161 C 
HETATM    3  O2  UNL     1      11.802 -10.508  20.426  1.00  0.00    -0.228 OA
ENDROOT
BRANCH   1   4
HETATM    4  N1  UNL     1      14.481  -8.998  21.166  1.00  0.00    -0.260 N 
HETATM    5  C4  UNL     1      15.683  -8.963  20.414  1.00  0.00     0.235 C 
HETATM    6  O1  UNL     1      16.220  -7.828  20.227  1.00  0.00    -0.272 OA
BRANCH   5   7
HETATM    7  C3  UNL     1      16.378 -10.117  19.826  1.00  0.00     0.130 C 
BRANCH   7   8
HETATM    8  C2  UNL     1      17.337  -9.657  18.749  1.00  0.00    -0.028 C 
HETATM    9  C1  UNL     1      18.031 -10.518  18.029  1.00  0.00     0.007 C 
ENDBRANCH   7   8
ENDBRANCH   5   7
BRANCH   4  10
HETATM   10  C5  UNL     1      14.027  -7.755  21.684  1.00  0.00     0.168 C 
BRANCH  10  11
HETATM   11  C6  UNL     1      13.030  -7.014  20.883  1.00  0.00     0.106 C 
HETATM   12  C7  UNL     1      12.777  -7.461  19.486  1.00  0.00     0.028 C 
HETATM   13  C8  UNL     1      11.951  -6.284  18.930  1.00  0.00     0.022 C 
HETATM   14  C9  UNL     1      12.206  -5.127  19.899  1.00  0.00     0.126 C 
HETATM   15  N2  UNL     1      13.365  -5.615  20.659  1.00  0.00    -0.350 N 
HETATM   16  C10 UNL     1      14.472  -4.831  21.016  1.00  0.00     0.184 C 
HETATM   17  N3  UNL     1      15.149  -4.203  20.119  1.00  0.00    -0.374 N 
HETATM   18  N4  UNL     1      14.864  -4.715  22.365  1.00  0.00    -0.064 NA
ATOM     19  H32 UNL     1      14.865  -4.287  19.143  1.00  0.00     0.158 HD
ATOM     20  H31 UNL     1      15.954  -3.633  20.378  1.00  0.00     0.158 HD
ENDBRANCH  10  11
ENDBRANCH   4  10
ENDBRANCH   1   4
BRANCH   1  21
HETATM   21  N5  UNL     1      14.026 -12.090  22.076  1.00  0.00    -0.307 N 
HETATM   22  C12 UNL     1      13.226 -12.386  23.256  1.00  0.00     0.139 C 
HETATM   23  C13 UNL     1      14.142 -12.997  24.260  1.00  0.00     0.026 C 
HETATM   24  C14 UNL     1      14.518 -14.388  23.733  1.00  0.00    -0.003 C 
HETATM   25  C20 UNL     1      14.157 -14.555  22.290  1.00  0.00     0.050 C 
HETATM   26  C21 UNL     1      14.361 -13.323  21.481  1.00  0.00     0.075 C 
BRANCH  24  27
HETATM   27  C15 UNL     1      13.802 -15.375  24.624  1.00  0.00     0.064 C 
BRANCH  27  28
HETATM   28  C16 UNL     1      14.722 -16.118  25.516  1.00  0.00     0.037 A 
HETATM   29  N6  UNL     1      15.611 -15.619  26.386  1.00  0.00    -0.301 N 
HETATM   30  N7  UNL     1      16.249 -16.615  27.009  1.00  0.00    -0.266 N 
ATOM     31  H6  UNL     1      15.777 -14.625  26.548  1.00  0.00     0.186 HD
HETATM   32  C17 UNL     1      15.799 -17.799  26.567  1.00  0.00     0.267 A 
ATOM     33  H7  UNL     1      16.972 -16.491  27.718  1.00  0.00     0.190 HD
HETATM   34  O3  UNL     1      16.163 -18.940  26.921  1.00  0.00    -0.266 OA
HETATM   35  C18 UNL     1      14.827 -17.490  25.617  1.00  0.00     0.031 A 
HETATM   36  C19 UNL     1      14.049 -18.500  24.849  1.00  0.00     0.056 C 
ENDBRANCH  27  28
ENDBRANCH  24  27
ENDBRANCH   1  21
TORSDOF 8
ENDMDL
MODEL 4
REMARK VINA RESULT: -7.807249428      4.667      6.747
REMARK  8 active torsions:
REMARK  status: ('A' for Active; 'I' for Inactive)
REMARK    1  A    between atoms: C2_2  and  C3_3 
REMARK    2  A    between atoms: C3_3  and  C4_4 
REMARK       I    between atoms: C4_4  and  N1_6 
REMARK    3  A    between atoms: N1_6  and  C5_7 
REMARK    4  A    between atoms: N1_6  and  S1_18 
REMARK    5  A    between atoms: C5_7  and  C6_8 
REMARK       I    between atoms: N2_12  and  C10_13 
REMARK    6  A    between atoms: S1_18  and  N5_21 
REMARK    7  A    between atoms: C14_24  and  C15_25 
REMARK    8  A    between atoms: C15_25  and  C16_26 
ROOT
HETATM    1  S1  UNL     1      15.778  -7.410  18.257  1.00  0.00     0.112 S 
HETATM    2  C11 UNL     1      14.175  -7.088  17.315  1.00  0.00     0.161 C 
HETATM    3  O2  UNL     1      15.335  -9.334  18.002  1.00  0.00    -0.228 OA
ENDROOT
BRANCH   1   4
HETATM    4  N1  UNL     1      16.803  -6.774  16.862  1.00  0.00    -0.260 N 
HETATM    5  C4  UNL     1      17.833  -7.590  16.329  1.00  0.00     0.235 C 
HETATM    6  O1  UNL     1      18.441  -7.164  15.299  1.00  0.00    -0.272 OA
BRANCH   5   7
HETATM    7  C3  UNL     1      18.276  -8.889  16.854  1.00  0.00     0.130 C 
BRANCH   7   8
HETATM    8  C2  UNL     1      19.066  -9.637  15.802  1.00  0.00    -0.028 C 
HETATM    9  C1  UNL     1      20.151 -10.322  16.110  1.00  0.00     0.007 C 
ENDBRANCH   7   8
ENDBRANCH   5   7
BRANCH   4  10
HETATM   10  C5  UNL     1      16.590  -5.527  16.214  1.00  0.00     0.168 C 
BRANCH  10  11
HETATM   11  C6  UNL     1      16.393  -4.343  17.075  1.00  0.00     0.106 C 
HETATM   12  C7  UNL     1      15.182  -3.504  16.851  1.00  0.00     0.028 C 
HETATM   13  C8  UNL     1      15.509  -2.259  17.699  1.00  0.00     0.022 C 
HETATM   14  C9  UNL     1      17.020  -2.324  17.936  1.00  0.00     0.126 C 
HETATM   15  N2  UNL     1      17.439  -3.338  16.958  1.00  0.00    -0.350 N 
HETATM   16  C10 UNL     1      18.585  -3.244  16.155  1.00  0.00     0.184 C 
HETATM   17  N3  UNL     1      18.769  -2.227  15.387  1.00  0.00    -0.374 N 
HETATM   18  N4  UNL     1      19.558  -4.265  16.172  1.00  0.00    -0.064 NA
ATOM     19  H32 UNL     1      18.065  -1.489  15.375  1.00  0.00     0.158 HD
ATOM     20  H31 UNL     1      19.603  -2.159  14.804  1.00  0.00     0.158 HD
ENDBRANCH  10  11
ENDBRANCH   4  10
ENDBRANCH   1   4
BRANCH   1  21
HETATM   21  N5  UNL     1      15.228  -6.640  19.707  1.00  0.00    -0.307 N 
HETATM   22  C12 UNL     1      14.089  -5.764  19.465  1.00  0.00     0.139 C 
HETATM   23  C13 UNL     1      14.273  -4.564  20.329  1.00  0.00     0.026 C 
HETATM   24  C14 UNL     1      14.063  -5.021  21.779  1.00  0.00    -0.003 C 
HETATM   25  C20 UNL     1      14.089  -6.512  21.903  1.00  0.00     0.050 C 
HETATM   26  C21 UNL     1      15.079  -7.166  21.005  1.00  0.00     0.075 C 
BRANCH  24  27
HETATM   27  C15 UNL     1      12.743  -4.428  22.211  1.00  0.00     0.064 C 
BRANCH  27  28
HETATM   28  C16 UNL     1      12.660  -4.214  23.675  1.00  0.00     0.037 A 
HETATM   29  N6  UNL     1      11.645  -4.516  24.496  1.00  0.00    -0.301 N 
HETATM   30  N7  UNL     1      11.955  -4.173  25.750  1.00  0.00    -0.266 N 
ATOM     31  H6  UNL     1      10.765  -4.945  24.207  1.00  0.00     0.186 HD
HETATM   32  C17 UNL     1      13.183  -3.634  25.791  1.00  0.00     0.267 A 
ATOM     33  H7  UNL     1      11.346  -4.303  26.559  1.00  0.00     0.190 HD
HETATM   34  O3  UNL     1      13.800  -3.201  26.786  1.00  0.00    -0.266 OA
HETATM   35  C18 UNL     1      13.637  -3.658  24.473  1.00  0.00     0.031 A 
HETATM   36  C19 UNL     1      14.965  -3.152  24.031  1.00  0.00     0.056 C 
ENDBRANCH  27  28
ENDBRANCH  24  27
ENDBRANCH   1  21
TORSDOF 8
ENDMDL
MODEL 5
REMARK VINA RESULT: -7.804298396      2.099      2.940
REMARK  8 active torsions:
REMARK  status: ('A' for Active; 'I' for Inactive)
REMARK    1  A    between atoms: C2_2  and  C3_3 
REMARK    2  A    between atoms: C3_3  and  C4_4 
REMARK       I    between atoms: C4_4  and  N1_6 
REMARK    3  A    between atoms: N1_6  and  C5_7 
REMARK    4  A    between atoms: N1_6  and  S1_18 
REMARK    5  A    between atoms: C5_7  and  C6_8 
REMARK       I    between atoms: N2_12  and  C10_13 
REMARK    6  A    between atoms: S1_18  and  N5_21 
REMARK    7  A    between atoms: C14_24  and  C15_25 
REMARK    8  A    between atoms: C15_25  and  C16_26 
ROOT
HETATM    1  S1  UNL     1      14.316  -9.011  19.761  1.00  0.00     0.112 S 
HETATM    2  C11 UNL     1      16.023  -8.381  20.262  1.00  0.00     0.161 C 
HETATM    3  O2  UNL     1      14.987  -8.821  17.897  1.00  0.00    -0.228 OA
ENDROOT
BRANCH   1   4
HETATM    4  N1  UNL     1      14.670 -10.695  20.425  1.00  0.00    -0.260 N 
HETATM    5  C4  UNL     1      13.842 -11.226  21.446  1.00  0.00     0.235 C 
HETATM    6  O1  UNL     1      14.048 -12.428  21.798  1.00  0.00    -0.272 OA
BRANCH   5   7
HETATM    7  C3  UNL     1      12.761 -10.519  22.149  1.00  0.00     0.130 C 
BRANCH   7   8
HETATM    8  C2  UNL     1      12.284 -11.335  23.331  1.00  0.00    -0.028 C 
HETATM    9  C1  UNL     1      11.033 -11.279  23.749  1.00  0.00     0.007 C 
ENDBRANCH   7   8
ENDBRANCH   5   7
BRANCH   4  10
HETATM   10  C5  UNL     1      15.691 -11.554  19.934  1.00  0.00     0.168 C 
BRANCH  10  11
HETATM   11  C6  UNL     1      15.456 -12.202  18.627  1.00  0.00     0.106 C 
HETATM   12  C7  UNL     1      15.176 -13.664  18.607  1.00  0.00     0.028 C 
HETATM   13  C8  UNL     1      15.305 -13.983  17.105  1.00  0.00     0.022 C 
HETATM   14  C9  UNL     1      16.070 -12.798  16.511  1.00  0.00     0.126 C 
HETATM   15  N2  UNL     1      16.589 -12.135  17.716  1.00  0.00    -0.350 N 
HETATM   16  C10 UNL     1      17.885 -11.613  17.842  1.00  0.00     0.184 C 
HETATM   17  N3  UNL     1      18.916 -12.356  17.638  1.00  0.00    -0.374 N 
HETATM   18  N4  UNL     1      18.083 -10.263  18.197  1.00  0.00    -0.064 NA
ATOM     19  H32 UNL     1      18.773 -13.333  17.381  1.00  0.00     0.158 HD
ATOM     20  H31 UNL     1      19.858 -11.976  17.730  1.00  0.00     0.158 HD
ENDBRANCH  10  11
ENDBRANCH   4  10
ENDBRANCH   1   4
BRANCH   1  21
HETATM   21  N5  UNL     1      13.477  -7.667  20.459  1.00  0.00    -0.307 N 
HETATM   22  C12 UNL     1      14.328  -6.894  21.355  1.00  0.00     0.139 C 
HETATM   23  C13 UNL     1      13.480  -6.477  22.507  1.00  0.00     0.026 C 
HETATM   24  C14 UNL     1      12.488  -5.434  21.977  1.00  0.00    -0.003 C 
HETATM   25  C20 UNL     1      12.442  -5.416  20.481  1.00  0.00     0.050 C 
HETATM   26  C21 UNL     1      12.570  -6.766  19.867  1.00  0.00     0.075 C 
BRANCH  24  27
HETATM   27  C15 UNL     1      12.931  -4.111  22.556  1.00  0.00     0.064 C 
BRANCH  27  28
HETATM   28  C16 UNL     1      12.692  -4.012  24.014  1.00  0.00     0.037 A 
HETATM   29  N6  UNL     1      11.588  -4.351  24.694  1.00  0.00    -0.301 N 
HETATM   30  N7  UNL     1      11.766  -4.117  25.999  1.00  0.00    -0.266 N 
ATOM     31  H6  UNL     1      10.738  -4.730  24.279  1.00  0.00     0.186 HD
HETATM   32  C17 UNL     1      12.993  -3.617  26.215  1.00  0.00     0.267 A 
ATOM     33  H7  UNL     1      11.071  -4.294  26.724  1.00  0.00     0.190 HD
HETATM   34  O3  UNL     1      13.505  -3.282  27.303  1.00  0.00    -0.266 OA
HETATM   35  C18 UNL     1      13.587  -3.548  24.956  1.00  0.00     0.031 A 
HETATM   36  C19 UNL     1      14.965  -3.046  24.702  1.00  0.00     0.056 C 
ENDBRANCH  27  28
ENDBRANCH  24  27
ENDBRANCH   1  21
TORSDOF 8
ENDMDL
