MODEL 1
REMARK VINA RESULT: -7.478646760      0.000      0.000
REMARK  9 active torsions:
REMARK  status: ('A' for Active; 'I' for Inactive)
REMARK    1  A    between atoms: C2_2  and  C4_4 
REMARK       I    between atoms: C4_4  and  N1_6 
REMARK    2  A    between atoms: N1_6  and  C5_8 
REMARK    3  A    between atoms: C5_8  and  C6_9 
REMARK    4  A    between atoms: C6_9  and  C7_10 
REMARK    5  A    between atoms: C7_10  and  N2_11 
REMARK       I    between atoms: N2_11  and  C8_13 
REMARK       I    between atoms: C8_13  and  N3_15 
REMARK    6  A    between atoms: N3_15  and  C9_17 
REMARK       I    between atoms: N4_20  and  C12_21 
REMARK       I    between atoms: C12_21  and  N5_23 
REMARK    7  A    between atoms: N5_23  and  C13_25 
REMARK    8  A    between atoms: C13_25  and  C14_26 
REMARK    9  A    between atoms: C14_26  and  N6_27 
ROOT
HETATM    1  C9  UNL     1      12.252 -11.129  22.831  1.00  0.00     0.105 C 
HETATM    2  C10 UNL     1      11.258 -11.817  23.740  1.00  0.00     0.047 C 
HETATM    3  C11 UNL     1      11.777 -13.242  23.684  1.00  0.00     0.129 C 
HETATM    4  N4  UNL     1      13.189 -13.060  23.827  1.00  0.00    -0.332 N 
HETATM    5  C12 UNL     1      14.069 -13.928  24.519  1.00  0.00     0.318 C 
HETATM    6  O3  UNL     1      15.312 -13.687  24.596  1.00  0.00    -0.247 OA
HETATM    7  N5  UNL     1      13.568 -15.094  25.143  1.00  0.00    -0.341 N 
ATOM      8  H5  UNL     1      12.573 -15.316  25.102  1.00  0.00     0.164 HD
HETATM    9  C23 UNL     1      13.555 -11.847  23.146  1.00  0.00     0.152 C 
ENDROOT
BRANCH   1  10
HETATM   10  N3  UNL     1      12.417  -9.738  23.150  1.00  0.00    -0.337 N 
HETATM   11  C8  UNL     1      12.436  -8.711  22.176  1.00  0.00     0.316 C 
HETATM   12  N2  UNL     1      12.600  -7.368  22.587  1.00  0.00    -0.343 N 
HETATM   13  O2  UNL     1      12.303  -9.063  20.983  1.00  0.00    -0.247 OA
ATOM     14  H2  UNL     1      12.703  -7.194  23.587  1.00  0.00     0.164 HD
ATOM     15  H3  UNL     1      12.526  -9.477  24.129  1.00  0.00     0.164 HD
BRANCH  12  16
HETATM   16  C7  UNL     1      12.633  -6.222  21.711  1.00  0.00     0.126 C 
BRANCH  16  17
HETATM   17  C6  UNL     1      14.054  -5.863  21.404  1.00  0.00     0.039 C 
BRANCH  17  18
HETATM   18  C5  UNL     1      14.280  -4.403  21.682  1.00  0.00     0.124 C 
BRANCH  18  19
HETATM   19  N1  UNL     1      13.621  -3.997  22.891  1.00  0.00    -0.361 N 
HETATM   20  C4  UNL     1      14.407  -3.602  24.004  1.00  0.00     0.221 C 
HETATM   21  O1  UNL     1      15.662  -3.602  23.949  1.00  0.00    -0.273 OA
ATOM     22  H1  UNL     1      12.602  -3.993  22.950  1.00  0.00     0.162 HD
BRANCH  20  23
HETATM   23  C2  UNL     1      13.713  -3.183  25.255  1.00  0.00     0.070 C 
HETATM   24  C1  UNL     1      14.606  -3.558  26.405  1.00  0.00     0.019 C 
HETATM   25  C3  UNL     1      12.417  -3.939  25.358  1.00  0.00     0.019 C 
ENDBRANCH  20  23
ENDBRANCH  18  19
ENDBRANCH  17  18
ENDBRANCH  16  17
ENDBRANCH  12  16
ENDBRANCH   1  10
BRANCH   7  26
HETATM   26  C13 UNL     1      14.488 -15.967  25.843  1.00  0.00     0.153 C 
BRANCH  26  27
HETATM   27  C14 UNL     1      14.889 -17.142  24.999  1.00  0.00     0.266 C 
BRANCH  27  28
HETATM   28  N6  UNL     1      14.118 -18.335  25.211  1.00  0.00    -0.008 N 
HETATM   29  C15 UNL     1      12.717 -17.997  25.005  1.00  0.00     0.283 C 
HETATM   30  C16 UNL     1      14.333 -18.883  26.511  1.00  0.00     0.247 C 
HETATM   31  C17 UNL     1      15.716 -19.265  26.847  1.00  0.00     0.029 C 
HETATM   32  C18 UNL     1      16.115 -20.674  26.672  1.00  0.00     0.002 C 
HETATM   33  C19 UNL     1      15.125 -21.640  26.151  1.00  0.00     0.001 C 
HETATM   34  C20 UNL     1      14.856 -21.627  24.693  1.00  0.00     0.009 C 
HETATM   35  C21 UNL     1      15.305 -20.429  23.931  1.00  0.00     0.111 C 
HETATM   36  C22 UNL     1      14.472 -19.233  24.159  1.00  0.00     0.318 C 
HETATM   37  O4  UNL     1      13.900 -18.889  23.138  1.00  0.00    -0.265 OA
ENDBRANCH  27  28
ENDBRANCH  26  27
ENDBRANCH   7  26
TORSDOF 9
ENDMDL
MODEL 2
REMARK VINA RESULT: -7.196996196      4.403     13.717
REMARK  9 active torsions:
REMARK  status: ('A' for Active; 'I' for Inactive)
REMARK    1  A    between atoms: C2_2  and  C4_4 
REMARK       I    between atoms: C4_4  and  N1_6 
REMARK    2  A    between atoms: N1_6  and  C5_8 
REMARK    3  A    between atoms: C5_8  and  C6_9 
REMARK    4  A    between atoms: C6_9  and  C7_10 
REMARK    5  A    between atoms: C7_10  and  N2_11 
REMARK       I    between atoms: N2_11  and  C8_13 
REMARK       I    between atoms: C8_13  and  N3_15 
REMARK    6  A    between atoms: N3_15  and  C9_17 
REMARK       I    between atoms: N4_20  and  C12_21 
REMARK       I    between atoms: C12_21  and  N5_23 
REMARK    7  A    between atoms: N5_23  and  C13_25 
REMARK    8  A    between atoms: C13_25  and  C14_26 
REMARK    9  A    between atoms: C14_26  and  N6_27 
ROOT
HETATM    1  C9  UNL     1      13.234  -8.706  21.633  1.00  0.00     0.105 C 
HETATM    2  C10 UNL     1      12.702  -8.469  20.237  1.00  0.00     0.047 C 
HETATM    3  C11 UNL     1      12.730  -6.953  20.187  1.00  0.00     0.129 C 
HETATM    4  N4  UNL     1      14.009  -6.651  20.752  1.00  0.00    -0.332 N 
HETATM    5  C12 UNL     1      14.859  -5.589  20.357  1.00  0.00     0.318 C 
HETATM    6  O3  UNL     1      15.981  -5.395  20.915  1.00  0.00    -0.247 OA
HETATM    7  N5  UNL     1      14.463  -4.715  19.317  1.00  0.00    -0.341 N 
ATOM      8  H5  UNL     1      13.568  -4.844  18.845  1.00  0.00     0.164 HD
HETATM    9  C23 UNL     1      14.278  -7.611  21.790  1.00  0.00     0.152 C 
ENDROOT
BRANCH   1  10
HETATM   10  N3  UNL     1      13.892  -9.976  21.763  1.00  0.00    -0.337 N 
HETATM   11  C8  UNL     1      13.408 -11.026  22.580  1.00  0.00     0.316 C 
HETATM   12  N2  UNL     1      14.124 -12.244  22.640  1.00  0.00    -0.343 N 
HETATM   13  O2  UNL     1      12.351 -10.806  23.213  1.00  0.00    -0.247 OA
ATOM     14  H2  UNL     1      14.977 -12.313  22.085  1.00  0.00     0.164 HD
ATOM     15  H3  UNL     1      14.753 -10.129  21.238  1.00  0.00     0.164 HD
BRANCH  12  16
HETATM   16  C7  UNL     1      13.749 -13.397  23.422  1.00  0.00     0.126 C 
BRANCH  16  17
HETATM   17  C6  UNL     1      14.905 -13.829  24.270  1.00  0.00     0.039 C 
BRANCH  17  18
HETATM   18  C5  UNL     1      14.398 -14.515  25.507  1.00  0.00     0.124 C 
BRANCH  18  19
HETATM   19  N1  UNL     1      15.151 -15.705  25.787  1.00  0.00    -0.361 N 
HETATM   20  C4  UNL     1      14.548 -16.970  25.564  1.00  0.00     0.221 C 
HETATM   21  O1  UNL     1      13.373 -17.065  25.130  1.00  0.00    -0.273 OA
ATOM     22  H1  UNL     1      16.106 -15.643  26.141  1.00  0.00     0.162 HD
BRANCH  20  23
HETATM   23  C2  UNL     1      15.338 -18.199  25.859  1.00  0.00     0.070 C 
HETATM   24  C1  UNL     1      14.362 -19.269  26.262  1.00  0.00     0.019 C 
HETATM   25  C3  UNL     1      16.266 -17.907  27.006  1.00  0.00     0.019 C 
ENDBRANCH  20  23
ENDBRANCH  18  19
ENDBRANCH  17  18
ENDBRANCH  16  17
ENDBRANCH  12  16
ENDBRANCH   1  10
BRANCH   7  26
HETATM   26  C13 UNL     1      15.349  -3.634  18.932  1.00  0.00     0.153 C 
BRANCH  26  27
HETATM   27  C14 UNL     1      15.977  -3.882  17.592  1.00  0.00     0.266 C 
BRANCH  27  28
HETATM   28  N6  UNL     1      16.981  -2.931  17.205  1.00  0.00    -0.008 N 
HETATM   29  C15 UNL     1      17.228  -2.062  18.346  1.00  0.00     0.283 C 
HETATM   30  C16 UNL     1      16.587  -2.179  16.058  1.00  0.00     0.247 C 
HETATM   31  C17 UNL     1      16.303  -2.945  14.832  1.00  0.00     0.029 C 
HETATM   32  C18 UNL     1      17.374  -3.079  13.827  1.00  0.00     0.002 C 
HETATM   33  C19 UNL     1      18.689  -2.461  14.094  1.00  0.00     0.001 C 
HETATM   34  C20 UNL     1      19.600  -3.165  15.029  1.00  0.00     0.009 C 
HETATM   35  C21 UNL     1      19.001  -4.214  15.899  1.00  0.00     0.111 C 
HETATM   36  C22 UNL     1      18.182  -3.676  17.002  1.00  0.00     0.318 C 
HETATM   37  O4  UNL     1      18.669  -3.943  18.088  1.00  0.00    -0.265 OA
ENDBRANCH  27  28
ENDBRANCH  26  27
ENDBRANCH   7  26
TORSDOF 9
ENDMDL
MODEL 3
REMARK VINA RESULT: -7.108316616      4.445     13.991
REMARK  9 active torsions:
REMARK  status: ('A' for Active; 'I' for Inactive)
REMARK    1  A    between atoms: C2_2  and  C4_4 
REMARK       I    between atoms: C4_4  and  N1_6 
REMARK    2  A    between atoms: N1_6  and  C5_8 
REMARK    3  A    between atoms: C5_8  and  C6_9 
REMARK    4  A    between atoms: C6_9  and  C7_10 
REMARK    5  A    between atoms: C7_10  and  N2_11 
REMARK       I    between atoms: N2_11  and  C8_13 
REMARK       I    between atoms: C8_13  and  N3_15 
REMARK    6  A    between atoms: N3_15  and  C9_17 
REMARK       I    between atoms: N4_20  and  C12_21 
REMARK       I    between atoms: C12_21  and  N5_23 
REMARK    7  A    between atoms: N5_23  and  C13_25 
REMARK    8  A    between atoms: C13_25  and  C14_26 
REMARK    9  A    between atoms: C14_26  and  N6_27 
ROOT
HETATM    1  C9  UNL     1      13.034  -8.512  21.569  1.00  0.00     0.105 C 
HETATM    2  C10 UNL     1      12.450  -8.135  20.226  1.00  0.00     0.047 C 
HETATM    3  C11 UNL     1      12.617  -6.627  20.269  1.00  0.00     0.129 C 
HETATM    4  N4  UNL     1      13.949  -6.481  20.771  1.00  0.00    -0.332 N 
HETATM    5  C12 UNL     1      14.872  -5.476  20.391  1.00  0.00     0.318 C 
HETATM    6  O3  UNL     1      16.037  -5.422  20.890  1.00  0.00    -0.247 OA
HETATM    7  N5  UNL     1      14.502  -4.501  19.435  1.00  0.00    -0.341 N 
ATOM      8  H5  UNL     1      13.574  -4.516  19.012  1.00  0.00     0.164 HD
HETATM    9  C23 UNL     1      14.183  -7.529  21.728  1.00  0.00     0.152 C 
ENDROOT
BRANCH   1  10
HETATM   10  N3  UNL     1      13.575  -9.842  21.578  1.00  0.00    -0.337 N 
HETATM   11  C8  UNL     1      13.068 -10.886  22.388  1.00  0.00     0.316 C 
HETATM   12  N2  UNL     1      13.666 -12.167  22.325  1.00  0.00    -0.343 N 
HETATM   13  O2  UNL     1      12.098 -10.605  23.128  1.00  0.00    -0.247 OA
ATOM     14  H2  UNL     1      14.455 -12.284  21.689  1.00  0.00     0.164 HD
ATOM     15  H3  UNL     1      14.367 -10.045  20.968  1.00  0.00     0.164 HD
BRANCH  12  16
HETATM   16  C7  UNL     1      13.253 -13.321  23.085  1.00  0.00     0.126 C 
BRANCH  16  17
HETATM   17  C6  UNL     1      14.079 -13.427  24.330  1.00  0.00     0.039 C 
BRANCH  17  18
HETATM   18  C5  UNL     1      15.237 -14.357  24.092  1.00  0.00     0.124 C 
BRANCH  18  19
HETATM   19  N1  UNL     1      14.847 -15.728  24.269  1.00  0.00    -0.361 N 
HETATM   20  C4  UNL     1      14.872 -16.288  25.572  1.00  0.00     0.221 C 
HETATM   21  O1  UNL     1      15.228 -15.609  26.567  1.00  0.00    -0.273 OA
ATOM     22  H1  UNL     1      14.556 -16.291  23.470  1.00  0.00     0.162 HD
BRANCH  20  23
HETATM   23  C2  UNL     1      14.466 -17.712  25.745  1.00  0.00     0.070 C 
HETATM   24  C1  UNL     1      15.604 -18.419  26.428  1.00  0.00     0.019 C 
HETATM   25  C3  UNL     1      14.245 -18.314  24.385  1.00  0.00     0.019 C 
ENDBRANCH  20  23
ENDBRANCH  18  19
ENDBRANCH  17  18
ENDBRANCH  16  17
ENDBRANCH  12  16
ENDBRANCH   1  10
BRANCH   7  26
HETATM   26  C13 UNL     1      15.463  -3.481  19.064  1.00  0.00     0.153 C 
BRANCH  26  27
HETATM   27  C14 UNL     1      15.557  -3.323  17.575  1.00  0.00     0.266 C 
BRANCH  27  28
HETATM   28  N6  UNL     1      16.535  -2.372  17.124  1.00  0.00    -0.008 N 
HETATM   29  C15 UNL     1      17.408  -2.072  18.248  1.00  0.00     0.283 C 
HETATM   30  C16 UNL     1      15.927  -1.188  16.609  1.00  0.00     0.247 C 
HETATM   31  C17 UNL     1      15.013  -1.357  15.466  1.00  0.00     0.029 C 
HETATM   32  C18 UNL     1      15.545  -1.142  14.107  1.00  0.00     0.002 C 
HETATM   33  C19 UNL     1      16.970  -0.788  13.943  1.00  0.00     0.001 C 
HETATM   34  C20 UNL     1      17.967  -1.878  14.065  1.00  0.00     0.009 C 
HETATM   35  C21 UNL     1      17.511  -3.146  14.699  1.00  0.00     0.111 C 
HETATM   36  C22 UNL     1      17.340  -3.053  16.161  1.00  0.00     0.318 C 
HETATM   37  O4  UNL     1      18.126  -3.778  16.747  1.00  0.00    -0.265 OA
ENDBRANCH  27  28
ENDBRANCH  26  27
ENDBRANCH   7  26
TORSDOF 9
ENDMDL
MODEL 4
REMARK VINA RESULT: -7.016452254      1.698      2.309
REMARK  9 active torsions:
REMARK  status: ('A' for Active; 'I' for Inactive)
REMARK    1  A    between atoms: C2_2  and  C4_4 
REMARK       I    between atoms: C4_4  and  N1_6 
REMARK    2  A    between atoms: N1_6  and  C5_8 
REMARK    3  A    between atoms: C5_8  and  C6_9 
REMARK    4  A    between atoms: C6_9  and  C7_10 
REMARK    5  A    between atoms: C7_10  and  N2_11 
REMARK       I    between atoms: N2_11  and  C8_13 
REMARK       I    between atoms: C8_13  and  N3_15 
REMARK    6  A    between atoms: N3_15  and  C9_17 
REMARK       I    between atoms: N4_20  and  C12_21 
REMARK       I    between atoms: C12_21  and  N5_23 
REMARK    7  A    between atoms: N5_23  and  C13_25 
REMARK    8  A    between atoms: C13_25  and  C14_26 
REMARK    9  A    between atoms: C14_26  and  N6_27 
ROOT
HETATM    1  C9  UNL     1      12.458  -9.835  22.696  1.00  0.00     0.105 C 
HETATM    2  C10 UNL     1      13.751 -10.534  22.340  1.00  0.00     0.047 C 
HETATM    3  C11 UNL     1      13.552 -11.859  23.053  1.00  0.00     0.129 C 
HETATM    4  N4  UNL     1      12.201 -12.187  22.716  1.00  0.00    -0.332 N 
HETATM    5  C12 UNL     1      11.701 -13.491  22.474  1.00  0.00     0.318 C 
HETATM    6  O3  UNL     1      10.484 -13.691  22.180  1.00  0.00    -0.247 OA
HETATM    7  N5  UNL     1      12.566 -14.607  22.559  1.00  0.00    -0.341 N 
ATOM      8  H5  UNL     1      13.552 -14.482  22.792  1.00  0.00     0.164 HD
HETATM    9  C23 UNL     1      11.442 -10.966  22.669  1.00  0.00     0.152 C 
ENDROOT
BRANCH   1  10
HETATM   10  N3  UNL     1      12.072  -8.860  21.715  1.00  0.00    -0.337 N 
HETATM   11  C8  UNL     1      12.338  -7.476  21.843  1.00  0.00     0.316 C 
HETATM   12  N2  UNL     1      11.923  -6.592  20.821  1.00  0.00    -0.343 N 
HETATM   13  O2  UNL     1      12.940  -7.111  22.878  1.00  0.00    -0.247 OA
ATOM     14  H2  UNL     1      11.435  -6.997  20.021  1.00  0.00     0.164 HD
ATOM     15  H3  UNL     1      11.581  -9.182  20.882  1.00  0.00     0.164 HD
BRANCH  12  16
HETATM   16  C7  UNL     1      12.129  -5.164  20.813  1.00  0.00     0.126 C 
BRANCH  16  17
HETATM   17  C6  UNL     1      13.488  -4.853  20.266  1.00  0.00     0.039 C 
BRANCH  17  18
HETATM   18  C5  UNL     1      14.395  -4.413  21.382  1.00  0.00     0.124 C 
BRANCH  18  19
HETATM   19  N1  UNL     1      13.644  -4.083  22.561  1.00  0.00    -0.361 N 
HETATM   20  C4  UNL     1      14.337  -3.636  23.715  1.00  0.00     0.221 C 
HETATM   21  O1  UNL     1      15.588  -3.526  23.723  1.00  0.00    -0.273 OA
ATOM     22  H1  UNL     1      12.628  -4.169  22.569  1.00  0.00     0.162 HD
BRANCH  20  23
HETATM   23  C2  UNL     1      13.549  -3.298  24.934  1.00  0.00     0.070 C 
HETATM   24  C1  UNL     1      14.443  -3.531  26.121  1.00  0.00     0.019 C 
HETATM   25  C3  UNL     1      12.364  -4.220  25.009  1.00  0.00     0.019 C 
ENDBRANCH  20  23
ENDBRANCH  18  19
ENDBRANCH  17  18
ENDBRANCH  16  17
ENDBRANCH  12  16
ENDBRANCH   1  10
BRANCH   7  26
HETATM   26  C13 UNL     1      12.032 -15.931  22.310  1.00  0.00     0.153 C 
BRANCH  26  27
HETATM   27  C14 UNL     1      13.071 -16.995  22.507  1.00  0.00     0.266 C 
BRANCH  27  28
HETATM   28  N6  UNL     1      12.814 -17.905  23.588  1.00  0.00    -0.008 N 
HETATM   29  C15 UNL     1      11.464 -18.421  23.417  1.00  0.00     0.283 C 
HETATM   30  C16 UNL     1      12.973 -17.279  24.860  1.00  0.00     0.247 C 
HETATM   31  C17 UNL     1      14.299 -16.709  25.156  1.00  0.00     0.029 C 
HETATM   32  C18 UNL     1      15.252 -17.523  25.934  1.00  0.00     0.002 C 
HETATM   33  C19 UNL     1      14.851 -18.878  26.367  1.00  0.00     0.001 C 
HETATM   34  C20 UNL     1      14.888 -19.961  25.355  1.00  0.00     0.009 C 
HETATM   35  C21 UNL     1      14.961 -19.551  23.926  1.00  0.00     0.111 C 
HETATM   36  C22 UNL     1      13.694 -19.014  23.395  1.00  0.00     0.318 C 
HETATM   37  O4  UNL     1      13.242 -19.727  22.515  1.00  0.00    -0.265 OA
ENDBRANCH  27  28
ENDBRANCH  26  27
ENDBRANCH   7  26
TORSDOF 9
ENDMDL
MODEL 5
REMARK VINA RESULT: -6.948397773      4.387      6.971
REMARK  9 active torsions:
REMARK  status: ('A' for Active; 'I' for Inactive)
REMARK    1  A    between atoms: C2_2  and  C4_4 
REMARK       I    between atoms: C4_4  and  N1_6 
REMARK    2  A    between atoms: N1_6  and  C5_8 
REMARK    3  A    between atoms: C5_8  and  C6_9 
REMARK    4  A    between atoms: C6_9  and  C7_10 
REMARK    5  A    between atoms: C7_10  and  N2_11 
REMARK       I    between atoms: N2_11  and  C8_13 
REMARK       I    between atoms: C8_13  and  N3_15 
REMARK    6  A    between atoms: N3_15  and  C9_17 
REMARK       I    between atoms: N4_20  and  C12_21 
REMARK       I    between atoms: C12_21  and  N5_23 
REMARK    7  A    between atoms: N5_23  and  C13_25 
REMARK    8  A    between atoms: C13_25  and  C14_26 
REMARK    9  A    between atoms: C14_26  and  N6_27 
ROOT
HETATM    1  C9  UNL     1      13.244  -6.154  20.735  1.00  0.00     0.105 C 
HETATM    2  C10 UNL     1      14.082  -7.002  21.665  1.00  0.00     0.047 C 
HETATM    3  C11 UNL     1      13.023  -7.947  22.203  1.00  0.00     0.129 C 
HETATM    4  N4  UNL     1      12.304  -8.307  21.020  1.00  0.00    -0.332 N 
HETATM    5  C12 UNL     1      11.737  -9.577  20.750  1.00  0.00     0.318 C 
HETATM    6  O3  UNL     1      11.113  -9.809  19.671  1.00  0.00    -0.247 OA
HETATM    7  N5  UNL     1      11.859 -10.622  21.696  1.00  0.00    -0.341 N 
ATOM      8  H5  UNL     1      12.356 -10.470  22.574  1.00  0.00     0.164 HD
HETATM    9  C23 UNL     1      12.256  -7.156  20.157  1.00  0.00     0.152 C 
ENDROOT
BRANCH   1  10
HETATM   10  N3  UNL     1      14.011  -5.605  19.652  1.00  0.00    -0.337 N 
HETATM   11  C8  UNL     1      14.850  -4.472  19.785  1.00  0.00     0.316 C 
HETATM   12  N2  UNL     1      15.570  -4.006  18.661  1.00  0.00    -0.343 N 
HETATM   13  O2  UNL     1      14.904  -3.941  20.917  1.00  0.00    -0.247 OA
ATOM     14  H2  UNL     1      15.448  -4.513  17.784  1.00  0.00     0.164 HD
ATOM     15  H3  UNL     1      13.947  -6.054  18.738  1.00  0.00     0.164 HD
BRANCH  12  16
HETATM   16  C7  UNL     1      16.463  -2.873  18.649  1.00  0.00     0.126 C 
BRANCH  16  17
HETATM   17  C6  UNL     1      16.655  -2.396  17.243  1.00  0.00     0.039 C 
BRANCH  17  18
HETATM   18  C5  UNL     1      15.365  -1.826  16.720  1.00  0.00     0.124 C 
BRANCH  18  19
HETATM   19  N1  UNL     1      15.602  -0.664  15.910  1.00  0.00    -0.361 N 
HETATM   20  C4  UNL     1      14.802   0.490  16.112  1.00  0.00     0.221 C 
HETATM   21  O1  UNL     1      13.896   0.512  16.981  1.00  0.00    -0.273 OA
ATOM     22  H1  UNL     1      16.334  -0.668  15.200  1.00  0.00     0.162 HD
BRANCH  20  23
HETATM   23  C2  UNL     1      15.056   1.690  15.265  1.00  0.00     0.070 C 
HETATM   24  C1  UNL     1      16.094   1.306  14.248  1.00  0.00     0.019 C 
HETATM   25  C3  UNL     1      15.593   2.789  16.141  1.00  0.00     0.019 C 
ENDBRANCH  20  23
ENDBRANCH  18  19
ENDBRANCH  17  18
ENDBRANCH  16  17
ENDBRANCH  12  16
ENDBRANCH   1  10
BRANCH   7  26
HETATM   26  C13 UNL     1      11.268 -11.911  21.399  1.00  0.00     0.153 C 
BRANCH  26  27
HETATM   27  C14 UNL     1      12.210 -13.037  21.708  1.00  0.00     0.266 C 
BRANCH  27  28
HETATM   28  N6  UNL     1      11.980 -13.696  22.964  1.00  0.00    -0.008 N 
HETATM   29  C15 UNL     1      10.541 -13.767  23.167  1.00  0.00     0.283 C 
HETATM   30  C16 UNL     1      12.623 -13.022  24.045  1.00  0.00     0.247 C 
HETATM   31  C17 UNL     1      14.088 -12.880  23.957  1.00  0.00     0.029 C 
HETATM   32  C18 UNL     1      14.929 -13.868  24.658  1.00  0.00     0.002 C 
HETATM   33  C19 UNL     1      14.277 -14.968  25.399  1.00  0.00     0.001 C 
HETATM   34  C20 UNL     1      13.748 -16.108  24.611  1.00  0.00     0.009 C 
HETATM   35  C21 UNL     1      13.577 -15.898  23.146  1.00  0.00     0.111 C 
HETATM   36  C22 UNL     1      12.427 -15.042  22.798  1.00  0.00     0.318 C 
HETATM   37  O4  UNL     1      11.586 -15.663  22.170  1.00  0.00    -0.265 OA
ENDBRANCH  27  28
ENDBRANCH  26  27
ENDBRANCH   7  26
TORSDOF 9
ENDMDL
