MODEL 1
REMARK VINA RESULT: -6.252339381      0.000      0.000
REMARK  10 active torsions:
REMARK  status: ('A' for Active; 'I' for Inactive)
REMARK    1  A    between atoms: C5_5  and  N1_6 
REMARK    2  A    between atoms: N1_6  and  C8_9 
REMARK    3  A    between atoms: C8_9  and  N2_10 
REMARK    4  A    between atoms: N2_10  and  C9_12 
REMARK    5  A    between atoms: C9_12  and  C10_14 
REMARK    6  A    between atoms: C13_22  and  C14_23 
REMARK       I    between atoms: C14_23  and  N5_25 
REMARK    7  A    between atoms: C16_27  and  C17_28 
REMARK    8  A    between atoms: C17_28  and  C18_29 
REMARK    9  A    between atoms: C18_29  and  C19_30 
REMARK   10  A    between atoms: C21_32  and  C22_33 
ROOT
HETATM    1  C1  UNL     1      12.236  -3.998  25.928  1.00  0.00     0.102 C 
HETATM    2  C2  UNL     1      13.023  -3.885  24.995  1.00  0.00    -0.152 C 
HETATM    3  C3  UNL     1      13.951  -3.738  23.935  1.00  0.00     0.002 C 
HETATM    4  C4  UNL     1      15.235  -3.035  24.248  1.00  0.00     0.059 C 
HETATM    5  C5  UNL     1      13.703  -4.196  22.725  1.00  0.00     0.218 C 
ENDROOT
BRANCH   5   6
HETATM    6  N1  UNL     1      12.519  -4.860  22.381  1.00  0.00    -0.038 N 
HETATM    7  C6  UNL     1      12.709  -6.285  22.510  1.00  0.00     0.280 C 
HETATM    8  C7  UNL     1      11.392  -4.470  23.183  1.00  0.00     0.280 C 
BRANCH   6   9
HETATM    9  C8  UNL     1      12.191  -4.545  20.983  1.00  0.00     0.365 C 
BRANCH   9  10
HETATM   10  N2  UNL     1      13.219  -5.027  20.112  1.00  0.00    -0.360 N 
ATOM     11  H2  UNL     1      14.166  -5.036  20.492  1.00  0.00     0.161 HD
BRANCH  10  12
HETATM   12  C9  UNL     1      13.076  -5.491  18.787  1.00  0.00     0.083 C 
HETATM   13  S1  UNL     1      11.534  -5.570  18.205  1.00  0.00    -0.065 SA
BRANCH  12  14
HETATM   14  C10 UNL     1      14.235  -5.882  17.977  1.00  0.00     0.097 C 
HETATM   15  C11 UNL     1      14.387  -5.153  16.671  1.00  0.00     0.138 C 
HETATM   16  N3  UNL     1      14.382  -3.726  16.970  1.00  0.00    -0.342 N 
HETATM   17  C12 UNL     1      15.340  -3.346  17.975  1.00  0.00     0.316 C 
ATOM     18  H3  UNL     1      13.760  -3.061  16.510  1.00  0.00     0.164 HD
HETATM   19  O1  UNL     1      15.570  -2.151  18.191  1.00  0.00    -0.247 OA
HETATM   20  N4  UNL     1      16.007  -4.362  18.703  1.00  0.00    -0.329 N 
HETATM   21  C13 UNL     1      15.559  -5.738  18.700  1.00  0.00     0.190 C 
ATOM     22  H4  UNL     1      16.833  -4.115  19.248  1.00  0.00     0.165 HD
BRANCH  21  23
HETATM   23  C14 UNL     1      15.640  -6.379  19.999  1.00  0.00     0.244 C 
HETATM   24  O2  UNL     1      15.985  -5.629  20.980  1.00  0.00    -0.271 OA
HETATM   25  N5  UNL     1      15.381  -7.737  20.306  1.00  0.00    -0.335 N 
HETATM   26  C15 UNL     1      15.414  -8.539  21.548  1.00  0.00     0.134 A 
HETATM   27  C21 UNL     1      14.984  -8.937  19.597  1.00  0.00     0.193 A 
HETATM   28  C16 UNL     1      15.005  -9.773  20.845  1.00  0.00     0.037 A 
BRANCH  28  29
HETATM   29  C17 UNL     1      13.692 -10.397  21.246  1.00  0.00     0.009 C 
BRANCH  29  30
HETATM   30  C18 UNL     1      13.850 -11.801  21.744  1.00  0.00     0.000 C 
BRANCH  30  31
HETATM   31  C19 UNL     1      13.444 -11.946  23.197  1.00  0.00    -0.005 C 
HETATM   32  C20 UNL     1      14.212 -13.062  23.870  1.00  0.00     0.005 C 
ENDBRANCH  30  31
ENDBRANCH  29  30
ENDBRANCH  28  29
BRANCH  27  33
HETATM   33  C22 UNL     1      16.019  -9.489  18.659  1.00  0.00     0.197 C 
HETATM   34  O3  UNL     1      15.629  -9.839  17.522  1.00  0.00    -0.646 OA
HETATM   35  O4  UNL     1      17.329  -9.604  19.029  1.00  0.00    -0.646 OA
ENDBRANCH  27  33
ENDBRANCH  21  23
ENDBRANCH  12  14
ENDBRANCH  10  12
ENDBRANCH   9  10
ENDBRANCH   6   9
ENDBRANCH   5   6
TORSDOF 10
ENDMDL
MODEL 2
REMARK VINA RESULT: -6.023419426      2.085      7.072
REMARK  10 active torsions:
REMARK  status: ('A' for Active; 'I' for Inactive)
REMARK    1  A    between atoms: C5_5  and  N1_6 
REMARK    2  A    between atoms: N1_6  and  C8_9 
REMARK    3  A    between atoms: C8_9  and  N2_10 
REMARK    4  A    between atoms: N2_10  and  C9_12 
REMARK    5  A    between atoms: C9_12  and  C10_14 
REMARK    6  A    between atoms: C13_22  and  C14_23 
REMARK       I    between atoms: C14_23  and  N5_25 
REMARK    7  A    between atoms: C16_27  and  C17_28 
REMARK    8  A    between atoms: C17_28  and  C18_29 
REMARK    9  A    between atoms: C18_29  and  C19_30 
REMARK   10  A    between atoms: C21_32  and  C22_33 
ROOT
HETATM    1  C1  UNL     1      15.009 -12.929  20.340  1.00  0.00     0.102 C 
HETATM    2  C2  UNL     1      14.435 -12.389  21.279  1.00  0.00    -0.152 C 
HETATM    3  C3  UNL     1      13.774 -11.791  22.380  1.00  0.00     0.002 C 
HETATM    4  C4  UNL     1      13.674 -12.601  23.635  1.00  0.00     0.059 C 
HETATM    5  C5  UNL     1      13.268 -10.576  22.311  1.00  0.00     0.218 C 
ENDROOT
BRANCH   5   6
HETATM    6  N1  UNL     1      13.335  -9.778  21.162  1.00  0.00    -0.038 N 
HETATM    7  C6  UNL     1      14.715  -9.472  20.867  1.00  0.00     0.280 C 
HETATM    8  C7  UNL     1      12.740 -10.390  20.006  1.00  0.00     0.280 C 
BRANCH   6   9
HETATM    9  C8  UNL     1      12.610  -8.525  21.417  1.00  0.00     0.365 C 
BRANCH   9  10
HETATM   10  N2  UNL     1      13.138  -7.472  20.605  1.00  0.00    -0.360 N 
ATOM     11  H2  UNL     1      14.151  -7.352  20.624  1.00  0.00     0.161 HD
BRANCH  10  12
HETATM   12  C9  UNL     1      12.420  -6.579  19.781  1.00  0.00     0.083 C 
HETATM   13  S1  UNL     1      11.392  -7.262  18.687  1.00  0.00    -0.065 SA
BRANCH  12  14
HETATM   14  C10 UNL     1      12.584  -5.125  19.893  1.00  0.00     0.097 C 
HETATM   15  C11 UNL     1      11.570  -4.424  20.754  1.00  0.00     0.138 C 
HETATM   16  N3  UNL     1      11.582  -5.080  22.056  1.00  0.00    -0.342 N 
HETATM   17  C12 UNL     1      12.894  -5.172  22.642  1.00  0.00     0.316 C 
ATOM     18  H3  UNL     1      10.741  -5.440  22.508  1.00  0.00     0.164 HD
HETATM   19  O1  UNL     1      13.024  -5.536  23.815  1.00  0.00    -0.247 OA
HETATM   20  N4  UNL     1      14.021  -4.838  21.851  1.00  0.00    -0.329 N 
HETATM   21  C13 UNL     1      13.944  -4.704  20.412  1.00  0.00     0.190 C 
ATOM     22  H4  UNL     1      14.917  -4.687  22.311  1.00  0.00     0.165 HD
BRANCH  21  23
HETATM   23  C14 UNL     1      15.086  -5.266  19.713  1.00  0.00     0.244 C 
HETATM   24  O2  UNL     1      15.649  -6.274  20.270  1.00  0.00    -0.271 OA
HETATM   25  N5  UNL     1      15.646  -4.828  18.489  1.00  0.00    -0.335 N 
HETATM   26  C15 UNL     1      16.782  -5.276  17.656  1.00  0.00     0.134 A 
HETATM   27  C21 UNL     1      15.400  -3.787  17.512  1.00  0.00     0.193 A 
HETATM   28  C16 UNL     1      16.546  -4.224  16.645  1.00  0.00     0.037 A 
BRANCH  28  29
HETATM   29  C17 UNL     1      16.187  -4.671  15.250  1.00  0.00     0.009 C 
BRANCH  29  30
HETATM   30  C18 UNL     1      17.005  -3.988  14.198  1.00  0.00     0.000 C 
BRANCH  30  31
HETATM   31  C19 UNL     1      17.529  -2.642  14.659  1.00  0.00    -0.005 C 
HETATM   32  C20 UNL     1      19.024  -2.536  14.451  1.00  0.00     0.005 C 
ENDBRANCH  30  31
ENDBRANCH  29  30
ENDBRANCH  28  29
BRANCH  27  33
HETATM   33  C22 UNL     1      15.693  -2.392  17.988  1.00  0.00     0.197 C 
HETATM   34  O3  UNL     1      15.262  -1.448  17.287  1.00  0.00    -0.646 OA
HETATM   35  O4  UNL     1      16.399  -2.162  19.134  1.00  0.00    -0.646 OA
ENDBRANCH  27  33
ENDBRANCH  21  23
ENDBRANCH  12  14
ENDBRANCH  10  12
ENDBRANCH   9  10
ENDBRANCH   6   9
ENDBRANCH   5   6
TORSDOF 10
ENDMDL
MODEL 3
REMARK VINA RESULT: -5.937147559      2.153      5.990
REMARK  10 active torsions:
REMARK  status: ('A' for Active; 'I' for Inactive)
REMARK    1  A    between atoms: C5_5  and  N1_6 
REMARK    2  A    between atoms: N1_6  and  C8_9 
REMARK    3  A    between atoms: C8_9  and  N2_10 
REMARK    4  A    between atoms: N2_10  and  C9_12 
REMARK    5  A    between atoms: C9_12  and  C10_14 
REMARK    6  A    between atoms: C13_22  and  C14_23 
REMARK       I    between atoms: C14_23  and  N5_25 
REMARK    7  A    between atoms: C16_27  and  C17_28 
REMARK    8  A    between atoms: C17_28  and  C18_29 
REMARK    9  A    between atoms: C18_29  and  C19_30 
REMARK   10  A    between atoms: C21_32  and  C22_33 
ROOT
HETATM    1  C1  UNL     1      15.297 -12.453  19.593  1.00  0.00     0.102 C 
HETATM    2  C2  UNL     1      15.456 -11.273  19.885  1.00  0.00    -0.152 C 
HETATM    3  C3  UNL     1      15.668  -9.911  20.209  1.00  0.00     0.002 C 
HETATM    4  C4  UNL     1      16.941  -9.288  19.728  1.00  0.00     0.059 C 
HETATM    5  C5  UNL     1      14.789  -9.216  20.902  1.00  0.00     0.218 C 
ENDROOT
BRANCH   5   6
HETATM    6  N1  UNL     1      13.585  -9.752  21.375  1.00  0.00    -0.038 N 
HETATM    7  C6  UNL     1      12.767 -10.162  20.258  1.00  0.00     0.280 C 
HETATM    8  C7  UNL     1      13.765 -10.875  22.253  1.00  0.00     0.280 C 
BRANCH   6   9
HETATM    9  C8  UNL     1      12.873  -8.713  22.134  1.00  0.00     0.365 C 
BRANCH   9  10
HETATM   10  N2  UNL     1      12.961  -7.456  21.457  1.00  0.00    -0.360 N 
ATOM     11  H2  UNL     1      13.901  -7.121  21.246  1.00  0.00     0.161 HD
BRANCH  10  12
HETATM   12  C9  UNL     1      11.897  -6.624  21.047  1.00  0.00     0.083 C 
HETATM   13  S1  UNL     1      10.445  -7.367  20.797  1.00  0.00    -0.065 SA
BRANCH  12  14
HETATM   14  C10 UNL     1      12.077  -5.181  20.853  1.00  0.00     0.097 C 
HETATM   15  C11 UNL     1      11.099  -4.303  21.583  1.00  0.00     0.138 C 
HETATM   16  N3  UNL     1      11.151  -4.678  22.991  1.00  0.00    -0.342 N 
HETATM   17  C12 UNL     1      12.481  -4.668  23.541  1.00  0.00     0.316 C 
ATOM     18  H3  UNL     1      10.323  -4.924  23.534  1.00  0.00     0.164 HD
HETATM   19  O1  UNL     1      12.649  -4.786  24.759  1.00  0.00    -0.247 OA
HETATM   20  N4  UNL     1      13.583  -4.521  22.662  1.00  0.00    -0.329 N 
HETATM   21  C13 UNL     1      13.458  -4.684  21.230  1.00  0.00     0.190 C 
ATOM     22  H4  UNL     1      14.497  -4.292  23.053  1.00  0.00     0.165 HD
BRANCH  21  23
HETATM   23  C14 UNL     1      14.570  -5.394  20.625  1.00  0.00     0.244 C 
HETATM   24  O2  UNL     1      15.485  -5.799  21.426  1.00  0.00    -0.271 OA
HETATM   25  N5  UNL     1      14.758  -5.691  19.254  1.00  0.00    -0.335 N 
HETATM   26  C15 UNL     1      15.807  -6.391  18.484  1.00  0.00     0.134 A 
HETATM   27  C21 UNL     1      14.057  -5.467  18.006  1.00  0.00     0.193 A 
HETATM   28  C16 UNL     1      15.108  -6.176  17.200  1.00  0.00     0.037 A 
BRANCH  28  29
HETATM   29  C17 UNL     1      14.649  -7.400  16.447  1.00  0.00     0.009 C 
BRANCH  29  30
HETATM   30  C18 UNL     1      15.626  -7.829  15.397  1.00  0.00     0.000 C 
BRANCH  30  31
HETATM   31  C19 UNL     1      16.461  -9.016  15.837  1.00  0.00    -0.005 C 
HETATM   32  C20 UNL     1      15.586 -10.154  16.313  1.00  0.00     0.005 C 
ENDBRANCH  30  31
ENDBRANCH  29  30
ENDBRANCH  28  29
BRANCH  27  33
HETATM   33  C22 UNL     1      14.021  -4.035  17.550  1.00  0.00     0.197 C 
HETATM   34  O3  UNL     1      13.024  -3.673  16.884  1.00  0.00    -0.646 OA
HETATM   35  O4  UNL     1      15.031  -3.166  17.848  1.00  0.00    -0.646 OA
ENDBRANCH  27  33
ENDBRANCH  21  23
ENDBRANCH  12  14
ENDBRANCH  10  12
ENDBRANCH   9  10
ENDBRANCH   6   9
ENDBRANCH   5   6
TORSDOF 10
ENDMDL
MODEL 4
REMARK VINA RESULT: -5.903319143      2.370      5.994
REMARK  10 active torsions:
REMARK  status: ('A' for Active; 'I' for Inactive)
REMARK    1  A    between atoms: C5_5  and  N1_6 
REMARK    2  A    between atoms: N1_6  and  C8_9 
REMARK    3  A    between atoms: C8_9  and  N2_10 
REMARK    4  A    between atoms: N2_10  and  C9_12 
REMARK    5  A    between atoms: C9_12  and  C10_14 
REMARK    6  A    between atoms: C13_22  and  C14_23 
REMARK       I    between atoms: C14_23  and  N5_25 
REMARK    7  A    between atoms: C16_27  and  C17_28 
REMARK    8  A    between atoms: C17_28  and  C18_29 
REMARK    9  A    between atoms: C18_29  and  C19_30 
REMARK   10  A    between atoms: C21_32  and  C22_33 
ROOT
HETATM    1  C1  UNL     1      10.450 -11.414  24.006  1.00  0.00     0.102 C 
HETATM    2  C2  UNL     1      11.559 -11.544  23.499  1.00  0.00    -0.152 C 
HETATM    3  C3  UNL     1      12.848 -11.714  22.937  1.00  0.00     0.002 C 
HETATM    4  C4  UNL     1      13.774 -12.660  23.635  1.00  0.00     0.059 C 
HETATM    5  C5  UNL     1      13.222 -11.071  21.849  1.00  0.00     0.218 C 
ENDROOT
BRANCH   5   6
HETATM    6  N1  UNL     1      12.394 -10.176  21.161  1.00  0.00    -0.038 N 
HETATM    7  C6  UNL     1      13.101  -9.646  20.019  1.00  0.00     0.280 C 
HETATM    8  C7  UNL     1      11.165 -10.768  20.709  1.00  0.00     0.280 C 
BRANCH   6   9
HETATM    9  C8  UNL     1      12.043  -9.071  22.063  1.00  0.00     0.365 C 
BRANCH   9  10
HETATM   10  N2  UNL     1      12.396  -7.816  21.473  1.00  0.00    -0.360 N 
ATOM     11  H2  UNL     1      13.354  -7.731  21.134  1.00  0.00     0.161 HD
BRANCH  10  12
HETATM   12  C9  UNL     1      11.572  -6.683  21.305  1.00  0.00     0.083 C 
HETATM   13  S1  UNL     1       9.946  -6.944  21.385  1.00  0.00    -0.065 SA
BRANCH  12  14
HETATM   14  C10 UNL     1      12.136  -5.348  21.072  1.00  0.00     0.097 C 
HETATM   15  C11 UNL     1      11.328  -4.201  21.610  1.00  0.00     0.138 C 
HETATM   16  N3  UNL     1      11.101  -4.460  23.027  1.00  0.00    -0.342 N 
HETATM   17  C12 UNL     1      12.309  -4.731  23.763  1.00  0.00     0.316 C 
ATOM     18  H3  UNL     1      10.176  -4.451  23.456  1.00  0.00     0.164 HD
HETATM   19  O1  UNL     1      12.283  -4.786  24.997  1.00  0.00    -0.247 OA
HETATM   20  N4  UNL     1      13.515  -4.930  23.047  1.00  0.00    -0.329 N 
HETATM   21  C13 UNL     1      13.538  -5.174  21.621  1.00  0.00     0.190 C 
ATOM     22  H4  UNL     1      14.399  -4.901  23.554  1.00  0.00     0.165 HD
BRANCH  21  23
HETATM   23  C14 UNL     1      14.501  -6.182  21.218  1.00  0.00     0.244 C 
HETATM   24  O2  UNL     1      14.895  -6.987  22.134  1.00  0.00    -0.271 OA
HETATM   25  N5  UNL     1      15.054  -6.378  19.929  1.00  0.00    -0.335 N 
HETATM   26  C15 UNL     1      16.024  -7.335  19.357  1.00  0.00     0.134 A 
HETATM   27  C21 UNL     1      14.949  -5.772  18.617  1.00  0.00     0.193 A 
HETATM   28  C16 UNL     1      15.930  -6.735  18.010  1.00  0.00     0.037 A 
BRANCH  28  29
HETATM   29  C17 UNL     1      15.399  -7.605  16.898  1.00  0.00     0.009 C 
BRANCH  29  30
HETATM   30  C18 UNL     1      16.330  -7.673  15.727  1.00  0.00     0.000 C 
BRANCH  30  31
HETATM   31  C19 UNL     1      17.754  -7.313  16.102  1.00  0.00    -0.005 C 
HETATM   32  C20 UNL     1      18.638  -8.541  16.135  1.00  0.00     0.005 C 
ENDBRANCH  30  31
ENDBRANCH  29  30
ENDBRANCH  28  29
BRANCH  27  33
HETATM   33  C22 UNL     1      15.536  -4.393  18.509  1.00  0.00     0.197 C 
HETATM   34  O3  UNL     1      14.907  -3.557  17.821  1.00  0.00    -0.646 OA
HETATM   35  O4  UNL     1      16.705  -4.064  19.135  1.00  0.00    -0.646 OA
ENDBRANCH  27  33
ENDBRANCH  21  23
ENDBRANCH  12  14
ENDBRANCH  10  12
ENDBRANCH   9  10
ENDBRANCH   6   9
ENDBRANCH   5   6
TORSDOF 10
ENDMDL
MODEL 5
REMARK VINA RESULT: -5.890970996      2.413      6.792
REMARK  10 active torsions:
REMARK  status: ('A' for Active; 'I' for Inactive)
REMARK    1  A    between atoms: C5_5  and  N1_6 
REMARK    2  A    between atoms: N1_6  and  C8_9 
REMARK    3  A    between atoms: C8_9  and  N2_10 
REMARK    4  A    between atoms: N2_10  and  C9_12 
REMARK    5  A    between atoms: C9_12  and  C10_14 
REMARK    6  A    between atoms: C13_22  and  C14_23 
REMARK       I    between atoms: C14_23  and  N5_25 
REMARK    7  A    between atoms: C16_27  and  C17_28 
REMARK    8  A    between atoms: C17_28  and  C18_29 
REMARK    9  A    between atoms: C18_29  and  C19_30 
REMARK   10  A    between atoms: C21_32  and  C22_33 
ROOT
HETATM    1  C1  UNL     1      13.517 -12.216  23.367  1.00  0.00     0.102 C 
HETATM    2  C2  UNL     1      13.803 -11.925  22.211  1.00  0.00    -0.152 C 
HETATM    3  C3  UNL     1      14.155 -11.612  20.875  1.00  0.00     0.002 C 
HETATM    4  C4  UNL     1      15.189 -12.477  20.224  1.00  0.00     0.059 C 
HETATM    5  C5  UNL     1      13.603 -10.606  20.228  1.00  0.00     0.218 C 
ENDROOT
BRANCH   5   6
HETATM    6  N1  UNL     1      12.633  -9.768  20.792  1.00  0.00    -0.038 N 
HETATM    7  C6  UNL     1      11.479 -10.550  21.168  1.00  0.00     0.280 C 
HETATM    8  C7  UNL     1      13.100  -9.048  21.944  1.00  0.00     0.280 C 
BRANCH   6   9
HETATM    9  C8  UNL     1      12.230  -8.773  19.788  1.00  0.00     0.365 C 
BRANCH   9  10
HETATM   10  N2  UNL     1      11.751  -7.586  20.429  1.00  0.00    -0.360 N 
ATOM     11  H2  UNL     1      12.389  -7.142  21.090  1.00  0.00     0.161 HD
BRANCH  10  12
HETATM   12  C9  UNL     1      10.499  -6.960  20.253  1.00  0.00     0.083 C 
HETATM   13  S1  UNL     1       9.240  -7.946  19.851  1.00  0.00    -0.065 SA
BRANCH  12  14
HETATM   14  C10 UNL     1      10.332  -5.511  20.418  1.00  0.00     0.097 C 
HETATM   15  C11 UNL     1       9.685  -5.077  21.704  1.00  0.00     0.138 C 
HETATM   16  N3  UNL     1      10.451  -5.669  22.794  1.00  0.00    -0.342 N 
HETATM   17  C12 UNL     1      11.863  -5.395  22.720  1.00  0.00     0.316 C 
ATOM     18  H3  UNL     1      10.027  -6.223  23.538  1.00  0.00     0.164 HD
HETATM   19  O1  UNL     1      12.599  -5.679  23.670  1.00  0.00    -0.247 OA
HETATM   20  N4  UNL     1      12.383  -4.800  21.544  1.00  0.00    -0.329 N 
HETATM   21  C13 UNL     1      11.628  -4.733  20.311  1.00  0.00     0.190 C 
ATOM     22  H4  UNL     1      13.323  -4.405  21.567  1.00  0.00     0.165 HD
BRANCH  21  23
HETATM   23  C14 UNL     1      12.424  -4.995  19.126  1.00  0.00     0.244 C 
HETATM   24  O2  UNL     1      11.790  -5.448  18.108  1.00  0.00    -0.271 OA
HETATM   25  N5  UNL     1      13.818  -4.808  18.966  1.00  0.00    -0.335 N 
HETATM   26  C15 UNL     1      14.767  -5.018  17.853  1.00  0.00     0.134 A 
HETATM   27  C21 UNL     1      14.934  -4.348  19.768  1.00  0.00     0.193 A 
HETATM   28  C16 UNL     1      15.918  -4.549  18.651  1.00  0.00     0.037 A 
BRANCH  28  29
HETATM   29  C17 UNL     1      16.637  -3.313  18.172  1.00  0.00     0.009 C 
BRANCH  29  30
HETATM   30  C18 UNL     1      17.962  -3.623  17.546  1.00  0.00     0.000 C 
BRANCH  30  31
HETATM   31  C19 UNL     1      18.144  -2.930  16.211  1.00  0.00    -0.005 C 
HETATM   32  C20 UNL     1      16.817  -2.477  15.643  1.00  0.00     0.005 C 
ENDBRANCH  30  31
ENDBRANCH  29  30
ENDBRANCH  28  29
BRANCH  27  33
HETATM   33  C22 UNL     1      15.325  -5.264  20.893  1.00  0.00     0.197 C 
HETATM   34  O3  UNL     1      15.305  -4.788  22.050  1.00  0.00    -0.646 OA
HETATM   35  O4  UNL     1      15.686  -6.562  20.663  1.00  0.00    -0.646 OA
ENDBRANCH  27  33
ENDBRANCH  21  23
ENDBRANCH  12  14
ENDBRANCH  10  12
ENDBRANCH   9  10
ENDBRANCH   6   9
ENDBRANCH   5   6
TORSDOF 10
ENDMDL
