MODEL 1
REMARK VINA RESULT: -8.047527769      0.000      0.000
REMARK  11 active torsions:
REMARK  status: ('A' for Active; 'I' for Inactive)
REMARK    1  A    between atoms: C9_9  and  C10_10 
REMARK    2  A    between atoms: C10_10  and  C11_12 
REMARK    3  A    between atoms: C12_14  and  C13_15 
REMARK    4  A    between atoms: C12_14  and  C15_19 
REMARK    5  A    between atoms: C13_15  and  C14_16 
REMARK    6  A    between atoms: C14_16  and  O3_17 
REMARK    7  A    between atoms: C17_23  and  O6_24 
REMARK    8  A    between atoms: C18_26  and  C19_27 
REMARK    9  A    between atoms: C19_27  and  C20_28 
REMARK   10  A    between atoms: C20_28  and  N1_29 
REMARK   11  A    between atoms: N1_29  and  C21_32 
ROOT
HETATM    1  C11 UNL     1       1.904 -12.311  23.089  1.00  0.00     0.101 C 
HETATM    2  O2  UNL     1       0.651 -11.899  23.440  1.00  0.00    -0.329 OA
HETATM    3  C12 UNL     1       0.437 -10.596  23.805  1.00  0.00     0.159 C 
HETATM    4  C16 UNL     1       1.480 -10.026  24.751  1.00  0.00     0.082 C 
HETATM    5  C17 UNL     1       2.355 -11.209  25.196  1.00  0.00     0.132 C 
HETATM    6  C18 UNL     1       2.972 -11.693  23.860  1.00  0.00     0.077 C 
ENDROOT
BRANCH   6   7
HETATM    7  C19 UNL     1       4.159 -12.530  24.237  1.00  0.00     0.041 C 
BRANCH   7   8
HETATM    8  C20 UNL     1       3.911 -14.002  24.335  1.00  0.00     0.234 C 
BRANCH   8   9
HETATM    9  N1  UNL     1       4.987 -14.730  23.679  1.00  0.00    -0.066 N 
ATOM     10  H12 UNL     1       4.947 -14.597  22.668  1.00  0.00     0.278 HD
ATOM     11  H11 UNL     1       5.888 -14.292  23.873  1.00  0.00     0.278 HD
BRANCH   9  12
HETATM   12  C21 UNL     1       5.023 -16.109  23.999  1.00  0.00     0.130 C 
HETATM   13  C22 UNL     1       6.344 -16.834  23.897  1.00  0.00     0.043 C 
HETATM   14  C23 UNL     1       5.914 -18.189  23.385  1.00  0.00    -0.011 C 
HETATM   15  C24 UNL     1       5.008 -18.808  24.418  1.00  0.00     0.010 C 
HETATM   16  C28 UNL     1       4.882 -17.763  22.329  1.00  0.00     0.012 C 
HETATM   17  C25 UNL     1       3.874 -17.779  24.474  1.00  0.00    -0.005 C 
HETATM   18  C26 UNL     1       4.307 -16.534  25.266  1.00  0.00     0.044 C 
HETATM   19  C27 UNL     1       4.001 -16.948  23.247  1.00  0.00     0.026 C 
ENDBRANCH   9  12
ENDBRANCH   8   9
ENDBRANCH   7   8
ENDBRANCH   6   7
BRANCH   1  20
HETATM   20  C10 UNL     1       2.034 -12.490  21.637  1.00  0.00     0.183 C 
HETATM   21  O1  UNL     1       2.774 -11.669  21.058  1.00  0.00    -0.290 OA
BRANCH  20  22
HETATM   22  C9  UNL     1       1.437 -13.479  20.756  1.00  0.00     0.071 C 
HETATM   23  C7  UNL     1       2.127 -14.852  20.860  1.00  0.00    -0.026 C 
HETATM   24  C2  UNL     1       1.190 -15.598  19.888  1.00  0.00    -0.036 C 
HETATM   25  C6  UNL     1       1.802 -15.565  22.130  1.00  0.00     0.011 C 
HETATM   26  C8  UNL     1       3.526 -14.847  20.443  1.00  0.00     0.016 C 
HETATM   27  C1  UNL     1       1.555 -17.059  19.792  1.00  0.00     0.016 C 
HETATM   28  C3  UNL     1       1.112 -14.982  18.545  1.00  0.00     0.016 C 
HETATM   29  C4  UNL     1      -0.059 -15.393  20.747  1.00  0.00    -0.005 C 
HETATM   30  C5  UNL     1       0.402 -16.184  21.962  1.00  0.00     0.006 C 
HETATM   31  C29 UNL     1       0.032 -13.923  21.099  1.00  0.00     0.018 C 
ENDBRANCH  20  22
ENDBRANCH   1  20
BRANCH   5  32
HETATM   32  O6  UNL     1       3.337 -10.766  26.047  1.00  0.00    -0.395 OA
ATOM     33  H6  UNL     1       3.333  -9.816  26.075  1.00  0.00     0.210 HD
ENDBRANCH   5  32
BRANCH   3  34
HETATM   34  C13 UNL     1       0.418  -9.743  22.571  1.00  0.00     0.076 C 
BRANCH  34  35
HETATM   35  C14 UNL     1      -0.637 -10.106  21.559  1.00  0.00     0.167 C 
BRANCH  35  36
HETATM   36  O3  UNL     1      -1.001  -8.936  20.833  1.00  0.00    -0.401 OA
ATOM     37  H3  UNL     1      -1.512  -9.192  20.073  1.00  0.00     0.209 HD
ENDBRANCH  35  36
ENDBRANCH  34  35
ENDBRANCH   3  34
BRANCH   3  38
HETATM   38  C15 UNL     1      -0.921 -10.521  24.439  1.00  0.00     0.210 C 
HETATM   39  O4  UNL     1      -1.768 -11.437  24.425  1.00  0.00    -0.646 OA
HETATM   40  O5  UNL     1      -1.269  -9.353  25.090  1.00  0.00    -0.646 OA
ENDBRANCH   3  38
TORSDOF 11
ENDMDL
MODEL 2
REMARK VINA RESULT: -8.026014713      3.738      6.209
REMARK  11 active torsions:
REMARK  status: ('A' for Active; 'I' for Inactive)
REMARK    1  A    between atoms: C9_9  and  C10_10 
REMARK    2  A    between atoms: C10_10  and  C11_12 
REMARK    3  A    between atoms: C12_14  and  C13_15 
REMARK    4  A    between atoms: C12_14  and  C15_19 
REMARK    5  A    between atoms: C13_15  and  C14_16 
REMARK    6  A    between atoms: C14_16  and  O3_17 
REMARK    7  A    between atoms: C17_23  and  O6_24 
REMARK    8  A    between atoms: C18_26  and  C19_27 
REMARK    9  A    between atoms: C19_27  and  C20_28 
REMARK   10  A    between atoms: C20_28  and  N1_29 
REMARK   11  A    between atoms: N1_29  and  C21_32 
ROOT
HETATM    1  C11 UNL     1       3.576 -15.831  24.039  1.00  0.00     0.101 C 
HETATM    2  O2  UNL     1       4.461 -15.032  23.374  1.00  0.00    -0.329 OA
HETATM    3  C12 UNL     1       5.117 -15.509  22.271  1.00  0.00     0.159 C 
HETATM    4  C16 UNL     1       5.668 -16.917  22.424  1.00  0.00     0.082 C 
HETATM    5  C17 UNL     1       5.504 -17.288  23.908  1.00  0.00     0.132 C 
HETATM    6  C18 UNL     1       3.969 -17.231  24.101  1.00  0.00     0.077 C 
ENDROOT
BRANCH   6   7
HETATM    7  C19 UNL     1       3.686 -17.998  25.360  1.00  0.00     0.041 C 
BRANCH   7   8
HETATM    8  C20 UNL     1       3.549 -19.480  25.200  1.00  0.00     0.234 C 
BRANCH   8   9
HETATM    9  N1  UNL     1       2.216 -19.900  25.606  1.00  0.00    -0.066 N 
ATOM     10  H12 UNL     1       1.918 -19.392  26.439  1.00  0.00     0.278 HD
ATOM     11  H11 UNL     1       1.517 -19.568  24.943  1.00  0.00     0.278 HD
BRANCH   9  12
HETATM   12  C21 UNL     1       2.093 -21.297  25.803  1.00  0.00     0.130 C 
HETATM   13  C22 UNL     1       3.181 -22.196  25.266  1.00  0.00     0.043 C 
HETATM   14  C23 UNL     1       2.391 -23.399  24.808  1.00  0.00    -0.011 C 
HETATM   15  C24 UNL     1       1.712 -23.993  26.015  1.00  0.00     0.010 C 
HETATM   16  C28 UNL     1       1.199 -22.699  24.135  1.00  0.00     0.012 C 
HETATM   17  C25 UNL     1       0.841 -22.820  26.475  1.00  0.00    -0.005 C 
HETATM   18  C26 UNL     1       1.693 -21.758  27.191  1.00  0.00     0.044 C 
HETATM   19  C27 UNL     1       0.769 -21.877  25.327  1.00  0.00     0.026 C 
ENDBRANCH   9  12
ENDBRANCH   8   9
ENDBRANCH   7   8
ENDBRANCH   6   7
BRANCH   1  20
HETATM   20  C10 UNL     1       2.184 -15.454  23.763  1.00  0.00     0.183 C 
HETATM   21  O1  UNL     1       1.469 -16.354  23.280  1.00  0.00    -0.290 OA
BRANCH  20  22
HETATM   22  C9  UNL     1       1.496 -14.191  23.966  1.00  0.00     0.071 C 
HETATM   23  C7  UNL     1       1.155 -13.486  22.639  1.00  0.00    -0.026 C 
HETATM   24  C2  UNL     1       0.396 -12.294  23.259  1.00  0.00    -0.036 C 
HETATM   25  C6  UNL     1       0.037 -14.150  21.906  1.00  0.00     0.011 C 
HETATM   26  C8  UNL     1       2.323 -13.099  21.856  1.00  0.00     0.016 C 
HETATM   27  C1  UNL     1      -0.158 -11.386  22.189  1.00  0.00     0.016 C 
HETATM   28  C3  UNL     1       1.191 -11.529  24.244  1.00  0.00     0.016 C 
HETATM   29  C4  UNL     1      -0.703 -13.161  23.875  1.00  0.00    -0.005 C 
HETATM   30  C5  UNL     1      -1.276 -13.710  22.578  1.00  0.00     0.006 C 
HETATM   31  C29 UNL     1       0.093 -14.272  24.528  1.00  0.00     0.018 C 
ENDBRANCH  20  22
ENDBRANCH   1  20
BRANCH   5  32
HETATM   32  O6  UNL     1       5.970 -18.562  24.122  1.00  0.00    -0.395 OA
ATOM     33  H6  UNL     1       6.030 -18.729  25.055  1.00  0.00     0.210 HD
ENDBRANCH   5  32
BRANCH   3  34
HETATM   34  C13 UNL     1       4.173 -15.508  21.105  1.00  0.00     0.076 C 
BRANCH  34  35
HETATM   35  C14 UNL     1       3.676 -16.867  20.686  1.00  0.00     0.167 C 
BRANCH  35  36
HETATM   36  O3  UNL     1       2.307 -16.760  20.309  1.00  0.00    -0.401 OA
ATOM     37  H3  UNL     1       2.081 -17.501  19.757  1.00  0.00     0.209 HD
ENDBRANCH  35  36
ENDBRANCH  34  35
ENDBRANCH   3  34
BRANCH   3  38
HETATM   38  C15 UNL     1       6.234 -14.557  21.962  1.00  0.00     0.210 C 
HETATM   39  O4  UNL     1       7.425 -14.718  22.299  1.00  0.00    -0.646 OA
HETATM   40  O5  UNL     1       5.934 -13.412  21.249  1.00  0.00    -0.646 OA
ENDBRANCH   3  38
TORSDOF 11
ENDMDL
MODEL 3
REMARK VINA RESULT: -7.775286864     10.108     12.983
REMARK  11 active torsions:
REMARK  status: ('A' for Active; 'I' for Inactive)
REMARK    1  A    between atoms: C9_9  and  C10_10 
REMARK    2  A    between atoms: C10_10  and  C11_12 
REMARK    3  A    between atoms: C12_14  and  C13_15 
REMARK    4  A    between atoms: C12_14  and  C15_19 
REMARK    5  A    between atoms: C13_15  and  C14_16 
REMARK    6  A    between atoms: C14_16  and  O3_17 
REMARK    7  A    between atoms: C17_23  and  O6_24 
REMARK    8  A    between atoms: C18_26  and  C19_27 
REMARK    9  A    between atoms: C19_27  and  C20_28 
REMARK   10  A    between atoms: C20_28  and  N1_29 
REMARK   11  A    between atoms: N1_29  and  C21_32 
ROOT
HETATM    1  C11 UNL     1       0.077 -24.294  28.456  1.00  0.00     0.101 C 
HETATM    2  O2  UNL     1      -0.131 -22.957  28.636  1.00  0.00    -0.329 OA
HETATM    3  C12 UNL     1       0.197 -22.369  29.828  1.00  0.00     0.159 C 
HETATM    4  C16 UNL     1      -0.229 -23.154  31.058  1.00  0.00     0.082 C 
HETATM    5  C17 UNL     1      -1.129 -24.295  30.554  1.00  0.00     0.132 C 
HETATM    6  C18 UNL     1      -0.172 -25.100  29.641  1.00  0.00     0.077 C 
ENDROOT
BRANCH   6   7
HETATM    7  C19 UNL     1      -0.809 -26.448  29.469  1.00  0.00     0.041 C 
BRANCH   7   8
HETATM    8  C20 UNL     1       0.063 -27.624  29.779  1.00  0.00     0.234 C 
BRANCH   8   9
HETATM    9  N1  UNL     1       1.259 -27.180  30.480  1.00  0.00    -0.066 N 
ATOM     10  H12 UNL     1       1.523 -26.241  30.182  1.00  0.00     0.278 HD
ATOM     11  H11 UNL     1       1.053 -26.997  31.462  1.00  0.00     0.278 HD
BRANCH   9  12
HETATM   12  C21 UNL     1       2.356 -28.068  30.358  1.00  0.00     0.130 C 
HETATM   13  C22 UNL     1       3.750 -27.486  30.328  1.00  0.00     0.043 C 
HETATM   14  C23 UNL     1       4.443 -28.395  29.340  1.00  0.00    -0.011 C 
HETATM   15  C24 UNL     1       4.426 -29.792  29.907  1.00  0.00     0.010 C 
HETATM   16  C28 UNL     1       3.347 -28.516  28.269  1.00  0.00     0.012 C 
HETATM   17  C25 UNL     1       2.919 -30.045  30.029  1.00  0.00    -0.005 C 
HETATM   18  C26 UNL     1       2.339 -29.299  31.242  1.00  0.00     0.044 C 
HETATM   19  C27 UNL     1       2.253 -29.024  29.178  1.00  0.00     0.026 C 
ENDBRANCH   9  12
ENDBRANCH   8   9
ENDBRANCH   7   8
ENDBRANCH   6   7
BRANCH   1  20
HETATM   20  C10 UNL     1       1.243 -24.556  27.602  1.00  0.00     0.183 C 
HETATM   21  O1  UNL     1       2.186 -25.162  28.150  1.00  0.00    -0.290 OA
BRANCH  20  22
HETATM   22  C9  UNL     1       1.479 -24.224  26.207  1.00  0.00     0.071 C 
HETATM   23  C7  UNL     1       0.236 -24.458  25.328  1.00  0.00    -0.026 C 
HETATM   24  C2  UNL     1       0.844 -23.930  24.013  1.00  0.00    -0.036 C 
HETATM   25  C6  UNL     1      -0.827 -23.434  25.550  1.00  0.00     0.011 C 
HETATM   26  C8  UNL     1      -0.191 -25.852  25.263  1.00  0.00     0.016 C 
HETATM   27  C1  UNL     1      -0.168 -23.957  22.895  1.00  0.00     0.016 C 
HETATM   28  C3  UNL     1       2.091 -24.619  23.615  1.00  0.00     0.016 C 
HETATM   29  C4  UNL     1       1.051 -22.509  24.539  1.00  0.00    -0.005 C 
HETATM   30  C5  UNL     1      -0.412 -22.168  24.777  1.00  0.00     0.006 C 
HETATM   31  C29 UNL     1       1.686 -22.758  25.892  1.00  0.00     0.018 C 
ENDBRANCH  20  22
ENDBRANCH   1  20
BRANCH   5  32
HETATM   32  O6  UNL     1      -1.544 -25.061  31.614  1.00  0.00    -0.395 OA
ATOM     33  H6  UNL     1      -1.706 -25.951  31.323  1.00  0.00     0.210 HD
ENDBRANCH   5  32
BRANCH   3  34
HETATM   34  C13 UNL     1       1.685 -22.189  29.889  1.00  0.00     0.076 C 
BRANCH  34  35
HETATM   35  C14 UNL     1       2.361 -22.854  31.060  1.00  0.00     0.167 C 
BRANCH  35  36
HETATM   36  O3  UNL     1       3.190 -23.907  30.577  1.00  0.00    -0.401 OA
ATOM     37  H3  UNL     1       4.045 -23.836  30.985  1.00  0.00     0.209 HD
ENDBRANCH  35  36
ENDBRANCH  34  35
ENDBRANCH   3  34
BRANCH   3  38
HETATM   38  C15 UNL     1      -0.434 -21.008  29.851  1.00  0.00     0.210 C 
HETATM   39  O4  UNL     1      -1.027 -20.480  28.889  1.00  0.00    -0.646 OA
HETATM   40  O5  UNL     1      -0.357 -20.276  31.020  1.00  0.00    -0.646 OA
ENDBRANCH   3  38
TORSDOF 11
ENDMDL
MODEL 4
REMARK VINA RESULT: -7.688874113      1.252      2.144
REMARK  11 active torsions:
REMARK  status: ('A' for Active; 'I' for Inactive)
REMARK    1  A    between atoms: C9_9  and  C10_10 
REMARK    2  A    between atoms: C10_10  and  C11_12 
REMARK    3  A    between atoms: C12_14  and  C13_15 
REMARK    4  A    between atoms: C12_14  and  C15_19 
REMARK    5  A    between atoms: C13_15  and  C14_16 
REMARK    6  A    between atoms: C14_16  and  O3_17 
REMARK    7  A    between atoms: C17_23  and  O6_24 
REMARK    8  A    between atoms: C18_26  and  C19_27 
REMARK    9  A    between atoms: C19_27  and  C20_28 
REMARK   10  A    between atoms: C20_28  and  N1_29 
REMARK   11  A    between atoms: N1_29  and  C21_32 
ROOT
HETATM    1  C11 UNL     1       0.337 -12.147  23.209  1.00  0.00     0.101 C 
HETATM    2  O2  UNL     1      -0.660 -11.216  23.280  1.00  0.00    -0.329 OA
HETATM    3  C12 UNL     1      -0.383  -9.899  23.030  1.00  0.00     0.159 C 
HETATM    4  C16 UNL     1       0.887  -9.384  23.688  1.00  0.00     0.082 C 
HETATM    5  C17 UNL     1       1.356 -10.490  24.649  1.00  0.00     0.132 C 
HETATM    6  C18 UNL     1       1.627 -11.676  23.690  1.00  0.00     0.077 C 
ENDROOT
BRANCH   6   7
HETATM    7  C19 UNL     1       2.497 -12.630  24.455  1.00  0.00     0.041 C 
BRANCH   7   8
HETATM    8  C20 UNL     1       3.803 -12.977  23.811  1.00  0.00     0.234 C 
BRANCH   8   9
HETATM    9  N1  UNL     1       4.573 -13.844  24.690  1.00  0.00    -0.066 N 
ATOM     10  H12 UNL     1       5.467 -13.412  24.926  1.00  0.00     0.278 HD
ATOM     11  H11 UNL     1       4.151 -13.881  25.617  1.00  0.00     0.278 HD
BRANCH   9  12
HETATM   12  C21 UNL     1       4.769 -15.149  24.177  1.00  0.00     0.130 C 
HETATM   13  C22 UNL     1       3.552 -15.986  23.862  1.00  0.00     0.043 C 
HETATM   14  C23 UNL     1       4.014 -17.367  24.263  1.00  0.00    -0.011 C 
HETATM   15  C24 UNL     1       5.190 -17.731  23.394  1.00  0.00     0.010 C 
HETATM   16  C28 UNL     1       4.732 -17.039  25.581  1.00  0.00     0.012 C 
HETATM   17  C25 UNL     1       6.182 -16.619  23.753  1.00  0.00    -0.005 C 
HETATM   18  C26 UNL     1       5.791 -15.299  23.067  1.00  0.00     0.044 C 
HETATM   19  C27 UNL     1       5.692 -16.016  25.022  1.00  0.00     0.026 C 
ENDBRANCH   9  12
ENDBRANCH   8   9
ENDBRANCH   7   8
ENDBRANCH   6   7
BRANCH   1  20
HETATM   20  C10 UNL     1       0.242 -12.958  21.987  1.00  0.00     0.183 C 
HETATM   21  O1  UNL     1      -0.907 -13.098  21.523  1.00  0.00    -0.290 OA
BRANCH  20  22
HETATM   22  C9  UNL     1       1.280 -13.627  21.223  1.00  0.00     0.071 C 
HETATM   23  C7  UNL     1       1.210 -15.161  21.351  1.00  0.00    -0.026 C 
HETATM   24  C2  UNL     1       2.361 -15.476  20.375  1.00  0.00    -0.036 C 
HETATM   25  C6  UNL     1       0.064 -15.750  20.599  1.00  0.00     0.011 C 
HETATM   26  C8  UNL     1       1.435 -15.653  22.707  1.00  0.00     0.016 C 
HETATM   27  C1  UNL     1       2.540 -16.964  20.205  1.00  0.00     0.016 C 
HETATM   28  C3  UNL     1       3.641 -14.827  20.733  1.00  0.00     0.016 C 
HETATM   29  C4  UNL     1       1.661 -14.859  19.163  1.00  0.00    -0.005 C 
HETATM   30  C5  UNL     1       0.472 -15.806  19.115  1.00  0.00     0.006 C 
HETATM   31  C29 UNL     1       1.168 -13.538  19.716  1.00  0.00     0.018 C 
ENDBRANCH  20  22
ENDBRANCH   1  20
BRANCH   5  32
HETATM   32  O6  UNL     1       2.515 -10.101  25.273  1.00  0.00    -0.395 OA
ATOM     33  H6  UNL     1       2.885 -10.835  25.749  1.00  0.00     0.210 HD
ENDBRANCH   5  32
BRANCH   3  34
HETATM   34  C13 UNL     1      -0.246  -9.702  21.549  1.00  0.00     0.076 C 
BRANCH  34  35
HETATM   35  C14 UNL     1       0.117  -8.304  21.122  1.00  0.00     0.167 C 
BRANCH  35  36
HETATM   36  O3  UNL     1      -1.011  -7.710  20.486  1.00  0.00    -0.401 OA
ATOM     37  H3  UNL     1      -1.777  -8.248  20.653  1.00  0.00     0.209 HD
ENDBRANCH  35  36
ENDBRANCH  34  35
ENDBRANCH   3  34
BRANCH   3  38
HETATM   38  C15 UNL     1      -1.559  -9.092  23.496  1.00  0.00     0.210 C 
HETATM   39  O4  UNL     1      -1.591  -8.415  24.543  1.00  0.00    -0.646 OA
HETATM   40  O5  UNL     1      -2.698  -9.093  22.714  1.00  0.00    -0.646 OA
ENDBRANCH   3  38
TORSDOF 11
ENDMDL
MODEL 5
REMARK VINA RESULT: -7.638049019      9.289     12.944
REMARK  11 active torsions:
REMARK  status: ('A' for Active; 'I' for Inactive)
REMARK    1  A    between atoms: C9_9  and  C10_10 
REMARK    2  A    between atoms: C10_10  and  C11_12 
REMARK    3  A    between atoms: C12_14  and  C13_15 
REMARK    4  A    between atoms: C12_14  and  C15_19 
REMARK    5  A    between atoms: C13_15  and  C14_16 
REMARK    6  A    between atoms: C14_16  and  O3_17 
REMARK    7  A    between atoms: C17_23  and  O6_24 
REMARK    8  A    between atoms: C18_26  and  C19_27 
REMARK    9  A    between atoms: C19_27  and  C20_28 
REMARK   10  A    between atoms: C20_28  and  N1_29 
REMARK   11  A    between atoms: N1_29  and  C21_32 
ROOT
HETATM    1  C11 UNL     1       2.034 -24.043  27.478  1.00  0.00     0.101 C 
HETATM    2  O2  UNL     1       2.049 -23.416  28.692  1.00  0.00    -0.329 OA
HETATM    3  C12 UNL     1       1.063 -22.521  29.010  1.00  0.00     0.159 C 
HETATM    4  C16 UNL     1       0.714 -21.544  27.899  1.00  0.00     0.082 C 
HETATM    5  C17 UNL     1       1.779 -21.732  26.806  1.00  0.00     0.132 C 
HETATM    6  C18 UNL     1       1.570 -23.207  26.382  1.00  0.00     0.077 C 
ENDROOT
BRANCH   6   7
HETATM    7  C19 UNL     1       2.234 -23.347  25.044  1.00  0.00     0.041 C 
BRANCH   7   8
HETATM    8  C20 UNL     1       1.343 -23.762  23.916  1.00  0.00     0.234 C 
BRANCH   8   9
HETATM    9  N1  UNL     1       0.091 -24.287  24.442  1.00  0.00    -0.066 N 
ATOM     10  H12 UNL     1      -0.021 -25.269  24.189  1.00  0.00     0.278 HD
ATOM     11  H11 UNL     1       0.137 -24.375  25.457  1.00  0.00     0.278 HD
BRANCH   9  12
HETATM   12  C21 UNL     1      -1.048 -23.540  24.057  1.00  0.00     0.130 C 
HETATM   13  C22 UNL     1      -0.837 -22.229  23.337  1.00  0.00     0.043 C 
HETATM   14  C23 UNL     1      -1.953 -21.382  23.902  1.00  0.00    -0.011 C 
HETATM   15  C24 UNL     1      -3.261 -22.030  23.524  1.00  0.00     0.010 C 
HETATM   16  C28 UNL     1      -1.866 -21.775  25.385  1.00  0.00     0.012 C 
HETATM   17  C25 UNL     1      -3.121 -23.399  24.198  1.00  0.00    -0.005 C 
HETATM   18  C26 UNL     1      -2.175 -24.307  23.395  1.00  0.00     0.044 C 
HETATM   19  C27 UNL     1      -2.024 -23.265  25.193  1.00  0.00     0.026 C 
ENDBRANCH   9  12
ENDBRANCH   8   9
ENDBRANCH   7   8
ENDBRANCH   6   7
BRANCH   1  20
HETATM   20  C10 UNL     1       1.601 -25.442  27.591  1.00  0.00     0.183 C 
HETATM   21  O1  UNL     1       0.466 -25.691  27.141  1.00  0.00    -0.290 OA
BRANCH  20  22
HETATM   22  C9  UNL     1       2.290 -26.595  28.145  1.00  0.00     0.071 C 
HETATM   23  C7  UNL     1       1.923 -26.847  29.620  1.00  0.00    -0.026 C 
HETATM   24  C2  UNL     1       2.750 -28.138  29.793  1.00  0.00    -0.036 C 
HETATM   25  C6  UNL     1       0.546 -27.399  29.785  1.00  0.00     0.011 C 
HETATM   26  C8  UNL     1       2.316 -25.769  30.522  1.00  0.00     0.016 C 
HETATM   27  C1  UNL     1       2.568 -28.721  31.172  1.00  0.00     0.016 C 
HETATM   28  C3  UNL     1       4.185 -27.973  29.473  1.00  0.00     0.016 C 
HETATM   29  C4  UNL     1       1.959 -28.926  28.748  1.00  0.00    -0.005 C 
HETATM   30  C5  UNL     1       0.613 -28.902  29.455  1.00  0.00     0.006 C 
HETATM   31  C29 UNL     1       1.886 -27.946  27.595  1.00  0.00     0.018 C 
ENDBRANCH  20  22
ENDBRANCH   1  20
BRANCH   5  32
HETATM   32  O6  UNL     1       1.520 -20.887  25.755  1.00  0.00    -0.395 OA
ATOM     33  H6  UNL     1       1.692 -21.333  24.934  1.00  0.00     0.210 HD
ENDBRANCH   5  32
BRANCH   3  34
HETATM   34  C13 UNL     1      -0.183 -23.276  29.367  1.00  0.00     0.076 C 
BRANCH  34  35
HETATM   35  C14 UNL     1      -1.473 -22.553  29.079  1.00  0.00     0.167 C 
BRANCH  35  36
HETATM   36  O3  UNL     1      -1.741 -21.648  30.147  1.00  0.00    -0.401 OA
ATOM     37  H3  UNL     1      -2.491 -21.114  29.915  1.00  0.00     0.209 HD
ENDBRANCH  35  36
ENDBRANCH  34  35
ENDBRANCH   3  34
BRANCH   3  38
HETATM   38  C15 UNL     1       1.511 -21.767  30.227  1.00  0.00     0.210 C 
HETATM   39  O4  UNL     1       2.274 -22.218  31.106  1.00  0.00    -0.646 OA
HETATM   40  O5  UNL     1       1.051 -20.476  30.398  1.00  0.00    -0.646 OA
ENDBRANCH   3  38
TORSDOF 11
ENDMDL
