MODEL 1
REMARK VINA RESULT: -9.418098859      0.000      0.000
REMARK  11 active torsions:
REMARK  status: ('A' for Active; 'I' for Inactive)
REMARK    1  A    between atoms: C2_2  and  C3_3 
REMARK    2  A    between atoms: C3_3  and  C4_4 
REMARK    3  A    between atoms: C4_4  and  C5_5 
REMARK    4  A    between atoms: C5_5  and  C6_6 
REMARK    5  A    between atoms: C6_6  and  C7_7 
REMARK    6  A    between atoms: C7_7  and  C8_8 
REMARK    7  A    between atoms: C8_8  and  N1_9 
REMARK       I    between atoms: N1_9  and  C9_11 
REMARK    8  A    between atoms: C9_11  and  C10_13 
REMARK    9  A    between atoms: C16_19  and  O2_20 
REMARK   10  A    between atoms: C20_25  and  O3_26 
REMARK   11  A    between atoms: C21_28  and  O4_29 
ROOT
HETATM    1  C10 UNL     1       3.986 -16.841  23.463  1.00  0.00     0.083 C 
HETATM    2  C11 UNL     1       5.376 -16.240  23.313  1.00  0.00     0.015 C 
HETATM    3  C12 UNL     1       5.335 -14.727  23.196  1.00  0.00     0.011 C 
HETATM    4  C13 UNL     1       4.508 -14.240  22.065  1.00  0.00    -0.029 A 
HETATM    5  C14 UNL     1       5.181 -14.118  20.735  1.00  0.00     0.016 C 
HETATM    6  C15 UNL     1       3.194 -13.599  22.281  1.00  0.00     0.033 A 
HETATM    7  C16 UNL     1       2.454 -12.855  21.247  1.00  0.00     0.126 C 
HETATM    8  C17 UNL     1       1.439 -11.888  21.874  1.00  0.00     0.071 C 
HETATM    9  C18 UNL     1       0.114 -12.527  22.118  1.00  0.00     0.073 A 
HETATM   10  C19 UNL     1      -0.985 -11.745  21.439  1.00  0.00     0.073 C 
HETATM   11  C20 UNL     1      -2.346 -12.329  21.685  1.00  0.00     0.149 C 
HETATM   12  C21 UNL     1      -2.628 -12.543  23.137  1.00  0.00     0.147 C 
HETATM   13  C22 UNL     1      -1.483 -12.081  23.973  1.00  0.00     0.045 C 
HETATM   14  C23 UNL     1      -0.183 -12.713  23.609  1.00  0.00     0.059 A 
HETATM   15  C24 UNL     1      -0.213 -14.203  23.330  1.00  0.00     0.199 A 
HETATM   16  O5  UNL     1       0.035 -13.898  21.996  1.00  0.00    -0.366 OA
HETATM   17  C25 UNL     1       0.853 -14.875  24.070  1.00  0.00     0.156 C 
HETATM   18  O6  UNL     1       1.182 -14.392  25.160  1.00  0.00    -0.295 OA
HETATM   19  C26 UNL     1       1.583 -16.095  23.626  1.00  0.00     0.087 C 
HETATM   20  C27 UNL     1       3.028 -15.704  23.487  1.00  0.00     0.015 C 
HETATM   21  C28 UNL     1       3.172 -15.027  22.129  1.00  0.00    -0.025 A 
HETATM   22  C29 UNL     1       2.932 -15.841  20.941  1.00  0.00     0.017 C 
ENDROOT
BRANCH   1  23
HETATM   23  C9  UNL     1       3.892 -17.725  24.642  1.00  0.00     0.222 C 
HETATM   24  N1  UNL     1       3.452 -19.051  24.535  1.00  0.00    -0.361 N 
ATOM     25  H1  UNL     1       3.197 -19.398  23.611  1.00  0.00     0.162 HD
HETATM   26  O1  UNL     1       4.217 -17.257  25.760  1.00  0.00    -0.273 OA
BRANCH  24  27
HETATM   27  C8  UNL     1       3.339 -19.953  25.650  1.00  0.00     0.122 C 
BRANCH  27  28
HETATM   28  C7  UNL     1       2.075 -20.744  25.687  1.00  0.00     0.020 C 
BRANCH  28  29
HETATM   29  C6  UNL     1       2.281 -22.025  24.912  1.00  0.00     0.002 C 
BRANCH  29  30
HETATM   30  C5  UNL     1       3.599 -22.617  25.296  1.00  0.00     0.000 C 
BRANCH  30  31
HETATM   31  C4  UNL     1       4.544 -22.770  24.133  1.00  0.00     0.000 C 
BRANCH  31  32
HETATM   32  C3  UNL     1       5.864 -22.075  24.388  1.00  0.00    -0.000 C 
BRANCH  32  33
HETATM   33  C2  UNL     1       6.113 -21.081  23.293  1.00  0.00    -0.005 C 
HETATM   34  C1  UNL     1       6.988 -19.955  23.769  1.00  0.00     0.005 C 
ENDBRANCH  32  33
ENDBRANCH  31  32
ENDBRANCH  30  31
ENDBRANCH  29  30
ENDBRANCH  28  29
ENDBRANCH  27  28
ENDBRANCH  24  27
ENDBRANCH   1  23
BRANCH   7  35
HETATM   35  O2  UNL     1       3.384 -12.128  20.479  1.00  0.00    -0.395 OA
ATOM     36  H2  UNL     1       3.864 -12.743  19.936  1.00  0.00     0.210 HD
ENDBRANCH   7  35
BRANCH  12  37
HETATM   37  O4  UNL     1      -3.774 -11.821  23.544  1.00  0.00    -0.393 OA
ATOM     38  H4  UNL     1      -4.564 -12.198  23.172  1.00  0.00     0.210 HD
ENDBRANCH  12  37
BRANCH  11  39
HETATM   39  O3  UNL     1      -3.298 -11.444  21.177  1.00  0.00    -0.393 OA
ATOM     40  H3  UNL     1      -3.463 -11.674  20.271  1.00  0.00     0.210 HD
ENDBRANCH  11  39
TORSDOF 11
ENDMDL
MODEL 2
REMARK VINA RESULT: -9.292301250      1.293      2.614
REMARK  11 active torsions:
REMARK  status: ('A' for Active; 'I' for Inactive)
REMARK    1  A    between atoms: C2_2  and  C3_3 
REMARK    2  A    between atoms: C3_3  and  C4_4 
REMARK    3  A    between atoms: C4_4  and  C5_5 
REMARK    4  A    between atoms: C5_5  and  C6_6 
REMARK    5  A    between atoms: C6_6  and  C7_7 
REMARK    6  A    between atoms: C7_7  and  C8_8 
REMARK    7  A    between atoms: C8_8  and  N1_9 
REMARK       I    between atoms: N1_9  and  C9_11 
REMARK    8  A    between atoms: C9_11  and  C10_13 
REMARK    9  A    between atoms: C16_19  and  O2_20 
REMARK   10  A    between atoms: C20_25  and  O3_26 
REMARK   11  A    between atoms: C21_28  and  O4_29 
ROOT
HETATM    1  C10 UNL     1       4.024 -16.770  23.425  1.00  0.00     0.083 C 
HETATM    2  C11 UNL     1       5.409 -16.155  23.295  1.00  0.00     0.015 C 
HETATM    3  C12 UNL     1       5.356 -14.640  23.202  1.00  0.00     0.011 C 
HETATM    4  C13 UNL     1       4.533 -14.143  22.071  1.00  0.00    -0.029 A 
HETATM    5  C14 UNL     1       5.216 -13.994  20.749  1.00  0.00     0.016 C 
HETATM    6  C15 UNL     1       3.212 -13.517  22.287  1.00  0.00     0.033 A 
HETATM    7  C16 UNL     1       2.473 -12.763  21.259  1.00  0.00     0.126 C 
HETATM    8  C17 UNL     1       1.445 -11.815  21.893  1.00  0.00     0.071 C 
HETATM    9  C18 UNL     1       0.124 -12.469  22.115  1.00  0.00     0.073 A 
HETATM   10  C19 UNL     1      -0.977 -11.687  21.440  1.00  0.00     0.073 C 
HETATM   11  C20 UNL     1      -2.334 -12.286  21.665  1.00  0.00     0.149 C 
HETATM   12  C21 UNL     1      -2.626 -12.526  23.111  1.00  0.00     0.147 C 
HETATM   13  C22 UNL     1      -1.492 -12.067  23.963  1.00  0.00     0.045 C 
HETATM   14  C23 UNL     1      -0.183 -12.682  23.600  1.00  0.00     0.059 A 
HETATM   15  C24 UNL     1      -0.198 -14.167  23.298  1.00  0.00     0.199 A 
HETATM   16  O5  UNL     1       0.058 -13.839  21.971  1.00  0.00    -0.366 OA
HETATM   17  C25 UNL     1       0.868 -14.841  24.036  1.00  0.00     0.156 C 
HETATM   18  O6  UNL     1       1.184 -14.373  25.136  1.00  0.00    -0.295 OA
HETATM   19  C26 UNL     1       1.613 -16.048  23.579  1.00  0.00     0.087 C 
HETATM   20  C27 UNL     1       3.055 -15.642  23.458  1.00  0.00     0.015 C 
HETATM   21  C28 UNL     1       3.204 -14.943  22.112  1.00  0.00    -0.025 A 
HETATM   22  C29 UNL     1       2.981 -15.739  20.910  1.00  0.00     0.017 C 
ENDROOT
BRANCH   1  23
HETATM   23  C9  UNL     1       3.927 -17.673  24.589  1.00  0.00     0.222 C 
HETATM   24  N1  UNL     1       3.559 -19.018  24.449  1.00  0.00    -0.361 N 
ATOM     25  H1  UNL     1       3.358 -19.365  23.511  1.00  0.00     0.162 HD
HETATM   26  O1  UNL     1       4.185 -17.205  25.724  1.00  0.00    -0.273 OA
BRANCH  24  27
HETATM   27  C8  UNL     1       3.448 -19.939  25.548  1.00  0.00     0.122 C 
BRANCH  27  28
HETATM   28  C7  UNL     1       3.227 -21.360  25.152  1.00  0.00     0.020 C 
BRANCH  28  29
HETATM   29  C6  UNL     1       2.118 -21.935  26.003  1.00  0.00     0.002 C 
BRANCH  29  30
HETATM   30  C5  UNL     1       0.917 -21.052  25.894  1.00  0.00     0.000 C 
BRANCH  30  31
HETATM   31  C4  UNL     1       0.062 -21.055  27.134  1.00  0.00     0.000 C 
BRANCH  31  32
HETATM   32  C3  UNL     1       0.860 -21.425  28.365  1.00  0.00    -0.000 C 
BRANCH  32  33
HETATM   33  C2  UNL     1       0.857 -20.266  29.317  1.00  0.00    -0.005 C 
HETATM   34  C1  UNL     1      -0.461 -20.153  30.032  1.00  0.00     0.005 C 
ENDBRANCH  32  33
ENDBRANCH  31  32
ENDBRANCH  30  31
ENDBRANCH  29  30
ENDBRANCH  28  29
ENDBRANCH  27  28
ENDBRANCH  24  27
ENDBRANCH   1  23
BRANCH   7  35
HETATM   35  O2  UNL     1       3.404 -12.016  20.509  1.00  0.00    -0.395 OA
ATOM     36  H2  UNL     1       2.976 -11.220  20.216  1.00  0.00     0.210 HD
ENDBRANCH   7  35
BRANCH  12  37
HETATM   37  O4  UNL     1      -3.782 -11.821  23.520  1.00  0.00    -0.393 OA
ATOM     38  H4  UNL     1      -3.560 -11.127  24.131  1.00  0.00     0.210 HD
ENDBRANCH  12  37
BRANCH  11  39
HETATM   39  O3  UNL     1      -3.290 -11.402  21.164  1.00  0.00    -0.393 OA
ATOM     40  H3  UNL     1      -3.946 -11.262  21.836  1.00  0.00     0.210 HD
ENDBRANCH  11  39
TORSDOF 11
ENDMDL
MODEL 3
REMARK VINA RESULT: -9.161457432      0.973      1.901
REMARK  11 active torsions:
REMARK  status: ('A' for Active; 'I' for Inactive)
REMARK    1  A    between atoms: C2_2  and  C3_3 
REMARK    2  A    between atoms: C3_3  and  C4_4 
REMARK    3  A    between atoms: C4_4  and  C5_5 
REMARK    4  A    between atoms: C5_5  and  C6_6 
REMARK    5  A    between atoms: C6_6  and  C7_7 
REMARK    6  A    between atoms: C7_7  and  C8_8 
REMARK    7  A    between atoms: C8_8  and  N1_9 
REMARK       I    between atoms: N1_9  and  C9_11 
REMARK    8  A    between atoms: C9_11  and  C10_13 
REMARK    9  A    between atoms: C16_19  and  O2_20 
REMARK   10  A    between atoms: C20_25  and  O3_26 
REMARK   11  A    between atoms: C21_28  and  O4_29 
ROOT
HETATM    1  C10 UNL     1       4.153 -16.805  23.248  1.00  0.00     0.083 C 
HETATM    2  C11 UNL     1       5.528 -16.167  23.118  1.00  0.00     0.015 C 
HETATM    3  C12 UNL     1       5.452 -14.652  23.071  1.00  0.00     0.011 C 
HETATM    4  C13 UNL     1       4.608 -14.133  21.967  1.00  0.00    -0.029 A 
HETATM    5  C14 UNL     1       5.272 -13.936  20.640  1.00  0.00     0.016 C 
HETATM    6  C15 UNL     1       3.282 -13.532  22.217  1.00  0.00     0.033 A 
HETATM    7  C16 UNL     1       2.519 -12.759  21.222  1.00  0.00     0.126 C 
HETATM    8  C17 UNL     1       1.487 -11.845  21.897  1.00  0.00     0.071 C 
HETATM    9  C18 UNL     1       0.178 -12.523  22.117  1.00  0.00     0.073 A 
HETATM   10  C19 UNL     1      -0.943 -11.737  21.479  1.00  0.00     0.073 C 
HETATM   11  C20 UNL     1      -2.289 -12.362  21.704  1.00  0.00     0.149 C 
HETATM   12  C21 UNL     1      -2.558 -12.648  23.147  1.00  0.00     0.147 C 
HETATM   13  C22 UNL     1      -1.419 -12.198  23.997  1.00  0.00     0.045 C 
HETATM   14  C23 UNL     1      -0.107 -12.783  23.599  1.00  0.00     0.059 A 
HETATM   15  C24 UNL     1      -0.105 -14.259  23.253  1.00  0.00     0.199 A 
HETATM   16  O5  UNL     1       0.128 -13.889  21.933  1.00  0.00    -0.366 OA
HETATM   17  C25 UNL     1       0.979 -14.940  23.957  1.00  0.00     0.156 C 
HETATM   18  O6  UNL     1       1.304 -14.500  25.066  1.00  0.00    -0.295 OA
HETATM   19  C26 UNL     1       1.734 -16.123  23.455  1.00  0.00     0.087 C 
HETATM   20  C27 UNL     1       3.169 -15.693  23.327  1.00  0.00     0.015 C 
HETATM   21  C28 UNL     1       3.291 -14.952  22.001  1.00  0.00    -0.025 A 
HETATM   22  C29 UNL     1       3.063 -15.716  20.778  1.00  0.00     0.017 C 
ENDROOT
BRANCH   1  23
HETATM   23  C9  UNL     1       4.084 -17.744  24.386  1.00  0.00     0.222 C 
HETATM   24  N1  UNL     1       3.936 -19.124  24.194  1.00  0.00    -0.361 N 
ATOM     25  H1  UNL     1       3.878 -19.472  23.237  1.00  0.00     0.162 HD
HETATM   26  O1  UNL     1       4.161 -17.273  25.546  1.00  0.00    -0.273 OA
BRANCH  24  27
HETATM   27  C8  UNL     1       3.862 -20.081  25.266  1.00  0.00     0.122 C 
BRANCH  27  28
HETATM   28  C7  UNL     1       2.477 -20.425  25.700  1.00  0.00     0.020 C 
BRANCH  28  29
HETATM   29  C6  UNL     1       2.406 -21.912  25.963  1.00  0.00     0.002 C 
BRANCH  29  30
HETATM   30  C5  UNL     1       3.431 -22.601  25.122  1.00  0.00     0.000 C 
BRANCH  30  31
HETATM   31  C4  UNL     1       2.834 -23.531  24.098  1.00  0.00     0.000 C 
BRANCH  31  32
HETATM   32  C3  UNL     1       1.447 -23.987  24.497  1.00  0.00    -0.000 C 
BRANCH  32  33
HETATM   33  C2  UNL     1       0.516 -23.793  23.337  1.00  0.00    -0.005 C 
HETATM   34  C1  UNL     1      -0.395 -22.619  23.562  1.00  0.00     0.005 C 
ENDBRANCH  32  33
ENDBRANCH  31  32
ENDBRANCH  30  31
ENDBRANCH  29  30
ENDBRANCH  28  29
ENDBRANCH  27  28
ENDBRANCH  24  27
ENDBRANCH   1  23
BRANCH   7  35
HETATM   35  O2  UNL     1       3.429 -11.977  20.483  1.00  0.00    -0.395 OA
ATOM     36  H2  UNL     1       3.905 -12.552  19.896  1.00  0.00     0.210 HD
ENDBRANCH   7  35
BRANCH  12  37
HETATM   37  O4  UNL     1      -3.717 -11.971  23.591  1.00  0.00    -0.393 OA
ATOM     38  H4  UNL     1      -3.611 -11.661  24.483  1.00  0.00     0.210 HD
ENDBRANCH  12  37
BRANCH  11  39
HETATM   39  O3  UNL     1      -3.263 -11.476  21.242  1.00  0.00    -0.393 OA
ATOM     40  H3  UNL     1      -2.826 -10.697  20.919  1.00  0.00     0.210 HD
ENDBRANCH  11  39
TORSDOF 11
ENDMDL
MODEL 4
REMARK VINA RESULT: -8.596564411      2.132      3.561
REMARK  11 active torsions:
REMARK  status: ('A' for Active; 'I' for Inactive)
REMARK    1  A    between atoms: C2_2  and  C3_3 
REMARK    2  A    between atoms: C3_3  and  C4_4 
REMARK    3  A    between atoms: C4_4  and  C5_5 
REMARK    4  A    between atoms: C5_5  and  C6_6 
REMARK    5  A    between atoms: C6_6  and  C7_7 
REMARK    6  A    between atoms: C7_7  and  C8_8 
REMARK    7  A    between atoms: C8_8  and  N1_9 
REMARK       I    between atoms: N1_9  and  C9_11 
REMARK    8  A    between atoms: C9_11  and  C10_13 
REMARK    9  A    between atoms: C16_19  and  O2_20 
REMARK   10  A    between atoms: C20_25  and  O3_26 
REMARK   11  A    between atoms: C21_28  and  O4_29 
ROOT
HETATM    1  C10 UNL     1       3.521 -16.537  22.386  1.00  0.00     0.083 C 
HETATM    2  C11 UNL     1       3.360 -16.996  20.945  1.00  0.00     0.015 C 
HETATM    3  C12 UNL     1       2.708 -15.935  20.077  1.00  0.00     0.011 C 
HETATM    4  C13 UNL     1       1.375 -15.503  20.566  1.00  0.00    -0.029 A 
HETATM    5  C14 UNL     1       0.195 -16.304  20.114  1.00  0.00     0.016 C 
HETATM    6  C15 UNL     1       1.166 -14.181  21.189  1.00  0.00     0.033 A 
HETATM    7  C16 UNL     1      -0.156 -13.582  21.443  1.00  0.00     0.126 C 
HETATM    8  C17 UNL     1      -0.060 -12.056  21.587  1.00  0.00     0.071 C 
HETATM    9  C18 UNL     1       0.210 -11.629  22.989  1.00  0.00     0.073 A 
HETATM   10  C19 UNL     1      -0.846 -10.660  23.463  1.00  0.00     0.073 C 
HETATM   11  C20 UNL     1      -0.599 -10.171  24.860  1.00  0.00     0.149 C 
HETATM   12  C21 UNL     1       0.781  -9.627  25.044  1.00  0.00     0.147 C 
HETATM   13  C22 UNL     1       1.546  -9.680  23.766  1.00  0.00     0.045 C 
HETATM   14  C23 UNL     1       1.614 -11.042  23.164  1.00  0.00     0.059 A 
HETATM   15  C24 UNL     1       1.882 -12.187  24.120  1.00  0.00     0.199 A 
HETATM   16  O5  UNL     1       0.574 -12.604  23.894  1.00  0.00    -0.366 OA
HETATM   17  C25 UNL     1       2.952 -13.036  23.600  1.00  0.00     0.156 C 
HETATM   18  O6  UNL     1       3.833 -12.493  22.923  1.00  0.00    -0.295 OA
HETATM   19  C26 UNL     1       3.076 -14.506  23.813  1.00  0.00     0.087 C 
HETATM   20  C27 UNL     1       3.007 -15.143  22.453  1.00  0.00     0.015 C 
HETATM   21  C28 UNL     1       1.531 -15.241  22.087  1.00  0.00    -0.025 A 
HETATM   22  C29 UNL     1       0.689 -16.109  22.904  1.00  0.00     0.017 C 
ENDROOT
BRANCH   1  23
HETATM   23  C9  UNL     1       4.913 -16.682  22.859  1.00  0.00     0.222 C 
HETATM   24  N1  UNL     1       5.311 -17.762  23.658  1.00  0.00    -0.361 N 
ATOM     25  H1  UNL     1       4.608 -18.458  23.908  1.00  0.00     0.162 HD
HETATM   26  O1  UNL     1       5.745 -15.804  22.527  1.00  0.00    -0.273 OA
BRANCH  24  27
HETATM   27  C8  UNL     1       6.650 -17.950  24.147  1.00  0.00     0.122 C 
BRANCH  27  28
HETATM   28  C7  UNL     1       7.190 -19.329  23.974  1.00  0.00     0.020 C 
BRANCH  28  29
HETATM   29  C6  UNL     1       6.239 -20.117  23.102  1.00  0.00     0.002 C 
BRANCH  29  30
HETATM   30  C5  UNL     1       5.813 -21.346  23.837  1.00  0.00     0.000 C 
BRANCH  30  31
HETATM   31  C4  UNL     1       4.490 -21.190  24.541  1.00  0.00     0.000 C 
BRANCH  31  32
HETATM   32  C3  UNL     1       3.911 -22.528  24.947  1.00  0.00    -0.000 C 
BRANCH  32  33
HETATM   33  C2  UNL     1       2.576 -22.306  25.596  1.00  0.00    -0.005 C 
HETATM   34  C1  UNL     1       2.321 -20.843  25.828  1.00  0.00     0.005 C 
ENDBRANCH  32  33
ENDBRANCH  31  32
ENDBRANCH  30  31
ENDBRANCH  29  30
ENDBRANCH  28  29
ENDBRANCH  27  28
ENDBRANCH  24  27
ENDBRANCH   1  23
BRANCH   7  35
HETATM   35  O2  UNL     1      -0.997 -13.901  20.358  1.00  0.00    -0.395 OA
ATOM     36  H2  UNL     1      -0.495 -13.809  19.558  1.00  0.00     0.210 HD
ENDBRANCH   7  35
BRANCH  12  37
HETATM   37  O4  UNL     1       0.742  -8.277  25.465  1.00  0.00    -0.393 OA
ATOM     38  H4  UNL     1       0.059  -8.141  26.112  1.00  0.00     0.210 HD
ENDBRANCH  12  37
BRANCH  11  39
HETATM   39  O3  UNL     1      -1.514  -9.154  25.134  1.00  0.00    -0.393 OA
ATOM     40  H3  UNL     1      -2.016  -9.406  25.900  1.00  0.00     0.210 HD
ENDBRANCH  11  39
TORSDOF 11
ENDMDL
MODEL 5
REMARK VINA RESULT: -8.203636214      7.412     12.368
REMARK  11 active torsions:
REMARK  status: ('A' for Active; 'I' for Inactive)
REMARK    1  A    between atoms: C2_2  and  C3_3 
REMARK    2  A    between atoms: C3_3  and  C4_4 
REMARK    3  A    between atoms: C4_4  and  C5_5 
REMARK    4  A    between atoms: C5_5  and  C6_6 
REMARK    5  A    between atoms: C6_6  and  C7_7 
REMARK    6  A    between atoms: C7_7  and  C8_8 
REMARK    7  A    between atoms: C8_8  and  N1_9 
REMARK       I    between atoms: N1_9  and  C9_11 
REMARK    8  A    between atoms: C9_11  and  C10_13 
REMARK    9  A    between atoms: C16_19  and  O2_20 
REMARK   10  A    between atoms: C20_25  and  O3_26 
REMARK   11  A    between atoms: C21_28  and  O4_29 
ROOT
HETATM    1  C10 UNL     1      -1.468 -22.358  27.416  1.00  0.00     0.083 C 
HETATM    2  C11 UNL     1      -0.784 -20.999  27.430  1.00  0.00     0.015 C 
HETATM    3  C12 UNL     1       0.684 -21.102  27.805  1.00  0.00     0.011 C 
HETATM    4  C13 UNL     1       0.917 -21.739  29.125  1.00  0.00    -0.029 A 
HETATM    5  C14 UNL     1       0.885 -20.845  30.324  1.00  0.00     0.016 C 
HETATM    6  C15 UNL     1       1.471 -23.103  29.244  1.00  0.00     0.033 A 
HETATM    7  C16 UNL     1       1.979 -23.686  30.498  1.00  0.00     0.126 C 
HETATM    8  C17 UNL     1       2.944 -24.849  30.222  1.00  0.00     0.071 C 
HETATM    9  C18 UNL     1       2.242 -26.158  30.100  1.00  0.00     0.073 A 
HETATM   10  C19 UNL     1       2.813 -27.160  31.076  1.00  0.00     0.073 C 
HETATM   11  C20 UNL     1       2.162 -28.508  30.968  1.00  0.00     0.149 C 
HETATM   12  C21 UNL     1       2.155 -29.034  29.568  1.00  0.00     0.147 C 
HETATM   13  C22 UNL     1       2.836 -28.085  28.643  1.00  0.00     0.045 C 
HETATM   14  C23 UNL     1       2.267 -26.707  28.671  1.00  0.00     0.059 A 
HETATM   15  C24 UNL     1       0.755 -26.605  28.695  1.00  0.00     0.199 A 
HETATM   16  O5  UNL     1       0.867 -26.139  30.002  1.00  0.00    -0.366 OA
HETATM   17  C25 UNL     1       0.299 -25.653  27.685  1.00  0.00     0.156 C 
HETATM   18  O6  UNL     1       0.972 -25.552  26.652  1.00  0.00    -0.295 OA
HETATM   19  C26 UNL     1      -0.911 -24.789  27.787  1.00  0.00     0.087 C 
HETATM   20  C27 UNL     1      -0.426 -23.366  27.746  1.00  0.00     0.015 C 
HETATM   21  C28 UNL     1       0.040 -23.019  29.154  1.00  0.00    -0.025 A 
HETATM   22  C29 UNL     1      -0.966 -22.996  30.211  1.00  0.00     0.017 C 
ENDROOT
BRANCH   1  23
HETATM   23  C9  UNL     1      -2.162 -22.614  26.138  1.00  0.00     0.222 C 
HETATM   24  N1  UNL     1      -1.746 -23.627  25.263  1.00  0.00    -0.361 N 
ATOM     25  H1  UNL     1      -0.943 -24.194  25.534  1.00  0.00     0.162 HD
HETATM   26  O1  UNL     1      -3.147 -21.893  25.845  1.00  0.00    -0.273 OA
BRANCH  24  27
HETATM   27  C8  UNL     1      -2.384 -23.916  24.007  1.00  0.00     0.122 C 
BRANCH  27  28
HETATM   28  C7  UNL     1      -1.521 -23.711  22.808  1.00  0.00     0.020 C 
BRANCH  28  29
HETATM   29  C6  UNL     1      -0.202 -23.123  23.254  1.00  0.00     0.002 C 
BRANCH  29  30
HETATM   30  C5  UNL     1       0.863 -24.163  23.116  1.00  0.00     0.000 C 
BRANCH  30  31
HETATM   31  C4  UNL     1       2.072 -23.895  23.974  1.00  0.00     0.000 C 
BRANCH  31  32
HETATM   32  C3  UNL     1       1.901 -22.642  24.806  1.00  0.00    -0.000 C 
BRANCH  32  33
HETATM   33  C2  UNL     1       3.252 -22.157  25.242  1.00  0.00    -0.005 C 
HETATM   34  C1  UNL     1       3.305 -20.655  25.274  1.00  0.00     0.005 C 
ENDBRANCH  32  33
ENDBRANCH  31  32
ENDBRANCH  30  31
ENDBRANCH  29  30
ENDBRANCH  28  29
ENDBRANCH  27  28
ENDBRANCH  24  27
ENDBRANCH   1  23
BRANCH   7  35
HETATM   35  O2  UNL     1       2.653 -22.674  31.211  1.00  0.00    -0.395 OA
ATOM     36  H2  UNL     1       3.492 -23.019  31.492  1.00  0.00     0.210 HD
ENDBRANCH   7  35
BRANCH  12  37
HETATM   37  O4  UNL     1       2.833 -30.272  29.488  1.00  0.00    -0.393 OA
ATOM     38  H4  UNL     1       3.137 -30.438  28.603  1.00  0.00     0.210 HD
ENDBRANCH  12  37
BRANCH  11  39
HETATM   39  O3  UNL     1       2.874 -29.401  31.770  1.00  0.00    -0.393 OA
ATOM     40  H3  UNL     1       2.264 -30.046  32.109  1.00  0.00     0.210 HD
ENDBRANCH  11  39
TORSDOF 11
ENDMDL
