MODEL 1
REMARK VINA RESULT: -9.085345397      0.000      0.000
REMARK  12 active torsions:
REMARK  status: ('A' for Active; 'I' for Inactive)
REMARK    1  A    between atoms: C2_2  and  C3_3 
REMARK    2  A    between atoms: C3_3  and  O1_4 
REMARK    3  A    between atoms: C3_3  and  C4_6 
REMARK    4  A    between atoms: C4_6  and  N1_7 
REMARK    5  A    between atoms: C4_6  and  C27_39 
REMARK       I    between atoms: N1_7  and  C5_9 
REMARK    6  A    between atoms: C5_9  and  C6_11 
REMARK    7  A    between atoms: C6_11  and  C7_12 
REMARK    8  A    between atoms: C22_27  and  O3_28 
REMARK    9  A    between atoms: C22_27  and  C23_30 
REMARK   10  A    between atoms: C23_30  and  O4_31 
REMARK   11  A    between atoms: C23_30  and  C24_33 
REMARK   12  A    between atoms: C24_33  and  O5_34 
ROOT
HETATM    1  C7  UNL     1       3.377 -15.871  21.985  1.00  0.00     0.131 C 
HETATM    2  C8  UNL     1       2.685 -16.345  23.277  1.00  0.00     0.040 C 
HETATM    3  C9  UNL     1       2.032 -15.092  23.655  1.00  0.00     0.023 C 
HETATM    4  C10 UNL     1       0.873 -14.990  24.513  1.00  0.00     0.008 C 
HETATM    5  C11 UNL     1       0.796 -13.500  24.915  1.00  0.00     0.010 C 
HETATM    6  C12 UNL     1       0.965 -12.590  23.698  1.00  0.00    -0.033 C 
HETATM    7  C13 UNL     1       2.283 -11.896  23.844  1.00  0.00     0.016 C 
HETATM    8  C14 UNL     1       0.862 -13.334  22.409  1.00  0.00     0.029 C 
HETATM    9  C15 UNL     1       1.002 -12.415  21.254  1.00  0.00     0.009 C 
HETATM   10  C16 UNL     1       0.575 -10.991  21.494  1.00  0.00     0.013 C 
HETATM   11  C17 UNL     1      -0.509 -10.871  22.508  1.00  0.00    -0.006 C 
HETATM   12  C18 UNL     1      -1.727 -11.553  21.855  1.00  0.00     0.019 C 
HETATM   13  C19 UNL     1      -0.221 -11.638  23.776  1.00  0.00     0.005 C 
HETATM   14  C20 UNL     1      -0.116 -10.659  24.891  1.00  0.00     0.009 C 
HETATM   15  C21 UNL     1      -1.052  -9.550  24.452  1.00  0.00     0.042 C 
HETATM   16  C22 UNL     1      -0.919  -9.525  22.933  1.00  0.00     0.093 C 
HETATM   17  C25 UNL     1       1.612 -14.600  22.268  1.00  0.00     0.066 C 
HETATM   18  C26 UNL     1       0.793 -15.642  21.541  1.00  0.00     0.047 C 
HETATM   19  O6  UNL     1       2.851 -14.592  21.698  1.00  0.00    -0.374 OA
ENDROOT
BRANCH   1  20
HETATM   20  C6  UNL     1       4.855 -15.764  22.330  1.00  0.00     0.135 C 
BRANCH  20  21
HETATM   21  C5  UNL     1       5.219 -16.857  23.252  1.00  0.00     0.224 C 
HETATM   22  N1  UNL     1       5.100 -18.228  22.910  1.00  0.00    -0.328 N 
ATOM     23  H1  UNL     1       4.746 -18.471  21.985  1.00  0.00     0.168 HD
HETATM   24  O2  UNL     1       5.655 -16.575  24.392  1.00  0.00    -0.273 OA
BRANCH  22  25
HETATM   25  C4  UNL     1       5.463 -19.307  23.826  1.00  0.00     0.048 C 
BRANCH  25  26
HETATM   26  C3  UNL     1       6.822 -19.745  23.557  1.00  0.00     0.087 C 
BRANCH  26  27
HETATM   27  C2  UNL     1       8.072 -19.559  24.212  1.00  0.00     0.028 C 
HETATM   28  C1  UNL     1       8.689 -18.524  24.675  1.00  0.00     0.014 C 
ENDBRANCH  26  27
BRANCH  26  29
HETATM   29  O1  UNL     1       6.889 -20.487  22.447  1.00  0.00    -0.359 OA
ATOM     30  H1  UNL     1       6.173 -20.346  21.840  1.00  0.00     0.217 HD
ENDBRANCH  26  29
ENDBRANCH  25  26
BRANCH  25  31
HETATM   31  C27 UNL     1       4.387 -20.243  24.181  1.00  0.00     0.030 C 
HETATM   32  C28 UNL     1       4.893 -21.614  24.597  1.00  0.00     0.016 C 
HETATM   33  C29 UNL     1       3.543 -19.718  25.353  1.00  0.00     0.016 C 
ENDBRANCH  25  31
ENDBRANCH  22  25
ENDBRANCH  20  21
ENDBRANCH   1  20
BRANCH  16  34
HETATM   34  O3  UNL     1      -2.249  -9.220  22.493  1.00  0.00    -0.386 OA
ATOM     35  H3  UNL     1      -2.782  -8.889  23.206  1.00  0.00     0.210 HD
ENDBRANCH  16  34
BRANCH  16  36
HETATM   36  C23 UNL     1      -0.135  -8.348  22.502  1.00  0.00     0.176 C 
BRANCH  36  37
HETATM   37  O4  UNL     1       0.012  -7.321  23.429  1.00  0.00    -0.390 OA
ATOM     38  H4  UNL     1      -0.526  -6.549  23.299  1.00  0.00     0.210 HD
ENDBRANCH  36  37
BRANCH  36  39
HETATM   39  C24 UNL     1      -0.661  -7.657  21.283  1.00  0.00     0.198 C 
BRANCH  39  40
HETATM   40  O5  UNL     1      -1.412  -6.552  21.472  1.00  0.00    -0.398 OA
ATOM     41  H5  UNL     1      -1.261  -5.817  20.889  1.00  0.00     0.209 HD
ENDBRANCH  39  40
ENDBRANCH  36  39
ENDBRANCH  16  36
TORSDOF 12
ENDMDL
MODEL 2
REMARK VINA RESULT: -8.894732572      1.210      2.169
REMARK  12 active torsions:
REMARK  status: ('A' for Active; 'I' for Inactive)
REMARK    1  A    between atoms: C2_2  and  C3_3 
REMARK    2  A    between atoms: C3_3  and  O1_4 
REMARK    3  A    between atoms: C3_3  and  C4_6 
REMARK    4  A    between atoms: C4_6  and  N1_7 
REMARK    5  A    between atoms: C4_6  and  C27_39 
REMARK       I    between atoms: N1_7  and  C5_9 
REMARK    6  A    between atoms: C5_9  and  C6_11 
REMARK    7  A    between atoms: C6_11  and  C7_12 
REMARK    8  A    between atoms: C22_27  and  O3_28 
REMARK    9  A    between atoms: C22_27  and  C23_30 
REMARK   10  A    between atoms: C23_30  and  O4_31 
REMARK   11  A    between atoms: C23_30  and  C24_33 
REMARK   12  A    between atoms: C24_33  and  O5_34 
ROOT
HETATM    1  C7  UNL     1       2.449 -15.621  20.939  1.00  0.00     0.131 C 
HETATM    2  C8  UNL     1       1.804 -16.221  22.203  1.00  0.00     0.040 C 
HETATM    3  C9  UNL     1       1.304 -14.988  22.808  1.00  0.00     0.023 C 
HETATM    4  C10 UNL     1       0.223 -14.915  23.764  1.00  0.00     0.008 C 
HETATM    5  C11 UNL     1       0.320 -13.501  24.380  1.00  0.00     0.010 C 
HETATM    6  C12 UNL     1       0.492 -12.437  23.295  1.00  0.00    -0.033 C 
HETATM    7  C13 UNL     1       1.878 -11.889  23.429  1.00  0.00     0.016 C 
HETATM    8  C14 UNL     1       0.228 -12.968  21.926  1.00  0.00     0.029 C 
HETATM    9  C15 UNL     1       0.376 -11.903  20.906  1.00  0.00     0.009 C 
HETATM   10  C16 UNL     1       0.108 -10.499  21.381  1.00  0.00     0.013 C 
HETATM   11  C17 UNL     1      -0.887 -10.439  22.488  1.00  0.00    -0.006 C 
HETATM   12  C18 UNL     1      -2.208 -10.908  21.848  1.00  0.00     0.019 C 
HETATM   13  C19 UNL     1      -0.588 -11.409  23.605  1.00  0.00     0.005 C 
HETATM   14  C20 UNL     1      -0.311 -10.620  24.836  1.00  0.00     0.009 C 
HETATM   15  C21 UNL     1      -1.162  -9.381  24.639  1.00  0.00     0.042 C 
HETATM   16  C22 UNL     1      -1.133  -9.142  23.132  1.00  0.00     0.093 C 
HETATM   17  C25 UNL     1       0.839 -14.259  21.544  1.00  0.00     0.066 C 
HETATM   18  C26 UNL     1      -0.126 -15.106  20.747  1.00  0.00     0.047 C 
HETATM   19  O6  UNL     1       2.031 -14.273  20.881  1.00  0.00    -0.374 OA
ENDROOT
BRANCH   1  20
HETATM   20  C6  UNL     1       3.949 -15.695  21.172  1.00  0.00     0.135 C 
BRANCH  20  21
HETATM   21  C5  UNL     1       4.307 -17.059  21.606  1.00  0.00     0.224 C 
HETATM   22  N1  UNL     1       4.659 -17.376  22.943  1.00  0.00    -0.328 N 
ATOM     23  H1  UNL     1       4.667 -16.629  23.636  1.00  0.00     0.168 HD
HETATM   24  O2  UNL     1       4.304 -17.989  20.767  1.00  0.00    -0.273 OA
BRANCH  22  25
HETATM   25  C4  UNL     1       5.012 -18.730  23.369  1.00  0.00     0.048 C 
BRANCH  25  26
HETATM   26  C3  UNL     1       4.276 -19.074  24.573  1.00  0.00     0.087 C 
BRANCH  26  27
HETATM   27  C2  UNL     1       3.801 -20.295  25.129  1.00  0.00     0.028 C 
HETATM   28  C1  UNL     1       2.678 -20.660  25.650  1.00  0.00     0.014 C 
ENDBRANCH  26  27
BRANCH  26  29
HETATM   29  O1  UNL     1       3.995 -17.992  25.305  1.00  0.00    -0.359 OA
ATOM     30  H1  UNL     1       3.067 -17.835  25.430  1.00  0.00     0.217 HD
ENDBRANCH  26  29
ENDBRANCH  25  26
BRANCH  25  31
HETATM   31  C27 UNL     1       6.410 -19.130  23.156  1.00  0.00     0.030 C 
HETATM   32  C28 UNL     1       7.336 -18.707  24.284  1.00  0.00     0.016 C 
HETATM   33  C29 UNL     1       6.549 -20.655  23.029  1.00  0.00     0.016 C 
ENDBRANCH  25  31
ENDBRANCH  22  25
ENDBRANCH  20  21
ENDBRANCH   1  20
BRANCH  16  34
HETATM   34  O3  UNL     1      -2.454  -8.660  22.852  1.00  0.00    -0.386 OA
ATOM     35  H3  UNL     1      -3.107  -9.120  23.367  1.00  0.00     0.210 HD
ENDBRANCH  16  34
BRANCH  16  36
HETATM   36  C23 UNL     1      -0.270  -7.986  22.811  1.00  0.00     0.176 C 
BRANCH  36  37
HETATM   37  O4  UNL     1      -0.322  -6.904  23.684  1.00  0.00    -0.390 OA
ATOM     38  H4  UNL     1      -1.158  -6.462  23.768  1.00  0.00     0.210 HD
ENDBRANCH  36  37
BRANCH  36  39
HETATM   39  C24 UNL     1      -0.517  -7.373  21.468  1.00  0.00     0.198 C 
BRANCH  39  40
HETATM   40  O5  UNL     1      -1.557  -6.519  21.357  1.00  0.00    -0.398 OA
ATOM     41  H5  UNL     1      -2.429  -6.876  21.476  1.00  0.00     0.209 HD
ENDBRANCH  39  40
ENDBRANCH  36  39
ENDBRANCH  16  36
TORSDOF 12
ENDMDL
MODEL 3
REMARK VINA RESULT: -8.881904951      0.973      1.084
REMARK  12 active torsions:
REMARK  status: ('A' for Active; 'I' for Inactive)
REMARK    1  A    between atoms: C2_2  and  C3_3 
REMARK    2  A    between atoms: C3_3  and  O1_4 
REMARK    3  A    between atoms: C3_3  and  C4_6 
REMARK    4  A    between atoms: C4_6  and  N1_7 
REMARK    5  A    between atoms: C4_6  and  C27_39 
REMARK       I    between atoms: N1_7  and  C5_9 
REMARK    6  A    between atoms: C5_9  and  C6_11 
REMARK    7  A    between atoms: C6_11  and  C7_12 
REMARK    8  A    between atoms: C22_27  and  O3_28 
REMARK    9  A    between atoms: C22_27  and  C23_30 
REMARK   10  A    between atoms: C23_30  and  O4_31 
REMARK   11  A    between atoms: C23_30  and  C24_33 
REMARK   12  A    between atoms: C24_33  and  O5_34 
ROOT
HETATM    1  C7  UNL     1       4.491 -15.379  21.501  1.00  0.00     0.131 C 
HETATM    2  C8  UNL     1       3.616 -16.391  22.265  1.00  0.00     0.040 C 
HETATM    3  C9  UNL     1       2.594 -15.472  22.763  1.00  0.00     0.023 C 
HETATM    4  C10 UNL     1       1.258 -15.858  23.159  1.00  0.00     0.008 C 
HETATM    5  C11 UNL     1       0.705 -14.650  23.950  1.00  0.00     0.010 C 
HETATM    6  C12 UNL     1       0.964 -13.339  23.207  1.00  0.00    -0.033 C 
HETATM    7  C13 UNL     1       1.976 -12.574  24.002  1.00  0.00     0.016 C 
HETATM    8  C14 UNL     1       1.404 -13.556  21.799  1.00  0.00     0.029 C 
HETATM    9  C15 UNL     1       1.617 -12.264  21.104  1.00  0.00     0.009 C 
HETATM   10  C16 UNL     1       0.800 -11.105  21.610  1.00  0.00     0.013 C 
HETATM   11  C17 UNL     1      -0.513 -11.522  22.176  1.00  0.00    -0.006 C 
HETATM   12  C18 UNL     1      -1.298 -12.075  20.970  1.00  0.00     0.019 C 
HETATM   13  C19 UNL     1      -0.398 -12.658  23.164  1.00  0.00     0.005 C 
HETATM   14  C20 UNL     1      -0.847 -12.160  24.492  1.00  0.00     0.009 C 
HETATM   15  C21 UNL     1      -1.875 -11.108  24.124  1.00  0.00     0.042 C 
HETATM   16  C22 UNL     1      -1.346 -10.502  22.828  1.00  0.00     0.093 C 
HETATM   17  C25 UNL     1       2.456 -14.563  21.539  1.00  0.00     0.066 C 
HETATM   18  C26 UNL     1       2.153 -15.362  20.293  1.00  0.00     0.047 C 
HETATM   19  O6  UNL     1       3.760 -14.171  21.460  1.00  0.00    -0.374 OA
ENDROOT
BRANCH   1  20
HETATM   20  C6  UNL     1       5.744 -15.205  22.345  1.00  0.00     0.135 C 
BRANCH  20  21
HETATM   21  C5  UNL     1       5.854 -16.332  23.291  1.00  0.00     0.224 C 
HETATM   22  N1  UNL     1       5.768 -17.689  22.889  1.00  0.00    -0.328 N 
ATOM     23  H1  UNL     1       5.624 -17.898  21.901  1.00  0.00     0.168 HD
HETATM   24  O2  UNL     1       6.030 -16.094  24.508  1.00  0.00    -0.273 OA
BRANCH  22  25
HETATM   25  C4  UNL     1       5.879 -18.803  23.830  1.00  0.00     0.048 C 
BRANCH  25  26
HETATM   26  C3  UNL     1       7.194 -19.410  23.721  1.00  0.00     0.087 C 
BRANCH  26  27
HETATM   27  C2  UNL     1       8.432 -19.222  24.398  1.00  0.00     0.028 C 
HETATM   28  C1  UNL     1       9.110 -18.179  24.739  1.00  0.00     0.014 C 
ENDBRANCH  26  27
BRANCH  26  29
HETATM   29  O1  UNL     1       7.224 -20.352  22.774  1.00  0.00    -0.359 OA
ATOM     30  H1  UNL     1       7.250 -21.241  23.108  1.00  0.00     0.217 HD
ENDBRANCH  26  29
ENDBRANCH  25  26
BRANCH  25  31
HETATM   31  C27 UNL     1       4.658 -19.593  24.041  1.00  0.00     0.030 C 
HETATM   32  C28 UNL     1       4.933 -21.023  24.474  1.00  0.00     0.016 C 
HETATM   33  C29 UNL     1       3.764 -18.975  25.127  1.00  0.00     0.016 C 
ENDBRANCH  25  31
ENDBRANCH  22  25
ENDBRANCH  20  21
ENDBRANCH   1  20
BRANCH  16  34
HETATM   34  O3  UNL     1      -2.539 -10.242  22.077  1.00  0.00    -0.386 OA
ATOM     35  H3  UNL     1      -3.078  -9.585  22.500  1.00  0.00     0.210 HD
ENDBRANCH  16  34
BRANCH  16  36
HETATM   36  C23 UNL     1      -0.795  -9.153  23.077  1.00  0.00     0.176 C 
BRANCH  36  37
HETATM   37  O4  UNL     1      -1.449  -8.375  24.026  1.00  0.00    -0.390 OA
ATOM     38  H4  UNL     1      -1.981  -7.659  23.699  1.00  0.00     0.210 HD
ENDBRANCH  36  37
BRANCH  36  39
HETATM   39  C24 UNL     1      -0.734  -8.269  21.870  1.00  0.00     0.198 C 
BRANCH  39  40
HETATM   40  O5  UNL     1      -1.459  -7.131  21.899  1.00  0.00    -0.398 OA
ATOM     41  H5  UNL     1      -1.334  -6.516  21.185  1.00  0.00     0.209 HD
ENDBRANCH  39  40
ENDBRANCH  36  39
ENDBRANCH  16  36
TORSDOF 12
ENDMDL
MODEL 4
REMARK VINA RESULT: -8.612855953      1.454      2.496
REMARK  12 active torsions:
REMARK  status: ('A' for Active; 'I' for Inactive)
REMARK    1  A    between atoms: C2_2  and  C3_3 
REMARK    2  A    between atoms: C3_3  and  O1_4 
REMARK    3  A    between atoms: C3_3  and  C4_6 
REMARK    4  A    between atoms: C4_6  and  N1_7 
REMARK    5  A    between atoms: C4_6  and  C27_39 
REMARK       I    between atoms: N1_7  and  C5_9 
REMARK    6  A    between atoms: C5_9  and  C6_11 
REMARK    7  A    between atoms: C6_11  and  C7_12 
REMARK    8  A    between atoms: C22_27  and  O3_28 
REMARK    9  A    between atoms: C22_27  and  C23_30 
REMARK   10  A    between atoms: C23_30  and  O4_31 
REMARK   11  A    between atoms: C23_30  and  C24_33 
REMARK   12  A    between atoms: C24_33  and  O5_34 
ROOT
HETATM    1  C7  UNL     1       3.980 -15.681  21.082  1.00  0.00     0.131 C 
HETATM    2  C8  UNL     1       2.849 -16.713  21.245  1.00  0.00     0.040 C 
HETATM    3  C9  UNL     1       1.852 -15.856  21.882  1.00  0.00     0.023 C 
HETATM    4  C10 UNL     1       0.427 -16.099  21.876  1.00  0.00     0.008 C 
HETATM    5  C11 UNL     1      -0.149 -15.167  22.967  1.00  0.00     0.010 C 
HETATM    6  C12 UNL     1       0.415 -13.752  22.837  1.00  0.00    -0.033 C 
HETATM    7  C13 UNL     1       1.305 -13.521  24.019  1.00  0.00     0.016 C 
HETATM    8  C14 UNL     1       1.129 -13.536  21.546  1.00  0.00     0.029 C 
HETATM    9  C15 UNL     1       1.635 -12.146  21.445  1.00  0.00     0.009 C 
HETATM   10  C16 UNL     1       0.861 -11.110  22.215  1.00  0.00     0.013 C 
HETATM   11  C17 UNL     1      -0.583 -11.446  22.355  1.00  0.00    -0.006 C 
HETATM   12  C18 UNL     1      -1.137 -11.379  20.919  1.00  0.00     0.019 C 
HETATM   13  C19 UNL     1      -0.818 -12.858  22.836  1.00  0.00     0.005 C 
HETATM   14  C20 UNL     1      -1.491 -12.785  24.161  1.00  0.00     0.009 C 
HETATM   15  C21 UNL     1      -2.288 -11.499  24.061  1.00  0.00     0.042 C 
HETATM   16  C22 UNL     1      -1.419 -10.585  23.203  1.00  0.00     0.093 C 
HETATM   17  C25 UNL     1       2.092 -14.564  21.096  1.00  0.00     0.066 C 
HETATM   18  C26 UNL     1       1.986 -14.800  19.608  1.00  0.00     0.047 C 
HETATM   19  O6  UNL     1       3.418 -14.422  21.388  1.00  0.00    -0.374 OA
ENDROOT
BRANCH   1  20
HETATM   20  C6  UNL     1       5.026 -16.054  22.121  1.00  0.00     0.135 C 
BRANCH  20  21
HETATM   21  C5  UNL     1       5.006 -17.514  22.328  1.00  0.00     0.224 C 
HETATM   22  N1  UNL     1       5.112 -18.114  23.608  1.00  0.00    -0.328 N 
ATOM     23  H1  UNL     1       5.207 -17.510  24.424  1.00  0.00     0.168 HD
HETATM   24  O2  UNL     1       4.891 -18.271  21.336  1.00  0.00    -0.273 OA
BRANCH  22  25
HETATM   25  C4  UNL     1       5.091 -19.562  23.809  1.00  0.00     0.048 C 
BRANCH  25  26
HETATM   26  C3  UNL     1       4.061 -19.910  24.773  1.00  0.00     0.087 C 
BRANCH  26  27
HETATM   27  C2  UNL     1       3.418 -21.126  25.141  1.00  0.00     0.028 C 
HETATM   28  C1  UNL     1       3.725 -22.372  25.006  1.00  0.00     0.014 C 
ENDBRANCH  26  27
BRANCH  26  29
HETATM   29  O1  UNL     1       3.641 -18.840  25.453  1.00  0.00    -0.359 OA
ATOM     30  H1  UNL     1       4.102 -18.692  26.270  1.00  0.00     0.217 HD
ENDBRANCH  26  29
ENDBRANCH  25  26
BRANCH  25  31
HETATM   31  C27 UNL     1       6.394 -20.240  23.766  1.00  0.00     0.030 C 
HETATM   32  C28 UNL     1       6.741 -20.795  22.396  1.00  0.00     0.016 C 
HETATM   33  C29 UNL     1       7.539 -19.289  24.151  1.00  0.00     0.016 C 
ENDBRANCH  25  31
ENDBRANCH  22  25
ENDBRANCH  20  21
ENDBRANCH   1  20
BRANCH  16  34
HETATM   34  O3  UNL     1      -2.379  -9.858  22.424  1.00  0.00    -0.386 OA
ATOM     35  H3  UNL     1      -2.730 -10.391  21.721  1.00  0.00     0.210 HD
ENDBRANCH  16  34
BRANCH  16  36
HETATM   36  C23 UNL     1      -0.789  -9.539  24.036  1.00  0.00     0.176 C 
BRANCH  36  37
HETATM   37  O4  UNL     1      -1.233  -9.434  25.350  1.00  0.00    -0.390 OA
ATOM     38  H4  UNL     1      -0.566  -9.384  26.025  1.00  0.00     0.210 HD
ENDBRANCH  36  37
BRANCH  36  39
HETATM   39  C24 UNL     1      -0.921  -8.147  23.502  1.00  0.00     0.198 C 
BRANCH  39  40
HETATM   40  O5  UNL     1      -0.263  -7.856  22.360  1.00  0.00    -0.398 OA
ATOM     41  H5  UNL     1      -0.470  -7.032  21.935  1.00  0.00     0.209 HD
ENDBRANCH  39  40
ENDBRANCH  36  39
ENDBRANCH  16  36
TORSDOF 12
ENDMDL
MODEL 5
REMARK VINA RESULT: -8.459167246      1.372      1.864
REMARK  12 active torsions:
REMARK  status: ('A' for Active; 'I' for Inactive)
REMARK    1  A    between atoms: C2_2  and  C3_3 
REMARK    2  A    between atoms: C3_3  and  O1_4 
REMARK    3  A    between atoms: C3_3  and  C4_6 
REMARK    4  A    between atoms: C4_6  and  N1_7 
REMARK    5  A    between atoms: C4_6  and  C27_39 
REMARK       I    between atoms: N1_7  and  C5_9 
REMARK    6  A    between atoms: C5_9  and  C6_11 
REMARK    7  A    between atoms: C6_11  and  C7_12 
REMARK    8  A    between atoms: C22_27  and  O3_28 
REMARK    9  A    between atoms: C22_27  and  C23_30 
REMARK   10  A    between atoms: C23_30  and  O4_31 
REMARK   11  A    between atoms: C23_30  and  C24_33 
REMARK   12  A    between atoms: C24_33  and  O5_34 
ROOT
HETATM    1  C7  UNL     1       1.868 -16.014  21.366  1.00  0.00     0.131 C 
HETATM    2  C8  UNL     1       2.238 -16.198  22.850  1.00  0.00     0.040 C 
HETATM    3  C9  UNL     1       2.071 -14.816  23.296  1.00  0.00     0.023 C 
HETATM    4  C10 UNL     1       1.825 -14.412  24.662  1.00  0.00     0.008 C 
HETATM    5  C11 UNL     1       2.100 -12.891  24.691  1.00  0.00     0.010 C 
HETATM    6  C12 UNL     1       1.418 -12.184  23.520  1.00  0.00    -0.033 C 
HETATM    7  C13 UNL     1       2.499 -11.709  22.600  1.00  0.00     0.016 C 
HETATM    8  C14 UNL     1       0.430 -13.056  22.822  1.00  0.00     0.029 C 
HETATM    9  C15 UNL     1      -0.231 -12.327  21.713  1.00  0.00     0.009 C 
HETATM   10  C16 UNL     1      -0.323 -10.833  21.874  1.00  0.00     0.013 C 
HETATM   11  C17 UNL     1      -0.406 -10.404  23.298  1.00  0.00    -0.006 C 
HETATM   12  C18 UNL     1      -1.763 -10.948  23.787  1.00  0.00     0.019 C 
HETATM   13  C19 UNL     1       0.647 -11.043  24.171  1.00  0.00     0.005 C 
HETATM   14  C20 UNL     1       1.527  -9.963  24.693  1.00  0.00     0.009 C 
HETATM   15  C21 UNL     1       0.587  -8.776  24.775  1.00  0.00     0.042 C 
HETATM   16  C22 UNL     1      -0.362  -8.966  23.596  1.00  0.00     0.093 C 
HETATM   17  C25 UNL     1       0.829 -14.438  22.484  1.00  0.00     0.066 C 
HETATM   18  C26 UNL     1      -0.302 -15.410  22.727  1.00  0.00     0.047 C 
HETATM   19  O6  UNL     1       1.336 -14.711  21.246  1.00  0.00    -0.374 OA
ENDROOT
BRANCH   1  20
HETATM   20  C6  UNL     1       3.179 -16.116  20.603  1.00  0.00     0.135 C 
BRANCH  20  21
HETATM   21  C5  UNL     1       4.264 -16.456  21.544  1.00  0.00     0.224 C 
HETATM   22  N1  UNL     1       4.318 -17.685  22.249  1.00  0.00    -0.328 N 
ATOM     23  H1  UNL     1       3.574 -18.365  22.101  1.00  0.00     0.168 HD
HETATM   24  O2  UNL     1       5.186 -15.630  21.738  1.00  0.00    -0.273 OA
BRANCH  22  25
HETATM   25  C4  UNL     1       5.396 -18.017  23.180  1.00  0.00     0.048 C 
BRANCH  25  26
HETATM   26  C3  UNL     1       6.007 -19.277  22.795  1.00  0.00     0.087 C 
BRANCH  26  27
HETATM   27  C2  UNL     1       6.495 -20.403  23.516  1.00  0.00     0.028 C 
HETATM   28  C1  UNL     1       5.944 -21.478  23.969  1.00  0.00     0.014 C 
ENDBRANCH  26  27
BRANCH  26  29
HETATM   29  O1  UNL     1       6.125 -19.383  21.468  1.00  0.00    -0.359 OA
ATOM     30  H1  UNL     1       7.010 -19.264  21.144  1.00  0.00     0.217 HD
ENDBRANCH  26  29
ENDBRANCH  25  26
BRANCH  25  31
HETATM   31  C27 UNL     1       5.176 -17.642  24.583  1.00  0.00     0.030 C 
HETATM   32  C28 UNL     1       5.158 -16.141  24.811  1.00  0.00     0.016 C 
HETATM   33  C29 UNL     1       3.833 -18.176  25.108  1.00  0.00     0.016 C 
ENDBRANCH  25  31
ENDBRANCH  22  25
ENDBRANCH  20  21
ENDBRANCH   1  20
BRANCH  16  34
HETATM   34  O3  UNL     1      -1.617  -8.498  24.107  1.00  0.00    -0.386 OA
ATOM     35  H3  UNL     1      -1.496  -7.780  24.717  1.00  0.00     0.210 HD
ENDBRANCH  16  34
BRANCH  16  36
HETATM   36  C23 UNL     1      -0.047  -8.002  22.520  1.00  0.00     0.176 C 
BRANCH  36  37
HETATM   37  O4  UNL     1      -0.404  -6.677  22.743  1.00  0.00    -0.390 OA
ATOM     38  H4  UNL     1      -0.415  -6.104  21.986  1.00  0.00     0.210 HD
ENDBRANCH  36  37
BRANCH  36  39
HETATM   39  C24 UNL     1      -0.663  -8.320  21.193  1.00  0.00     0.198 C 
BRANCH  39  40
HETATM   40  O5  UNL     1      -0.942  -7.284  20.375  1.00  0.00    -0.398 OA
ATOM     41  H5  UNL     1      -1.857  -7.088  20.216  1.00  0.00     0.209 HD
ENDBRANCH  39  40
ENDBRANCH  36  39
ENDBRANCH  16  36
TORSDOF 12
ENDMDL
