MODEL 1
REMARK VINA RESULT: -10.614121836      0.000      0.000
REMARK  12 active torsions:
REMARK  status: ('A' for Active; 'I' for Inactive)
REMARK    1  A    between atoms: C4_4  and  C5_5 
REMARK    2  A    between atoms: C5_5  and  C6_6 
REMARK    3  A    between atoms: C5_5  and  C8_12 
REMARK       I    between atoms: N1_7  and  C7_9 
REMARK    4  A    between atoms: C14_18  and  C15_19 
REMARK    5  A    between atoms: C15_19  and  C16_20 
REMARK    6  A    between atoms: C15_19  and  O3_26 
REMARK    7  A    between atoms: C16_20  and  C17_21 
REMARK    8  A    between atoms: C17_21  and  C18_22 
REMARK    9  A    between atoms: C18_22  and  O2_24 
REMARK   10  A    between atoms: O3_26  and  C20_27 
REMARK   11  A    between atoms: C22_31  and  O5_32 
REMARK   12  A    between atoms: C24_35  and  O6_36 
ROOT
HETATM    1  C8  UNL     1       3.533 -16.638  23.414  1.00  0.00     0.021 C 
HETATM    2  C9  UNL     1       3.019 -15.575  24.307  1.00  0.00    -0.018 C 
HETATM    3  C10 UNL     1       1.846 -15.025  24.034  1.00  0.00    -0.072 C 
HETATM    4  C11 UNL     1       1.363 -13.943  24.976  1.00  0.00     0.035 C 
HETATM    5  C12 UNL     1       1.056 -12.685  24.113  1.00  0.00     0.012 C 
HETATM    6  C13 UNL     1      -0.045 -13.105  23.174  1.00  0.00     0.028 C 
HETATM    7  C14 UNL     1      -0.964 -12.109  22.673  1.00  0.00     0.025 C 
HETATM    8  C21 UNL     1      -1.416 -12.322  21.233  1.00  0.00     0.039 C 
HETATM    9  C22 UNL     1      -1.715 -13.830  21.148  1.00  0.00     0.121 C 
HETATM   10  C23 UNL     1      -0.368 -14.499  21.091  1.00  0.00     0.071 C 
HETATM   11  C24 UNL     1       0.565 -14.071  22.178  1.00  0.00     0.075 C 
HETATM   12  C25 UNL     1       0.964 -15.365  22.906  1.00  0.00     0.011 C 
HETATM   13  C26 UNL     1      -0.212 -16.128  23.426  1.00  0.00     0.023 C 
HETATM   14  C27 UNL     1       1.637 -16.207  21.843  1.00  0.00     0.017 C 
HETATM   15  C28 UNL     1       3.138 -16.277  22.014  1.00  0.00     0.010 C 
ENDROOT
BRANCH   1  16
HETATM   16  C5  UNL     1       5.060 -16.738  23.442  1.00  0.00     0.054 C 
BRANCH  16  17
HETATM   17  C4  UNL     1       5.528 -18.099  23.350  1.00  0.00    -0.014 C 
HETATM   18  C2  UNL     1       5.103 -19.152  23.973  1.00  0.00    -0.091 C 
HETATM   19  C1  UNL     1       4.009 -19.234  24.959  1.00  0.00     0.042 C 
HETATM   20  C3  UNL     1       5.847 -20.454  23.624  1.00  0.00     0.042 C 
ENDBRANCH  16  17
BRANCH  16  21
HETATM   21  C6  UNL     1       5.562 -15.721  22.525  1.00  0.00     0.074 C 
HETATM   22  N1  UNL     1       5.356 -14.447  22.677  1.00  0.00    -0.324 N 
HETATM   23  C7  UNL     1       5.851 -13.479  21.777  1.00  0.00     0.332 C 
ATOM     24  H1  UNL     1       4.812 -14.134  23.481  1.00  0.00     0.169 HD
HETATM   25  N2  UNL     1       6.426 -13.841  20.537  1.00  0.00    -0.040 NA
HETATM   26  O1  UNL     1       5.780 -12.272  22.084  1.00  0.00    -0.251 OA
ENDBRANCH  16  21
ENDBRANCH   1  16
BRANCH  11  27
HETATM   27  O6  UNL     1       1.749 -13.604  21.614  1.00  0.00    -0.388 OA
ATOM     28  H6  UNL     1       2.170 -14.239  21.046  1.00  0.00     0.210 HD
ENDBRANCH  11  27
BRANCH   7  29
HETATM   29  C15 UNL     1      -0.636 -10.620  22.774  1.00  0.00     0.138 C 
BRANCH  29  30
HETATM   30  C16 UNL     1      -1.169  -9.809  21.691  1.00  0.00     0.035 C 
BRANCH  30  31
HETATM   31  C17 UNL     1      -0.285  -8.899  20.903  1.00  0.00     0.034 C 
BRANCH  31  32
HETATM   32  C18 UNL     1      -0.343  -7.448  21.245  1.00  0.00     0.114 C 
HETATM   33  C19 UNL     1      -0.661  -6.645  19.980  1.00  0.00     0.039 C 
BRANCH  32  34
HETATM   34  O2  UNL     1      -1.416  -7.307  22.159  1.00  0.00    -0.396 OA
ATOM     35  H2  UNL     1      -1.026  -7.333  23.025  1.00  0.00     0.210 HD
ENDBRANCH  32  34
ENDBRANCH  31  32
ENDBRANCH  30  31
ENDBRANCH  29  30
BRANCH  29  36
HETATM   36  O3  UNL     1      -1.161 -10.285  24.042  1.00  0.00    -0.301 OA
BRANCH  36  37
HETATM   37  C20 UNL     1      -0.800  -9.092  24.698  1.00  0.00     0.373 C 
HETATM   38  N3  UNL     1       0.481  -8.972  25.254  1.00  0.00    -0.032 NA
HETATM   39  O4  UNL     1      -1.678  -8.200  24.736  1.00  0.00    -0.242 OA
ENDBRANCH  36  37
ENDBRANCH  29  36
ENDBRANCH   7  29
BRANCH   9  40
HETATM   40  O5  UNL     1      -2.440 -14.006  19.979  1.00  0.00    -0.395 OA
ATOM     41  H5  UNL     1      -1.797 -14.111  19.289  1.00  0.00     0.210 HD
ENDBRANCH   9  40
TORSDOF 12
ENDMDL
MODEL 2
REMARK VINA RESULT: -9.749951152      1.968      2.984
REMARK  12 active torsions:
REMARK  status: ('A' for Active; 'I' for Inactive)
REMARK    1  A    between atoms: C4_4  and  C5_5 
REMARK    2  A    between atoms: C5_5  and  C6_6 
REMARK    3  A    between atoms: C5_5  and  C8_12 
REMARK       I    between atoms: N1_7  and  C7_9 
REMARK    4  A    between atoms: C14_18  and  C15_19 
REMARK    5  A    between atoms: C15_19  and  C16_20 
REMARK    6  A    between atoms: C15_19  and  O3_26 
REMARK    7  A    between atoms: C16_20  and  C17_21 
REMARK    8  A    between atoms: C17_21  and  C18_22 
REMARK    9  A    between atoms: C18_22  and  O2_24 
REMARK   10  A    between atoms: O3_26  and  C20_27 
REMARK   11  A    between atoms: C22_31  and  O5_32 
REMARK   12  A    between atoms: C24_35  and  O6_36 
ROOT
HETATM    1  C8  UNL     1       3.314 -16.775  22.454  1.00  0.00     0.021 C 
HETATM    2  C9  UNL     1       2.955 -15.762  23.472  1.00  0.00    -0.018 C 
HETATM    3  C10 UNL     1       1.778 -15.162  23.388  1.00  0.00    -0.072 C 
HETATM    4  C11 UNL     1       1.456 -14.134  24.452  1.00  0.00     0.035 C 
HETATM    5  C12 UNL     1       1.089 -12.812  23.719  1.00  0.00     0.012 C 
HETATM    6  C13 UNL     1      -0.135 -13.136  22.903  1.00  0.00     0.028 C 
HETATM    7  C14 UNL     1      -1.073 -12.082  22.588  1.00  0.00     0.025 C 
HETATM    8  C21 UNL     1      -1.710 -12.183  21.207  1.00  0.00     0.039 C 
HETATM    9  C22 UNL     1      -2.072 -13.672  21.064  1.00  0.00     0.121 C 
HETATM   10  C23 UNL     1      -0.768 -14.373  20.792  1.00  0.00     0.071 C 
HETATM   11  C24 UNL     1       0.309 -14.047  21.777  1.00  0.00     0.075 C 
HETATM   12  C25 UNL     1       0.749 -15.399  22.362  1.00  0.00     0.011 C 
HETATM   13  C26 UNL     1      -0.379 -16.163  22.977  1.00  0.00     0.023 C 
HETATM   14  C27 UNL     1       1.253 -16.184  21.169  1.00  0.00     0.017 C 
HETATM   15  C28 UNL     1       2.760 -16.306  21.142  1.00  0.00     0.010 C 
ENDROOT
BRANCH   1  16
HETATM   16  C5  UNL     1       4.828 -16.919  22.280  1.00  0.00     0.054 C 
BRANCH  16  17
HETATM   17  C4  UNL     1       5.544 -15.723  22.650  1.00  0.00    -0.014 C 
HETATM   18  C2  UNL     1       5.824 -14.685  21.930  1.00  0.00    -0.091 C 
HETATM   19  C1  UNL     1       5.479 -14.451  20.515  1.00  0.00     0.042 C 
HETATM   20  C3  UNL     1       6.614 -13.584  22.662  1.00  0.00     0.042 C 
ENDBRANCH  16  17
BRANCH  16  21
HETATM   21  C6  UNL     1       5.194 -18.208  22.857  1.00  0.00     0.074 C 
HETATM   22  N1  UNL     1       6.413 -18.547  23.151  1.00  0.00    -0.324 N 
HETATM   23  C7  UNL     1       6.746 -19.800  23.707  1.00  0.00     0.332 C 
ATOM     24  H1  UNL     1       7.162 -17.878  22.971  1.00  0.00     0.169 HD
HETATM   25  N2  UNL     1       5.804 -20.852  23.789  1.00  0.00    -0.040 NA
HETATM   26  O1  UNL     1       7.902 -19.985  24.140  1.00  0.00    -0.251 OA
ENDBRANCH  16  21
ENDBRANCH   1  16
BRANCH  11  27
HETATM   27  O6  UNL     1       1.429 -13.575  21.098  1.00  0.00    -0.388 OA
ATOM     28  H6  UNL     1       1.222 -13.192  20.253  1.00  0.00     0.210 HD
ENDBRANCH  11  27
BRANCH   7  29
HETATM   29  C15 UNL     1      -0.682 -10.613  22.744  1.00  0.00     0.138 C 
BRANCH  29  30
HETATM   30  C16 UNL     1      -1.170  -9.744  21.686  1.00  0.00     0.035 C 
BRANCH  30  31
HETATM   31  C17 UNL     1      -0.238  -8.855  20.929  1.00  0.00     0.034 C 
BRANCH  31  32
HETATM   32  C18 UNL     1      -0.306  -7.396  21.237  1.00  0.00     0.114 C 
HETATM   33  C19 UNL     1      -0.694  -6.631  19.968  1.00  0.00     0.039 C 
BRANCH  32  34
HETATM   34  O2  UNL     1      -1.340  -7.249  22.195  1.00  0.00    -0.396 OA
ATOM     35  H2  UNL     1      -1.619  -8.130  22.415  1.00  0.00     0.210 HD
ENDBRANCH  32  34
ENDBRANCH  31  32
ENDBRANCH  30  31
ENDBRANCH  29  30
BRANCH  29  36
HETATM   36  O3  UNL     1      -1.202 -10.299  24.019  1.00  0.00    -0.301 OA
BRANCH  36  37
HETATM   37  C20 UNL     1      -0.836  -9.120  24.695  1.00  0.00     0.373 C 
HETATM   38  N3  UNL     1       0.439  -9.023  25.270  1.00  0.00    -0.032 NA
HETATM   39  O4  UNL     1      -1.703  -8.218  24.734  1.00  0.00    -0.242 OA
ENDBRANCH  36  37
ENDBRANCH  29  36
ENDBRANCH   7  29
BRANCH   9  40
HETATM   40  O5  UNL     1      -2.944 -13.747  19.988  1.00  0.00    -0.395 OA
ATOM     41  H5  UNL     1      -2.722 -13.016  19.424  1.00  0.00     0.210 HD
ENDBRANCH   9  40
TORSDOF 12
ENDMDL
MODEL 3
REMARK VINA RESULT: -9.599840431      1.299      2.067
REMARK  12 active torsions:
REMARK  status: ('A' for Active; 'I' for Inactive)
REMARK    1  A    between atoms: C4_4  and  C5_5 
REMARK    2  A    between atoms: C5_5  and  C6_6 
REMARK    3  A    between atoms: C5_5  and  C8_12 
REMARK       I    between atoms: N1_7  and  C7_9 
REMARK    4  A    between atoms: C14_18  and  C15_19 
REMARK    5  A    between atoms: C15_19  and  C16_20 
REMARK    6  A    between atoms: C15_19  and  O3_26 
REMARK    7  A    between atoms: C16_20  and  C17_21 
REMARK    8  A    between atoms: C17_21  and  C18_22 
REMARK    9  A    between atoms: C18_22  and  O2_24 
REMARK   10  A    between atoms: O3_26  and  C20_27 
REMARK   11  A    between atoms: C22_31  and  O5_32 
REMARK   12  A    between atoms: C24_35  and  O6_36 
ROOT
HETATM    1  C8  UNL     1       3.217 -16.470  23.160  1.00  0.00     0.021 C 
HETATM    2  C9  UNL     1       2.564 -15.631  24.190  1.00  0.00    -0.018 C 
HETATM    3  C10 UNL     1       1.355 -15.148  23.948  1.00  0.00    -0.072 C 
HETATM    4  C11 UNL     1       0.729 -14.296  25.031  1.00  0.00     0.035 C 
HETATM    5  C12 UNL     1       0.337 -12.939  24.381  1.00  0.00     0.012 C 
HETATM    6  C13 UNL     1      -0.677 -13.283  23.322  1.00  0.00     0.028 C 
HETATM    7  C14 UNL     1      -1.667 -12.300  22.945  1.00  0.00     0.025 C 
HETATM    8  C21 UNL     1      -2.036 -12.296  21.466  1.00  0.00     0.039 C 
HETATM    9  C22 UNL     1      -2.182 -13.785  21.107  1.00  0.00     0.121 C 
HETATM   10  C23 UNL     1      -0.775 -14.311  21.015  1.00  0.00     0.071 C 
HETATM   11  C24 UNL     1       0.066 -14.000  22.212  1.00  0.00     0.075 C 
HETATM   12  C25 UNL     1       0.558 -15.361  22.729  1.00  0.00     0.011 C 
HETATM   13  C26 UNL     1      -0.558 -16.306  23.041  1.00  0.00     0.023 C 
HETATM   14  C27 UNL     1       1.355 -15.939  21.578  1.00  0.00     0.017 C 
HETATM   15  C28 UNL     1       2.847 -15.904  21.822  1.00  0.00     0.010 C 
ENDROOT
BRANCH   1  16
HETATM   16  C5  UNL     1       4.743 -16.437  23.259  1.00  0.00     0.054 C 
BRANCH  16  17
HETATM   17  C4  UNL     1       5.351 -17.687  22.873  1.00  0.00    -0.014 C 
HETATM   18  C2  UNL     1       5.266 -18.845  23.444  1.00  0.00    -0.091 C 
HETATM   19  C1  UNL     1       4.513 -19.195  24.663  1.00  0.00     0.042 C 
HETATM   20  C3  UNL     1       6.057 -19.968  22.748  1.00  0.00     0.042 C 
ENDBRANCH  16  17
BRANCH  16  21
HETATM   21  C6  UNL     1       5.175 -15.185  22.647  1.00  0.00     0.074 C 
HETATM   22  N1  UNL     1       5.132 -14.035  23.249  1.00  0.00    -0.324 N 
HETATM   23  C7  UNL     1       5.555 -12.835  22.638  1.00  0.00     0.332 C 
ATOM     24  H1  UNL     1       4.778 -13.997  24.204  1.00  0.00     0.169 HD
HETATM   25  N2  UNL     1       5.856 -12.769  21.258  1.00  0.00    -0.040 NA
HETATM   26  O1  UNL     1       5.667 -11.805  23.333  1.00  0.00    -0.251 OA
ENDBRANCH  16  21
ENDBRANCH   1  16
BRANCH  11  27
HETATM   27  O6  UNL     1       1.221 -13.337  21.807  1.00  0.00    -0.388 OA
ATOM     28  H6  UNL     1       1.082 -12.413  21.633  1.00  0.00     0.210 HD
ENDBRANCH  11  27
BRANCH   7  29
HETATM   29  C15 UNL     1      -1.492 -10.829  23.320  1.00  0.00     0.138 C 
BRANCH  29  30
HETATM   30  C16 UNL     1      -0.901 -10.606  24.630  1.00  0.00     0.035 C 
BRANCH  30  31
HETATM   31  C17 UNL     1      -0.551  -9.230  25.093  1.00  0.00     0.034 C 
BRANCH  31  32
HETATM   32  C18 UNL     1       0.884  -8.834  24.988  1.00  0.00     0.114 C 
HETATM   33  C19 UNL     1       1.737 -10.087  24.767  1.00  0.00     0.039 C 
BRANCH  32  34
HETATM   34  O2  UNL     1       0.976  -8.008  23.840  1.00  0.00    -0.396 OA
ATOM     35  H2  UNL     1       1.456  -7.235  24.112  1.00  0.00     0.210 HD
ENDBRANCH  32  34
ENDBRANCH  31  32
ENDBRANCH  30  31
ENDBRANCH  29  30
BRANCH  29  36
HETATM   36  O3  UNL     1      -0.703 -10.342  22.254  1.00  0.00    -0.301 OA
BRANCH  36  37
HETATM   37  C20 UNL     1      -1.075  -9.196  21.525  1.00  0.00     0.373 C 
HETATM   38  N3  UNL     1      -1.454  -8.035  22.214  1.00  0.00    -0.032 NA
HETATM   39  O4  UNL     1      -1.038  -9.303  20.279  1.00  0.00    -0.242 OA
ENDBRANCH  36  37
ENDBRANCH  29  36
ENDBRANCH   7  29
BRANCH   9  40
HETATM   40  O5  UNL     1      -2.837 -13.816  19.885  1.00  0.00    -0.395 OA
ATOM     41  H5  UNL     1      -3.499 -14.493  19.964  1.00  0.00     0.210 HD
ENDBRANCH   9  40
TORSDOF 12
ENDMDL
MODEL 4
REMARK VINA RESULT: -9.285204078      2.713      3.919
REMARK  12 active torsions:
REMARK  status: ('A' for Active; 'I' for Inactive)
REMARK    1  A    between atoms: C4_4  and  C5_5 
REMARK    2  A    between atoms: C5_5  and  C6_6 
REMARK    3  A    between atoms: C5_5  and  C8_12 
REMARK       I    between atoms: N1_7  and  C7_9 
REMARK    4  A    between atoms: C14_18  and  C15_19 
REMARK    5  A    between atoms: C15_19  and  C16_20 
REMARK    6  A    between atoms: C15_19  and  O3_26 
REMARK    7  A    between atoms: C16_20  and  C17_21 
REMARK    8  A    between atoms: C17_21  and  C18_22 
REMARK    9  A    between atoms: C18_22  and  O2_24 
REMARK   10  A    between atoms: O3_26  and  C20_27 
REMARK   11  A    between atoms: C22_31  and  O5_32 
REMARK   12  A    between atoms: C24_35  and  O6_36 
ROOT
HETATM    1  C8  UNL     1       3.332 -16.089  21.002  1.00  0.00     0.021 C 
HETATM    2  C9  UNL     1       2.446 -16.261  22.175  1.00  0.00    -0.018 C 
HETATM    3  C10 UNL     1       1.197 -15.827  22.101  1.00  0.00    -0.072 C 
HETATM    4  C11 UNL     1       0.329 -16.025  23.326  1.00  0.00     0.035 C 
HETATM    5  C12 UNL     1      -0.240 -14.632  23.717  1.00  0.00     0.012 C 
HETATM    6  C13 UNL     1      -1.073 -14.197  22.540  1.00  0.00     0.028 C 
HETATM    7  C14 UNL     1      -2.186 -13.300  22.754  1.00  0.00     0.025 C 
HETATM    8  C21 UNL     1      -2.411 -12.282  21.643  1.00  0.00     0.039 C 
HETATM    9  C22 UNL     1      -2.251 -13.094  20.346  1.00  0.00     0.121 C 
HETATM   10  C23 UNL     1      -0.770 -13.310  20.193  1.00  0.00     0.071 C 
HETATM   11  C24 UNL     1      -0.114 -13.877  21.411  1.00  0.00     0.075 C 
HETATM   12  C25 UNL     1       0.568 -15.173  20.942  1.00  0.00     0.011 C 
HETATM   13  C26 UNL     1      -0.383 -16.134  20.303  1.00  0.00     0.023 C 
HETATM   14  C27 UNL     1       1.558 -14.722  19.889  1.00  0.00     0.017 C 
HETATM   15  C28 UNL     1       2.990 -14.771  20.373  1.00  0.00     0.010 C 
ENDROOT
BRANCH   1  16
HETATM   16  C5  UNL     1       4.811 -16.036  21.388  1.00  0.00     0.054 C 
BRANCH  16  17
HETATM   17  C4  UNL     1       5.274 -14.691  21.625  1.00  0.00    -0.014 C 
HETATM   18  C2  UNL     1       5.165 -13.967  22.692  1.00  0.00    -0.091 C 
HETATM   19  C1  UNL     1       4.525 -14.336  23.968  1.00  0.00     0.042 C 
HETATM   20  C3  UNL     1       5.783 -12.561  22.585  1.00  0.00     0.042 C 
ENDBRANCH  16  17
BRANCH  16  21
HETATM   21  C6  UNL     1       5.019 -17.076  22.390  1.00  0.00     0.074 C 
HETATM   22  N1  UNL     1       5.584 -18.219  22.138  1.00  0.00    -0.324 N 
HETATM   23  C7  UNL     1       5.776 -19.212  23.121  1.00  0.00     0.332 C 
ATOM     24  H1  UNL     1       5.904 -18.405  21.187  1.00  0.00     0.169 HD
HETATM   25  N2  UNL     1       5.178 -19.118  24.399  1.00  0.00    -0.040 NA
HETATM   26  O1  UNL     1       6.493 -20.199  22.857  1.00  0.00    -0.251 OA
ENDBRANCH  16  21
ENDBRANCH   1  16
BRANCH  11  27
HETATM   27  O6  UNL     1       0.935 -13.047  21.800  1.00  0.00    -0.388 OA
ATOM     28  H6  UNL     1       0.940 -12.212  21.347  1.00  0.00     0.210 HD
ENDBRANCH  11  27
BRANCH   7  29
HETATM   29  C15 UNL     1      -2.315 -12.509  24.056  1.00  0.00     0.138 C 
BRANCH  29  30
HETATM   30  C16 UNL     1      -2.130 -11.075  23.911  1.00  0.00     0.035 C 
BRANCH  30  31
HETATM   31  C17 UNL     1      -0.919 -10.395  24.463  1.00  0.00     0.034 C 
BRANCH  31  32
HETATM   32  C18 UNL     1      -0.527  -9.105  23.824  1.00  0.00     0.114 C 
HETATM   33  C19 UNL     1      -0.645  -9.240  22.302  1.00  0.00     0.039 C 
BRANCH  32  34
HETATM   34  O2  UNL     1      -1.469  -8.146  24.273  1.00  0.00    -0.396 OA
ATOM     35  H2  UNL     1      -2.160  -8.135  23.622  1.00  0.00     0.210 HD
ENDBRANCH  32  34
ENDBRANCH  31  32
ENDBRANCH  30  31
ENDBRANCH  29  30
BRANCH  29  36
HETATM   36  O3  UNL     1      -3.606 -12.871  24.498  1.00  0.00    -0.301 OA
BRANCH  36  37
HETATM   37  C20 UNL     1      -3.799 -13.858  25.484  1.00  0.00     0.373 C 
HETATM   38  N3  UNL     1      -4.830 -13.704  26.421  1.00  0.00    -0.032 NA
HETATM   39  O4  UNL     1      -3.010 -14.830  25.449  1.00  0.00    -0.242 OA
ENDBRANCH  36  37
ENDBRANCH  29  36
ENDBRANCH   7  29
BRANCH   9  40
HETATM   40  O5  UNL     1      -2.774 -12.300  19.336  1.00  0.00    -0.395 OA
ATOM     41  H5  UNL     1      -2.166 -12.370  18.610  1.00  0.00     0.210 HD
ENDBRANCH   9  40
TORSDOF 12
ENDMDL
MODEL 5
REMARK VINA RESULT: -9.250274711      1.511      2.396
REMARK  12 active torsions:
REMARK  status: ('A' for Active; 'I' for Inactive)
REMARK    1  A    between atoms: C4_4  and  C5_5 
REMARK    2  A    between atoms: C5_5  and  C6_6 
REMARK    3  A    between atoms: C5_5  and  C8_12 
REMARK       I    between atoms: N1_7  and  C7_9 
REMARK    4  A    between atoms: C14_18  and  C15_19 
REMARK    5  A    between atoms: C15_19  and  C16_20 
REMARK    6  A    between atoms: C15_19  and  O3_26 
REMARK    7  A    between atoms: C16_20  and  C17_21 
REMARK    8  A    between atoms: C17_21  and  C18_22 
REMARK    9  A    between atoms: C18_22  and  O2_24 
REMARK   10  A    between atoms: O3_26  and  C20_27 
REMARK   11  A    between atoms: C22_31  and  O5_32 
REMARK   12  A    between atoms: C24_35  and  O6_36 
ROOT
HETATM    1  C8  UNL     1       3.395 -17.077  22.922  1.00  0.00     0.021 C 
HETATM    2  C9  UNL     1       2.772 -16.344  24.047  1.00  0.00    -0.018 C 
HETATM    3  C10 UNL     1       1.650 -15.676  23.830  1.00  0.00    -0.072 C 
HETATM    4  C11 UNL     1       1.050 -14.943  25.011  1.00  0.00     0.035 C 
HETATM    5  C12 UNL     1       0.870 -13.457  24.588  1.00  0.00     0.012 C 
HETATM    6  C13 UNL     1      -0.097 -13.487  23.433  1.00  0.00     0.028 C 
HETATM    7  C14 UNL     1      -0.934 -12.335  23.182  1.00  0.00     0.025 C 
HETATM    8  C21 UNL     1      -1.189 -12.037  21.709  1.00  0.00     0.039 C 
HETATM    9  C22 UNL     1      -1.483 -13.415  21.089  1.00  0.00     0.121 C 
HETATM   10  C23 UNL     1      -0.145 -14.094  20.980  1.00  0.00     0.071 C 
HETATM   11  C24 UNL     1       0.636 -14.098  22.256  1.00  0.00     0.075 C 
HETATM   12  C25 UNL     1       0.925 -15.579  22.552  1.00  0.00     0.011 C 
HETATM   13  C26 UNL     1      -0.314 -16.411  22.636  1.00  0.00     0.023 C 
HETATM   14  C27 UNL     1       1.731 -16.055  21.362  1.00  0.00     0.017 C 
HETATM   15  C28 UNL     1       3.194 -16.253  21.686  1.00  0.00     0.010 C 
ENDROOT
BRANCH   1  16
HETATM   16  C5  UNL     1       4.903 -17.258  23.106  1.00  0.00     0.054 C 
BRANCH  16  17
HETATM   17  C4  UNL     1       5.325 -18.623  22.912  1.00  0.00    -0.014 C 
HETATM   18  C2  UNL     1       6.363 -19.232  23.390  1.00  0.00    -0.091 C 
HETATM   19  C1  UNL     1       7.405 -18.675  24.273  1.00  0.00     0.042 C 
HETATM   20  C3  UNL     1       6.499 -20.706  22.968  1.00  0.00     0.042 C 
ENDBRANCH  16  17
BRANCH  16  21
HETATM   21  C6  UNL     1       5.547 -16.174  22.371  1.00  0.00     0.074 C 
HETATM   22  N1  UNL     1       5.490 -14.926  22.727  1.00  0.00    -0.324 N 
HETATM   23  C7  UNL     1       6.120 -13.893  22.001  1.00  0.00     0.332 C 
ATOM     24  H1  UNL     1       4.968 -14.683  23.569  1.00  0.00     0.169 HD
HETATM   25  N2  UNL     1       6.679 -14.117  20.722  1.00  0.00    -0.040 NA
HETATM   26  O1  UNL     1       6.186 -12.752  22.502  1.00  0.00    -0.251 OA
ENDBRANCH  16  21
ENDBRANCH   1  16
BRANCH  11  27
HETATM   27  O6  UNL     1       1.888 -13.531  22.033  1.00  0.00    -0.388 OA
ATOM     28  H6  UNL     1       2.564 -13.878  22.605  1.00  0.00     0.210 HD
ENDBRANCH  11  27
BRANCH   7  29
HETATM   29  C15 UNL     1      -0.614 -10.982  23.816  1.00  0.00     0.138 C 
BRANCH  29  30
HETATM   30  C16 UNL     1       0.723 -10.484  23.534  1.00  0.00     0.035 C 
BRANCH  30  31
HETATM   31  C17 UNL     1       1.619 -10.017  24.634  1.00  0.00     0.034 C 
BRANCH  31  32
HETATM   32  C18 UNL     1       2.596 -11.010  25.168  1.00  0.00     0.114 C 
HETATM   33  C19 UNL     1       3.478 -11.515  24.021  1.00  0.00     0.039 C 
BRANCH  32  34
HETATM   34  O2  UNL     1       3.405 -10.302  26.090  1.00  0.00    -0.396 OA
ATOM     35  H2  UNL     1       4.209 -10.095  25.627  1.00  0.00     0.210 HD
ENDBRANCH  32  34
ENDBRANCH  31  32
ENDBRANCH  30  31
ENDBRANCH  29  30
BRANCH  29  36
HETATM   36  O3  UNL     1      -1.643 -10.162  23.304  1.00  0.00    -0.301 OA
BRANCH  36  37
HETATM   37  C20 UNL     1      -1.511  -8.761  23.249  1.00  0.00     0.373 C 
HETATM   38  N3  UNL     1      -1.401  -8.127  22.003  1.00  0.00    -0.032 NA
HETATM   39  O4  UNL     1      -1.502  -8.167  24.351  1.00  0.00    -0.242 OA
ENDBRANCH  36  37
ENDBRANCH  29  36
ENDBRANCH   7  29
BRANCH   9  40
HETATM   40  O5  UNL     1      -2.045 -13.157  19.847  1.00  0.00    -0.395 OA
ATOM     41  H5  UNL     1      -2.282 -14.004  19.490  1.00  0.00     0.210 HD
ENDBRANCH   9  40
TORSDOF 12
ENDMDL
