MODEL 1
REMARK VINA RESULT: -9.726931066      0.000      0.000
REMARK  11 active torsions:
REMARK  status: ('A' for Active; 'I' for Inactive)
REMARK    1  A    between atoms: C2_2  and  C3_3 
REMARK    2  A    between atoms: C3_3  and  C4_4 
REMARK    3  A    between atoms: C4_4  and  C5_5 
REMARK    4  A    between atoms: C5_5  and  S1_6 
REMARK    5  A    between atoms: S1_6  and  N1_9 
REMARK    6  A    between atoms: N1_9  and  C6_11 
REMARK    7  A    between atoms: C14_20  and  C15_21 
REMARK    8  A    between atoms: C15_21  and  O4_22 
REMARK    9  A    between atoms: C15_21  and  C16_24 
REMARK   10  A    between atoms: C16_24  and  O5_25 
REMARK   11  A    between atoms: C22_32  and  O6_33 
ROOT
HETATM    1  C6  UNL     1       5.102 -16.797  23.225  1.00  0.00     0.103 C 
HETATM    2  C7  UNL     1       3.825 -16.836  24.083  1.00  0.00     0.059 C 
HETATM    3  C8  UNL     1       2.840 -16.016  23.248  1.00  0.00     0.132 C 
HETATM    4  O3  UNL     1       1.796 -15.680  24.053  1.00  0.00    -0.374 OA
HETATM    5  C9  UNL     1       0.877 -14.808  23.510  1.00  0.00     0.062 C 
HETATM    6  C10 UNL     1       0.388 -15.309  22.187  1.00  0.00     0.046 C 
HETATM    7  C11 UNL     1      -0.321 -14.791  24.469  1.00  0.00     0.038 C 
HETATM    8  C12 UNL     1      -1.448 -13.960  23.958  1.00  0.00     0.008 C 
HETATM    9  C13 UNL     1      -0.914 -12.730  23.321  1.00  0.00    -0.003 C 
HETATM   10  C14 UNL     1      -1.677 -11.472  23.664  1.00  0.00     0.021 C 
HETATM   11  C17 UNL     1      -0.645 -10.370  23.566  1.00  0.00     0.008 C 
HETATM   12  C18 UNL     1       0.698 -11.045  23.387  1.00  0.00     0.006 C 
HETATM   13  C19 UNL     1       0.443 -12.431  23.922  1.00  0.00    -0.003 C 
HETATM   14  C20 UNL     1       1.487 -13.431  23.442  1.00  0.00     0.027 C 
HETATM   15  C21 UNL     1       2.624 -13.379  24.427  1.00  0.00     0.040 C 
HETATM   16  C22 UNL     1       3.913 -13.918  23.888  1.00  0.00     0.126 C 
HETATM   17  C23 UNL     1       3.688 -14.868  22.761  1.00  0.00     0.053 C 
HETATM   18  C24 UNL     1       4.929 -15.616  22.341  1.00  0.00    -0.018 C 
HETATM   19  C25 UNL     1       4.690 -16.073  20.897  1.00  0.00     0.017 C 
HETATM   20  C26 UNL     1       6.159 -14.765  22.347  1.00  0.00     0.017 C 
ENDROOT
BRANCH   1  21
HETATM   21  N1  UNL     1       5.180 -18.045  22.492  1.00  0.00    -0.314 N 
ATOM     22  H1  UNL     1       4.774 -18.165  21.564  1.00  0.00     0.172 HD
BRANCH  21  23
HETATM   23  S1  UNL     1       6.004 -19.293  23.300  1.00  0.00     0.226 S 
HETATM   24  O1  UNL     1       6.644 -20.183  22.272  1.00  0.00    -0.206 OA
HETATM   25  O2  UNL     1       7.069 -18.671  24.155  1.00  0.00    -0.206 OA
BRANCH  23  26
HETATM   26  C5  UNL     1       4.942 -20.316  24.312  1.00  0.00     0.163 C 
BRANCH  26  27
HETATM   27  C4  UNL     1       5.280 -21.752  24.188  1.00  0.00     0.017 C 
BRANCH  27  28
HETATM   28  C3  UNL     1       4.315 -22.756  24.698  1.00  0.00     0.001 C 
BRANCH  28  29
HETATM   29  C2  UNL     1       3.046 -22.282  25.312  1.00  0.00    -0.005 C 
HETATM   30  C1  UNL     1       2.443 -23.169  26.347  1.00  0.00     0.005 C 
ENDBRANCH  28  29
ENDBRANCH  27  28
ENDBRANCH  26  27
ENDBRANCH  23  26
ENDBRANCH  21  23
ENDBRANCH   1  21
BRANCH  16  31
HETATM   31  O6  UNL     1       4.702 -12.821  23.558  1.00  0.00    -0.395 OA
ATOM     32  H6  UNL     1       5.541 -12.949  23.984  1.00  0.00     0.210 HD
ENDBRANCH  16  31
BRANCH  10  33
HETATM   33  C15 UNL     1      -2.708 -11.254  22.556  1.00  0.00     0.146 C 
BRANCH  33  34
HETATM   34  O4  UNL     1      -3.001  -9.899  22.409  1.00  0.00    -0.393 OA
ATOM     35  H4  UNL     1      -3.789  -9.777  21.894  1.00  0.00     0.210 HD
ENDBRANCH  33  34
BRANCH  33  36
HETATM   36  C16 UNL     1      -2.197 -11.761  21.231  1.00  0.00     0.196 C 
BRANCH  36  37
HETATM   37  O5  UNL     1      -3.241 -12.063  20.358  1.00  0.00    -0.398 OA
ATOM     38  H5  UNL     1      -2.967 -12.007  19.451  1.00  0.00     0.209 HD
ENDBRANCH  36  37
ENDBRANCH  33  36
ENDBRANCH  10  33
TORSDOF 11
ENDMDL
MODEL 2
REMARK VINA RESULT: -8.158530198      8.166     11.555
REMARK  11 active torsions:
REMARK  status: ('A' for Active; 'I' for Inactive)
REMARK    1  A    between atoms: C2_2  and  C3_3 
REMARK    2  A    between atoms: C3_3  and  C4_4 
REMARK    3  A    between atoms: C4_4  and  C5_5 
REMARK    4  A    between atoms: C5_5  and  S1_6 
REMARK    5  A    between atoms: S1_6  and  N1_9 
REMARK    6  A    between atoms: N1_9  and  C6_11 
REMARK    7  A    between atoms: C14_20  and  C15_21 
REMARK    8  A    between atoms: C15_21  and  O4_22 
REMARK    9  A    between atoms: C15_21  and  C16_24 
REMARK   10  A    between atoms: C16_24  and  O5_25 
REMARK   11  A    between atoms: C22_32  and  O6_33 
ROOT
HETATM    1  C6  UNL     1      -3.188 -22.451  22.340  1.00  0.00     0.103 C 
HETATM    2  C7  UNL     1      -1.667 -22.428  22.568  1.00  0.00     0.059 C 
HETATM    3  C8  UNL     1      -1.538 -22.968  23.994  1.00  0.00     0.132 C 
HETATM    4  O3  UNL     1      -0.288 -22.668  24.438  1.00  0.00    -0.374 OA
HETATM    5  C9  UNL     1      -0.041 -22.947  25.764  1.00  0.00     0.062 C 
HETATM    6  C10 UNL     1      -0.389 -24.367  26.082  1.00  0.00     0.046 C 
HETATM    7  C11 UNL     1       1.472 -22.787  25.964  1.00  0.00     0.038 C 
HETATM    8  C12 UNL     1       1.907 -23.157  27.341  1.00  0.00     0.008 C 
HETATM    9  C13 UNL     1       0.914 -22.668  28.328  1.00  0.00    -0.003 C 
HETATM   10  C14 UNL     1       1.520 -22.041  29.562  1.00  0.00     0.021 C 
HETATM   11  C17 UNL     1       0.488 -21.033  30.016  1.00  0.00     0.008 C 
HETATM   12  C18 UNL     1      -0.561 -20.961  28.926  1.00  0.00     0.006 C 
HETATM   13  C19 UNL     1       0.179 -21.490  27.724  1.00  0.00    -0.003 C 
HETATM   14  C20 UNL     1      -0.770 -21.943  26.622  1.00  0.00     0.027 C 
HETATM   15  C21 UNL     1      -1.061 -20.734  25.773  1.00  0.00     0.040 C 
HETATM   16  C22 UNL     1      -2.307 -20.860  24.954  1.00  0.00     0.126 C 
HETATM   17  C23 UNL     1      -2.672 -22.285  24.715  1.00  0.00     0.053 C 
HETATM   18  C24 UNL     1      -3.776 -22.468  23.703  1.00  0.00    -0.018 C 
HETATM   19  C25 UNL     1      -4.401 -23.839  23.987  1.00  0.00     0.017 C 
HETATM   20  C26 UNL     1      -4.861 -21.444  23.825  1.00  0.00     0.017 C 
ENDROOT
BRANCH   1  21
HETATM   21  N1  UNL     1      -3.503 -23.640  21.573  1.00  0.00    -0.314 N 
ATOM     22  H1  UNL     1      -3.145 -24.564  21.819  1.00  0.00     0.172 HD
BRANCH  21  23
HETATM   23  S1  UNL     1      -4.513 -23.376  20.233  1.00  0.00     0.226 S 
HETATM   24  O1  UNL     1      -3.877 -24.006  19.026  1.00  0.00    -0.206 OA
HETATM   25  O2  UNL     1      -5.832 -24.039  20.505  1.00  0.00    -0.206 OA
BRANCH  23  26
HETATM   26  C5  UNL     1      -4.776 -21.646  19.862  1.00  0.00     0.163 C 
BRANCH  26  27
HETATM   27  C4  UNL     1      -6.093 -21.173  20.344  1.00  0.00     0.017 C 
BRANCH  27  28
HETATM   28  C3  UNL     1      -6.250 -19.741  20.694  1.00  0.00     0.001 C 
BRANCH  28  29
HETATM   29  C2  UNL     1      -7.551 -19.278  21.246  1.00  0.00    -0.005 C 
HETATM   30  C1  UNL     1      -7.985 -19.906  22.526  1.00  0.00     0.005 C 
ENDBRANCH  28  29
ENDBRANCH  27  28
ENDBRANCH  26  27
ENDBRANCH  23  26
ENDBRANCH  21  23
ENDBRANCH   1  21
BRANCH  16  31
HETATM   31  O6  UNL     1      -3.292 -20.122  25.602  1.00  0.00    -0.395 OA
ATOM     32  H6  UNL     1      -4.117 -20.341  25.188  1.00  0.00     0.210 HD
ENDBRANCH  16  31
BRANCH  10  33
HETATM   33  C15 UNL     1       1.612 -23.136  30.625  1.00  0.00     0.146 C 
BRANCH  33  34
HETATM   34  O4  UNL     1       2.932 -23.549  30.801  1.00  0.00    -0.393 OA
ATOM     35  H4  UNL     1       3.423 -23.467  29.992  1.00  0.00     0.210 HD
ENDBRANCH  33  34
BRANCH  33  36
HETATM   36  C16 UNL     1       1.101 -22.645  31.956  1.00  0.00     0.196 C 
BRANCH  36  37
HETATM   37  O5  UNL     1       0.916 -23.694  32.855  1.00  0.00    -0.398 OA
ATOM     38  H5  UNL     1       1.398 -23.554  33.662  1.00  0.00     0.209 HD
ENDBRANCH  36  37
ENDBRANCH  33  36
ENDBRANCH  10  33
TORSDOF 11
ENDMDL
MODEL 3
REMARK VINA RESULT: -7.913456894      8.287     11.698
REMARK  11 active torsions:
REMARK  status: ('A' for Active; 'I' for Inactive)
REMARK    1  A    between atoms: C2_2  and  C3_3 
REMARK    2  A    between atoms: C3_3  and  C4_4 
REMARK    3  A    between atoms: C4_4  and  C5_5 
REMARK    4  A    between atoms: C5_5  and  S1_6 
REMARK    5  A    between atoms: S1_6  and  N1_9 
REMARK    6  A    between atoms: N1_9  and  C6_11 
REMARK    7  A    between atoms: C14_20  and  C15_21 
REMARK    8  A    between atoms: C15_21  and  O4_22 
REMARK    9  A    between atoms: C15_21  and  C16_24 
REMARK   10  A    between atoms: C16_24  and  O5_25 
REMARK   11  A    between atoms: C22_32  and  O6_33 
ROOT
HETATM    1  C6  UNL     1      -3.117 -22.700  22.291  1.00  0.00     0.103 C 
HETATM    2  C7  UNL     1      -1.601 -22.603  22.539  1.00  0.00     0.059 C 
HETATM    3  C8  UNL     1      -1.468 -23.115  23.975  1.00  0.00     0.132 C 
HETATM    4  O3  UNL     1      -0.240 -22.750  24.432  1.00  0.00    -0.374 OA
HETATM    5  C9  UNL     1       0.000 -22.996  25.766  1.00  0.00     0.062 C 
HETATM    6  C10 UNL     1      -0.287 -24.426  26.102  1.00  0.00     0.046 C 
HETATM    7  C11 UNL     1       1.501 -22.763  25.984  1.00  0.00     0.038 C 
HETATM    8  C12 UNL     1       1.933 -23.091  27.373  1.00  0.00     0.008 C 
HETATM    9  C13 UNL     1       0.904 -22.633  28.338  1.00  0.00    -0.003 C 
HETATM   10  C14 UNL     1       1.463 -21.959  29.569  1.00  0.00     0.021 C 
HETATM   11  C17 UNL     1       0.379 -20.993  29.993  1.00  0.00     0.008 C 
HETATM   12  C18 UNL     1      -0.656 -20.987  28.887  1.00  0.00     0.006 C 
HETATM   13  C19 UNL     1       0.125 -21.500  27.704  1.00  0.00    -0.003 C 
HETATM   14  C20 UNL     1      -0.786 -22.014  26.596  1.00  0.00     0.027 C 
HETATM   15  C21 UNL     1      -1.120 -20.833  25.725  1.00  0.00     0.040 C 
HETATM   16  C22 UNL     1      -2.348 -21.029  24.891  1.00  0.00     0.126 C 
HETATM   17  C23 UNL     1      -2.643 -22.473  24.670  1.00  0.00     0.053 C 
HETATM   18  C24 UNL     1      -3.723 -22.723  23.646  1.00  0.00    -0.018 C 
HETATM   19  C25 UNL     1      -4.288 -24.117  23.944  1.00  0.00     0.017 C 
HETATM   20  C26 UNL     1      -4.855 -21.749  23.736  1.00  0.00     0.017 C 
ENDROOT
BRANCH   1  21
HETATM   21  N1  UNL     1      -3.365 -23.915  21.540  1.00  0.00    -0.314 N 
ATOM     22  H1  UNL     1      -2.936 -24.809  21.782  1.00  0.00     0.172 HD
BRANCH  21  23
HETATM   23  S1  UNL     1      -4.427 -23.734  20.226  1.00  0.00     0.226 S 
HETATM   24  O1  UNL     1      -4.012 -24.693  19.144  1.00  0.00    -0.206 OA
HETATM   25  O2  UNL     1      -5.811 -24.077  20.693  1.00  0.00    -0.206 OA
BRANCH  23  26
HETATM   26  C5  UNL     1      -4.421 -22.091  19.520  1.00  0.00     0.163 C 
BRANCH  26  27
HETATM   27  C4  UNL     1      -5.792 -21.562  19.342  1.00  0.00     0.017 C 
BRANCH  27  28
HETATM   28  C3  UNL     1      -6.487 -21.805  18.055  1.00  0.00     0.001 C 
BRANCH  28  29
HETATM   29  C2  UNL     1      -5.742 -22.473  16.954  1.00  0.00    -0.005 C 
HETATM   30  C1  UNL     1      -6.172 -22.134  15.568  1.00  0.00     0.005 C 
ENDBRANCH  28  29
ENDBRANCH  27  28
ENDBRANCH  26  27
ENDBRANCH  23  26
ENDBRANCH  21  23
ENDBRANCH   1  21
BRANCH  16  31
HETATM   31  O6  UNL     1      -3.374 -20.327  25.512  1.00  0.00    -0.395 OA
ATOM     32  H6  UNL     1      -3.854 -20.952  26.042  1.00  0.00     0.210 HD
ENDBRANCH  16  31
BRANCH  10  33
HETATM   33  C15 UNL     1       1.589 -23.032  30.651  1.00  0.00     0.146 C 
BRANCH  33  34
HETATM   34  O4  UNL     1       2.923 -23.392  30.841  1.00  0.00    -0.393 OA
ATOM     35  H4  UNL     1       3.112 -24.223  30.420  1.00  0.00     0.210 HD
ENDBRANCH  33  34
BRANCH  33  36
HETATM   36  C16 UNL     1       1.054 -22.537  31.972  1.00  0.00     0.196 C 
BRANCH  36  37
HETATM   37  O5  UNL     1       0.917 -23.575  32.892  1.00  0.00    -0.398 OA
ATOM     38  H5  UNL     1       1.158 -23.301  33.769  1.00  0.00     0.209 HD
ENDBRANCH  36  37
ENDBRANCH  33  36
ENDBRANCH  10  33
TORSDOF 11
ENDMDL
MODEL 4
REMARK VINA RESULT: -7.842721388      8.157     11.620
REMARK  11 active torsions:
REMARK  status: ('A' for Active; 'I' for Inactive)
REMARK    1  A    between atoms: C2_2  and  C3_3 
REMARK    2  A    between atoms: C3_3  and  C4_4 
REMARK    3  A    between atoms: C4_4  and  C5_5 
REMARK    4  A    between atoms: C5_5  and  S1_6 
REMARK    5  A    between atoms: S1_6  and  N1_9 
REMARK    6  A    between atoms: N1_9  and  C6_11 
REMARK    7  A    between atoms: C14_20  and  C15_21 
REMARK    8  A    between atoms: C15_21  and  O4_22 
REMARK    9  A    between atoms: C15_21  and  C16_24 
REMARK   10  A    between atoms: C16_24  and  O5_25 
REMARK   11  A    between atoms: C22_32  and  O6_33 
ROOT
HETATM    1  C6  UNL     1      -3.096 -22.363  22.328  1.00  0.00     0.103 C 
HETATM    2  C7  UNL     1      -1.577 -22.343  22.574  1.00  0.00     0.059 C 
HETATM    3  C8  UNL     1      -1.465 -22.901  23.994  1.00  0.00     0.132 C 
HETATM    4  O3  UNL     1      -0.220 -22.606  24.457  1.00  0.00    -0.374 OA
HETATM    5  C9  UNL     1       0.011 -22.901  25.783  1.00  0.00     0.062 C 
HETATM    6  C10 UNL     1      -0.341 -24.325  26.079  1.00  0.00     0.046 C 
HETATM    7  C11 UNL     1       1.522 -22.744  26.002  1.00  0.00     0.038 C 
HETATM    8  C12 UNL     1       1.941 -23.131  27.379  1.00  0.00     0.008 C 
HETATM    9  C13 UNL     1       0.936 -22.653  28.361  1.00  0.00    -0.003 C 
HETATM   10  C14 UNL     1       1.529 -22.042  29.608  1.00  0.00     0.021 C 
HETATM   11  C17 UNL     1       0.491 -21.038  30.063  1.00  0.00     0.008 C 
HETATM   12  C18 UNL     1      -0.545 -20.953  28.962  1.00  0.00     0.006 C 
HETATM   13  C19 UNL     1       0.209 -21.468  27.762  1.00  0.00    -0.003 C 
HETATM   14  C20 UNL     1      -0.727 -21.907  26.643  1.00  0.00     0.027 C 
HETATM   15  C21 UNL     1      -1.008 -20.688  25.806  1.00  0.00     0.040 C 
HETATM   16  C22 UNL     1      -2.245 -20.804  24.971  1.00  0.00     0.126 C 
HETATM   17  C23 UNL     1      -2.607 -22.226  24.711  1.00  0.00     0.053 C 
HETATM   18  C24 UNL     1      -3.700 -22.396  23.684  1.00  0.00    -0.018 C 
HETATM   19  C25 UNL     1      -4.328 -23.771  23.945  1.00  0.00     0.017 C 
HETATM   20  C26 UNL     1      -4.786 -21.374  23.806  1.00  0.00     0.017 C 
ENDROOT
BRANCH   1  21
HETATM   21  N1  UNL     1      -3.402 -23.543  21.544  1.00  0.00    -0.314 N 
ATOM     22  H1  UNL     1      -3.083 -24.476  21.806  1.00  0.00     0.172 HD
BRANCH  21  23
HETATM   23  S1  UNL     1      -4.332 -23.250  20.152  1.00  0.00     0.226 S 
HETATM   24  O1  UNL     1      -5.785 -23.268  20.540  1.00  0.00    -0.206 OA
HETATM   25  O2  UNL     1      -3.973 -21.891  19.628  1.00  0.00    -0.206 OA
BRANCH  23  26
HETATM   26  C5  UNL     1      -4.104 -24.471  18.866  1.00  0.00     0.163 C 
BRANCH  26  27
HETATM   27  C4  UNL     1      -5.356 -24.724  18.117  1.00  0.00     0.017 C 
BRANCH  27  28
HETATM   28  C3  UNL     1      -5.516 -24.118  16.773  1.00  0.00     0.001 C 
BRANCH  28  29
HETATM   29  C2  UNL     1      -5.693 -22.645  16.669  1.00  0.00    -0.005 C 
HETATM   30  C1  UNL     1      -6.904 -22.079  17.329  1.00  0.00     0.005 C 
ENDBRANCH  28  29
ENDBRANCH  27  28
ENDBRANCH  26  27
ENDBRANCH  23  26
ENDBRANCH  21  23
ENDBRANCH   1  21
BRANCH  16  31
HETATM   31  O6  UNL     1      -3.237 -20.073  25.616  1.00  0.00    -0.395 OA
ATOM     32  H6  UNL     1      -4.009 -20.112  25.066  1.00  0.00     0.210 HD
ENDBRANCH  16  31
BRANCH  10  33
HETATM   33  C15 UNL     1       1.607 -23.149  30.659  1.00  0.00     0.146 C 
BRANCH  33  34
HETATM   34  O4  UNL     1       2.913 -23.622  30.786  1.00  0.00    -0.393 OA
ATOM     35  H4  UNL     1       3.541 -22.940  30.579  1.00  0.00     0.210 HD
ENDBRANCH  33  34
BRANCH  33  36
HETATM   36  C16 UNL     1       1.166 -22.648  32.011  1.00  0.00     0.196 C 
BRANCH  36  37
HETATM   37  O5  UNL     1       0.834 -23.698  32.866  1.00  0.00    -0.398 OA
ATOM     38  H5  UNL     1       1.204 -24.521  32.571  1.00  0.00     0.209 HD
ENDBRANCH  36  37
ENDBRANCH  33  36
ENDBRANCH  10  33
TORSDOF 11
ENDMDL
MODEL 5
REMARK VINA RESULT: -7.804312365      3.211      9.300
REMARK  11 active torsions:
REMARK  status: ('A' for Active; 'I' for Inactive)
REMARK    1  A    between atoms: C2_2  and  C3_3 
REMARK    2  A    between atoms: C3_3  and  C4_4 
REMARK    3  A    between atoms: C4_4  and  C5_5 
REMARK    4  A    between atoms: C5_5  and  S1_6 
REMARK    5  A    between atoms: S1_6  and  N1_9 
REMARK    6  A    between atoms: N1_9  and  C6_11 
REMARK    7  A    between atoms: C14_20  and  C15_21 
REMARK    8  A    between atoms: C15_21  and  O4_22 
REMARK    9  A    between atoms: C15_21  and  C16_24 
REMARK   10  A    between atoms: C16_24  and  O5_25 
REMARK   11  A    between atoms: C22_32  and  O6_33 
ROOT
HETATM    1  C6  UNL     1       0.295 -11.536  22.457  1.00  0.00     0.103 C 
HETATM    2  C7  UNL     1       1.798 -11.635  22.773  1.00  0.00     0.059 C 
HETATM    3  C8  UNL     1       2.134 -13.063  22.340  1.00  0.00     0.132 C 
HETATM    4  O3  UNL     1       3.335 -13.390  22.888  1.00  0.00    -0.374 OA
HETATM    5  C9  UNL     1       3.730 -14.700  22.729  1.00  0.00     0.062 C 
HETATM    6  C10 UNL     1       3.681 -15.097  21.287  1.00  0.00     0.046 C 
HETATM    7  C11 UNL     1       5.197 -14.766  23.176  1.00  0.00     0.038 C 
HETATM    8  C12 UNL     1       5.797 -16.114  22.964  1.00  0.00     0.008 C 
HETATM    9  C13 UNL     1       4.807 -17.163  23.311  1.00  0.00    -0.003 C 
HETATM   10  C14 UNL     1       5.376 -18.317  24.102  1.00  0.00     0.021 C 
HETATM   11  C17 UNL     1       4.209 -18.820  24.924  1.00  0.00     0.008 C 
HETATM   12  C18 UNL     1       3.087 -17.820  24.744  1.00  0.00     0.006 C 
HETATM   13  C19 UNL     1       3.819 -16.580  24.300  1.00  0.00    -0.003 C 
HETATM   14  C20 UNL     1       2.892 -15.578  23.623  1.00  0.00     0.027 C 
HETATM   15  C21 UNL     1       2.315 -14.714  24.712  1.00  0.00     0.040 C 
HETATM   16  C22 UNL     1       1.056 -14.008  24.316  1.00  0.00     0.126 C 
HETATM   17  C23 UNL     1       0.949 -13.852  22.838  1.00  0.00     0.053 C 
HETATM   18  C24 UNL     1      -0.174 -12.944  22.402  1.00  0.00    -0.018 C 
HETATM   19  C25 UNL     1      -0.505 -13.330  20.955  1.00  0.00     0.017 C 
HETATM   20  C26 UNL     1      -1.420 -13.120  23.212  1.00  0.00     0.017 C 
ENDROOT
BRANCH   1  21
HETATM   21  N1  UNL     1       0.154 -10.843  21.192  1.00  0.00    -0.314 N 
ATOM     22  H1  UNL     1       0.627 -11.148  20.341  1.00  0.00     0.172 HD
BRANCH  21  23
HETATM   23  S1  UNL     1      -0.863  -9.482  21.237  1.00  0.00     0.226 S 
HETATM   24  O1  UNL     1      -1.306  -9.173  19.834  1.00  0.00    -0.206 OA
HETATM   25  O2  UNL     1      -2.061  -9.822  22.075  1.00  0.00    -0.206 OA
BRANCH  23  26
HETATM   26  C5  UNL     1      -0.071  -8.017  21.888  1.00  0.00     0.163 C 
BRANCH  26  27
HETATM   27  C4  UNL     1      -0.326  -7.849  23.337  1.00  0.00     0.017 C 
BRANCH  27  28
HETATM   28  C3  UNL     1       0.721  -8.274  24.297  1.00  0.00     0.001 C 
BRANCH  28  29
HETATM   29  C2  UNL     1       0.438  -9.417  25.205  1.00  0.00    -0.005 C 
HETATM   30  C1  UNL     1      -0.930 -10.004  25.118  1.00  0.00     0.005 C 
ENDBRANCH  28  29
ENDBRANCH  27  28
ENDBRANCH  26  27
ENDBRANCH  23  26
ENDBRANCH  21  23
ENDBRANCH   1  21
BRANCH  16  31
HETATM   31  O6  UNL     1       0.002 -14.709  24.891  1.00  0.00    -0.395 OA
ATOM     32  H6  UNL     1      -0.712 -14.092  24.999  1.00  0.00     0.210 HD
ENDBRANCH  16  31
BRANCH  10  33
HETATM   33  C15 UNL     1       5.752 -19.408  23.099  1.00  0.00     0.146 C 
BRANCH  33  34
HETATM   34  O4  UNL     1       5.835 -18.889  21.808  1.00  0.00    -0.393 OA
ATOM     35  H4  UNL     1       5.559 -17.980  21.790  1.00  0.00     0.210 HD
ENDBRANCH  33  34
BRANCH  33  36
HETATM   36  C16 UNL     1       7.089 -20.018  23.436  1.00  0.00     0.196 C 
BRANCH  36  37
HETATM   37  O5  UNL     1       7.890 -19.136  24.160  1.00  0.00    -0.398 OA
ATOM     38  H5  UNL     1       8.416 -18.590  23.589  1.00  0.00     0.209 HD
ENDBRANCH  36  37
ENDBRANCH  33  36
ENDBRANCH  10  33
TORSDOF 11
ENDMDL
