MODEL 1
REMARK VINA RESULT: -5.422063957      0.000      0.000
REMARK  4 active torsions:
REMARK  status: ('A' for Active; 'I' for Inactive)
REMARK    1  A    between atoms: C6_6  and  O1_7 
REMARK    2  A    between atoms: C7_9  and  O2_10 
REMARK    3  A    between atoms: C8_12  and  O3_13 
REMARK    4  A    between atoms: C9_15  and  O4_16 
ROOT
HETATM    1  C1  UNL     1      15.681  15.060  19.847  1.00  0.00     0.012 C 
HETATM    2  C2  UNL     1      14.695  16.213  19.711  1.00  0.00     0.013 C 
HETATM    3  C3  UNL     1      15.137  17.242  18.753  1.00  0.00     0.007 C 
HETATM    4  C4  UNL     1      15.307  16.864  17.346  1.00  0.00     0.003 C 
HETATM    5  C5  UNL     1      14.028  17.214  16.602  1.00  0.00     0.034 C 
HETATM    6  C6  UNL     1      13.213  16.023  16.245  1.00  0.00     0.149 C 
HETATM    7  C7  UNL     1      12.374  15.422  17.285  1.00  0.00     0.178 C 
HETATM    8  C8  UNL     1      12.923  14.851  18.511  1.00  0.00     0.178 C 
HETATM    9  C9  UNL     1      13.277  15.774  19.622  1.00  0.00     0.153 C 
ENDROOT
BRANCH   6  10
HETATM   10  O1  UNL     1      13.966  15.095  15.490  1.00  0.00    -0.393 OA
ATOM     11  H1  UNL     1      14.588  14.630  16.038  1.00  0.00     0.210 HD
ENDBRANCH   6  10
BRANCH   7  12
HETATM   12  O2  UNL     1      11.399  16.380  17.653  1.00  0.00    -0.390 OA
ATOM     13  H2  UNL     1      10.936  16.634  16.863  1.00  0.00     0.210 HD
ENDBRANCH   7  12
BRANCH   8  14
HETATM   14  O3  UNL     1      13.891  13.881  18.374  1.00  0.00    -0.390 OA
ATOM     15  H3  UNL     1      13.737  13.203  17.726  1.00  0.00     0.210 HD
ENDBRANCH   8  14
BRANCH   9  16
HETATM   16  O4  UNL     1      12.466  16.896  19.713  1.00  0.00    -0.393 OA
ATOM     17  H4  UNL     1      13.005  17.635  19.971  1.00  0.00     0.210 HD
ENDBRANCH   9  16
TORSDOF 4
ENDMDL
MODEL 2
REMARK VINA RESULT: -5.420580569      1.598      2.630
REMARK  4 active torsions:
REMARK  status: ('A' for Active; 'I' for Inactive)
REMARK    1  A    between atoms: C6_6  and  O1_7 
REMARK    2  A    between atoms: C7_9  and  O2_10 
REMARK    3  A    between atoms: C8_12  and  O3_13 
REMARK    4  A    between atoms: C9_15  and  O4_16 
ROOT
HETATM    1  C1  UNL     1      15.611  16.940  19.903  1.00  0.00     0.012 C 
HETATM    2  C2  UNL     1      14.596  15.828  19.670  1.00  0.00     0.013 C 
HETATM    3  C3  UNL     1      13.220  16.221  20.022  1.00  0.00     0.007 C 
HETATM    4  C4  UNL     1      12.593  17.320  19.279  1.00  0.00     0.003 C 
HETATM    5  C5  UNL     1      11.767  16.722  18.151  1.00  0.00     0.034 C 
HETATM    6  C6  UNL     1      12.382  16.910  16.811  1.00  0.00     0.149 C 
HETATM    7  C7  UNL     1      13.467  16.007  16.416  1.00  0.00     0.178 C 
HETATM    8  C8  UNL     1      14.733  15.930  17.139  1.00  0.00     0.178 C 
HETATM    9  C9  UNL     1      14.786  15.112  18.381  1.00  0.00     0.153 C 
ENDROOT
BRANCH   6  10
HETATM   10  O1  UNL     1      12.630  18.276  16.549  1.00  0.00    -0.393 OA
ATOM     11  H1  UNL     1      13.217  18.383  15.810  1.00  0.00     0.210 HD
ENDBRANCH   6  10
BRANCH   7  12
HETATM   12  O2  UNL     1      12.929  14.700  16.343  1.00  0.00    -0.390 OA
ATOM     13  H2  UNL     1      12.962  14.428  15.433  1.00  0.00     0.210 HD
ENDBRANCH   7  12
BRANCH   8  14
HETATM   14  O3  UNL     1      15.429  17.104  17.314  1.00  0.00    -0.390 OA
ATOM     15  H3  UNL     1      16.240  17.204  16.829  1.00  0.00     0.210 HD
ENDBRANCH   8  14
BRANCH   9  16
HETATM   16  O4  UNL     1      13.952  14.003  18.371  1.00  0.00    -0.393 OA
ATOM     17  H4  UNL     1      13.844  13.718  17.472  1.00  0.00     0.210 HD
ENDBRANCH   9  16
TORSDOF 4
ENDMDL
MODEL 3
REMARK VINA RESULT: -5.329072672      1.082      1.172
REMARK  4 active torsions:
REMARK  status: ('A' for Active; 'I' for Inactive)
REMARK    1  A    between atoms: C6_6  and  O1_7 
REMARK    2  A    between atoms: C7_9  and  O2_10 
REMARK    3  A    between atoms: C8_12  and  O3_13 
REMARK    4  A    between atoms: C9_15  and  O4_16 
ROOT
HETATM    1  C1  UNL     1      15.169  15.323  19.050  1.00  0.00     0.012 C 
HETATM    2  C2  UNL     1      14.379  16.550  18.615  1.00  0.00     0.013 C 
HETATM    3  C3  UNL     1      14.976  17.241  17.458  1.00  0.00     0.007 C 
HETATM    4  C4  UNL     1      15.077  16.518  16.185  1.00  0.00     0.003 C 
HETATM    5  C5  UNL     1      13.866  16.877  15.338  1.00  0.00     0.034 C 
HETATM    6  C6  UNL     1      12.870  15.778  15.243  1.00  0.00     0.149 C 
HETATM    7  C7  UNL     1      11.951  15.579  16.367  1.00  0.00     0.178 C 
HETATM    8  C8  UNL     1      12.407  15.236  17.710  1.00  0.00     0.178 C 
HETATM    9  C9  UNL     1      12.909  16.330  18.585  1.00  0.00     0.153 C 
ENDROOT
BRANCH   6  10
HETATM   10  O1  UNL     1      13.462  14.591  14.752  1.00  0.00    -0.393 OA
ATOM     11  H1  UNL     1      12.845  14.088  14.235  1.00  0.00     0.210 HD
ENDBRANCH   6  10
BRANCH   7  12
HETATM   12  O2  UNL     1      11.143  16.737  16.467  1.00  0.00    -0.390 OA
ATOM     13  H2  UNL     1      11.710  17.462  16.702  1.00  0.00     0.210 HD
ENDBRANCH   7  12
BRANCH   8  14
HETATM   14  O3  UNL     1      13.207  14.123  17.836  1.00  0.00    -0.390 OA
ATOM     15  H3  UNL     1      13.931  14.176  18.449  1.00  0.00     0.210 HD
ENDBRANCH   8  14
BRANCH   9  16
HETATM   16  O4  UNL     1      12.288  17.554  18.382  1.00  0.00    -0.393 OA
ATOM     17  H4  UNL     1      11.695  17.712  19.107  1.00  0.00     0.210 HD
ENDBRANCH   9  16
TORSDOF 4
ENDMDL
MODEL 4
REMARK VINA RESULT: -5.090938482      2.011      3.978
REMARK  4 active torsions:
REMARK  status: ('A' for Active; 'I' for Inactive)
REMARK    1  A    between atoms: C6_6  and  O1_7 
REMARK    2  A    between atoms: C7_9  and  O2_10 
REMARK    3  A    between atoms: C8_12  and  O3_13 
REMARK    4  A    between atoms: C9_15  and  O4_16 
ROOT
HETATM    1  C1  UNL     1      11.385  15.582  15.231  1.00  0.00     0.012 C 
HETATM    2  C2  UNL     1      11.950  16.894  15.760  1.00  0.00     0.013 C 
HETATM    3  C3  UNL     1      11.846  17.019  17.225  1.00  0.00     0.007 C 
HETATM    4  C4  UNL     1      12.568  16.055  18.064  1.00  0.00     0.003 C 
HETATM    5  C5  UNL     1      13.904  16.669  18.451  1.00  0.00     0.034 C 
HETATM    6  C6  UNL     1      15.057  16.064  17.736  1.00  0.00     0.149 C 
HETATM    7  C7  UNL     1      15.323  16.499  16.362  1.00  0.00     0.178 C 
HETATM    8  C8  UNL     1      14.370  16.307  15.274  1.00  0.00     0.178 C 
HETATM    9  C9  UNL     1      13.248  17.275  15.141  1.00  0.00     0.153 C 
ENDROOT
BRANCH   6  10
HETATM   10  O1  UNL     1      15.101  14.664  17.927  1.00  0.00    -0.393 OA
ATOM     11  H1  UNL     1      15.935  14.394  18.294  1.00  0.00     0.210 HD
ENDBRANCH   6  10
BRANCH   7  12
HETATM   12  O2  UNL     1      15.658  17.874  16.407  1.00  0.00    -0.390 OA
ATOM     13  H2  UNL     1      15.742  18.177  15.510  1.00  0.00     0.210 HD
ENDBRANCH   7  12
BRANCH   8  14
HETATM   14  O3  UNL     1      13.919  15.025  15.052  1.00  0.00    -0.390 OA
ATOM     15  H3  UNL     1      13.057  14.929  14.665  1.00  0.00     0.210 HD
ENDBRANCH   8  14
BRANCH   9  16
HETATM   16  O4  UNL     1      13.558  18.568  15.537  1.00  0.00    -0.393 OA
ATOM     17  H4  UNL     1      13.428  19.147  14.795  1.00  0.00     0.210 HD
ENDBRANCH   9  16
TORSDOF 4
ENDMDL
MODEL 5
REMARK VINA RESULT: -5.022605425      1.505      2.001
REMARK  4 active torsions:
REMARK  status: ('A' for Active; 'I' for Inactive)
REMARK    1  A    between atoms: C6_6  and  O1_7 
REMARK    2  A    between atoms: C7_9  and  O2_10 
REMARK    3  A    between atoms: C8_12  and  O3_13 
REMARK    4  A    between atoms: C9_15  and  O4_16 
ROOT
HETATM    1  C1  UNL     1      13.294  14.921  19.224  1.00  0.00     0.012 C 
HETATM    2  C2  UNL     1      13.166  16.328  18.654  1.00  0.00     0.013 C 
HETATM    3  C3  UNL     1      14.468  16.946  18.344  1.00  0.00     0.007 C 
HETATM    4  C4  UNL     1      15.318  16.317  17.326  1.00  0.00     0.003 C 
HETATM    5  C5  UNL     1      15.060  17.011  15.998  1.00  0.00     0.034 C 
HETATM    6  C6  UNL     1      14.271  16.184  15.048  1.00  0.00     0.149 C 
HETATM    7  C7  UNL     1      12.818  16.121  15.229  1.00  0.00     0.178 C 
HETATM    8  C8  UNL     1      12.195  15.581  16.433  1.00  0.00     0.178 C 
HETATM    9  C9  UNL     1      12.096  16.459  17.630  1.00  0.00     0.153 C 
ENDROOT
BRANCH   6  10
HETATM   10  O1  UNL     1      14.889  14.933  14.822  1.00  0.00    -0.393 OA
ATOM     11  H1  UNL     1      14.245  14.260  14.633  1.00  0.00     0.210 HD
ENDBRANCH   6  10
BRANCH   7  12
HETATM   12  O2  UNL     1      12.306  17.424  15.023  1.00  0.00    -0.390 OA
ATOM     13  H2  UNL     1      11.514  17.342  14.505  1.00  0.00     0.210 HD
ENDBRANCH   7  12
BRANCH   8  14
HETATM   14  O3  UNL     1      12.553  14.306  16.809  1.00  0.00    -0.390 OA
ATOM     15  H3  UNL     1      12.842  13.716  16.122  1.00  0.00     0.210 HD
ENDBRANCH   8  14
BRANCH   9  16
HETATM   16  O4  UNL     1      11.932  17.806  17.339  1.00  0.00    -0.393 OA
ATOM     17  H4  UNL     1      11.775  17.893  16.407  1.00  0.00     0.210 HD
ENDBRANCH   9  16
TORSDOF 4
ENDMDL
