MODEL 1
REMARK VINA RESULT: -5.696958011      0.000      0.000
REMARK  3 active torsions:
REMARK  status: ('A' for Active; 'I' for Inactive)
REMARK    1  A    between atoms: C3_3  and  O1_4 
REMARK    2  A    between atoms: C6_8  and  O2_9 
REMARK    3  A    between atoms: C10_14  and  O3_15 
ROOT
HETATM    1  C1  UNL     1      11.978  14.583  16.049  1.00  0.00     0.021 C 
HETATM    2  C2  UNL     1      12.604  15.920  15.997  1.00  0.00     0.020 C 
HETATM    3  C3  UNL     1      11.831  16.952  15.213  1.00  0.00     0.136 C 
HETATM    4  C4  UNL     1      12.376  17.975  16.222  1.00  0.00     0.053 C 
HETATM    5  C5  UNL     1      13.719  18.411  15.688  1.00  0.00     0.042 C 
HETATM    6  C6  UNL     1      14.522  17.269  15.184  1.00  0.00     0.123 C 
HETATM    7  C7  UNL     1      14.070  15.951  15.757  1.00  0.00     0.028 C 
HETATM    8  C8  UNL     1      14.626  15.892  17.187  1.00  0.00     0.011 C 
HETATM    9  C9  UNL     1      13.716  16.806  17.960  1.00  0.00     0.040 C 
HETATM   10  C10 UNL     1      12.437  16.810  17.205  1.00  0.00     0.074 C 
ENDROOT
BRANCH   3  11
HETATM   11  O1  UNL     1      10.466  16.799  15.449  1.00  0.00    -0.394 OA
ATOM     12  H1  UNL     1      10.106  17.610  15.789  1.00  0.00     0.210 HD
ENDBRANCH   3  11
BRANCH  10  13
HETATM   13  O3  UNL     1      11.276  16.656  17.919  1.00  0.00    -0.388 OA
ATOM     14  H3  UNL     1      10.473  16.909  17.479  1.00  0.00     0.210 HD
ENDBRANCH  10  13
BRANCH   6  15
HETATM   15  O2  UNL     1      14.571  17.155  13.809  1.00  0.00    -0.395 OA
ATOM     16  H2  UNL     1      14.823  17.948  13.350  1.00  0.00     0.210 HD
ENDBRANCH   6  15
TORSDOF 3
ENDMDL
MODEL 2
REMARK VINA RESULT: -5.623250957      2.112      3.565
REMARK  3 active torsions:
REMARK  status: ('A' for Active; 'I' for Inactive)
REMARK    1  A    between atoms: C3_3  and  O1_4 
REMARK    2  A    between atoms: C6_8  and  O2_9 
REMARK    3  A    between atoms: C10_14  and  O3_15 
ROOT
HETATM    1  C1  UNL     1      15.580  17.328  17.727  1.00  0.00     0.021 C 
HETATM    2  C2  UNL     1      14.388  16.466  17.601  1.00  0.00     0.020 C 
HETATM    3  C3  UNL     1      14.638  14.998  17.848  1.00  0.00     0.136 C 
HETATM    4  C4  UNL     1      13.216  14.959  18.428  1.00  0.00     0.053 C 
HETATM    5  C5  UNL     1      12.295  14.720  17.256  1.00  0.00     0.042 C 
HETATM    6  C6  UNL     1      12.662  15.542  16.076  1.00  0.00     0.123 C 
HETATM    7  C7  UNL     1      13.495  16.742  16.445  1.00  0.00     0.028 C 
HETATM    8  C8  UNL     1      12.523  17.772  17.036  1.00  0.00     0.011 C 
HETATM    9  C9  UNL     1      12.243  17.248  18.417  1.00  0.00     0.040 C 
HETATM   10  C10 UNL     1      13.432  16.430  18.770  1.00  0.00     0.074 C 
ENDROOT
BRANCH   3  11
HETATM   11  O1  UNL     1      15.538  14.843  18.901  1.00  0.00    -0.394 OA
ATOM     12  H1  UNL     1      15.678  13.919  19.070  1.00  0.00     0.210 HD
ENDBRANCH   3  11
BRANCH  10  13
HETATM   13  O3  UNL     1      13.984  16.612  20.013  1.00  0.00    -0.388 OA
ATOM     14  H3  UNL     1      13.526  17.208  20.594  1.00  0.00     0.210 HD
ENDBRANCH  10  13
BRANCH   6  15
HETATM   15  O2  UNL     1      13.308  14.855  15.067  1.00  0.00    -0.395 OA
ATOM     16  H2  UNL     1      13.282  15.276  14.216  1.00  0.00     0.210 HD
ENDBRANCH   6  15
TORSDOF 3
ENDMDL
MODEL 3
REMARK VINA RESULT: -5.585300254      1.542      2.597
REMARK  3 active torsions:
REMARK  status: ('A' for Active; 'I' for Inactive)
REMARK    1  A    between atoms: C3_3  and  O1_4 
REMARK    2  A    between atoms: C6_8  and  O2_9 
REMARK    3  A    between atoms: C10_14  and  O3_15 
ROOT
HETATM    1  C1  UNL     1      12.720  14.592  17.972  1.00  0.00     0.021 C 
HETATM    2  C2  UNL     1      12.596  15.804  17.137  1.00  0.00     0.020 C 
HETATM    3  C3  UNL     1      11.822  16.934  17.771  1.00  0.00     0.136 C 
HETATM    4  C4  UNL     1      12.770  17.873  17.009  1.00  0.00     0.053 C 
HETATM    5  C5  UNL     1      12.155  18.067  15.644  1.00  0.00     0.042 C 
HETATM    6  C6  UNL     1      11.646  16.797  15.071  1.00  0.00     0.123 C 
HETATM    7  C7  UNL     1      12.281  15.584  15.701  1.00  0.00     0.028 C 
HETATM    8  C8  UNL     1      13.681  15.464  15.084  1.00  0.00     0.011 C 
HETATM    9  C9  UNL     1      14.471  16.534  15.786  1.00  0.00     0.040 C 
HETATM   10  C10 UNL     1      13.783  16.735  17.087  1.00  0.00     0.074 C 
ENDROOT
BRANCH   3  11
HETATM   11  O1  UNL     1      12.132  17.015  19.127  1.00  0.00    -0.394 OA
ATOM     12  H1  UNL     1      11.395  16.713  19.644  1.00  0.00     0.210 HD
ENDBRANCH   3  11
BRANCH  10  13
HETATM   13  O3  UNL     1      14.560  16.792  18.216  1.00  0.00    -0.388 OA
ATOM     14  H3  UNL     1      15.457  17.082  18.097  1.00  0.00     0.210 HD
ENDBRANCH  10  13
BRANCH   6  15
HETATM   15  O2  UNL     1      10.273  16.646  15.117  1.00  0.00    -0.395 OA
ATOM     16  H2  UNL     1       9.911  16.072  14.453  1.00  0.00     0.210 HD
ENDBRANCH   6  15
TORSDOF 3
ENDMDL
MODEL 4
REMARK VINA RESULT: -5.567533414      1.435      2.672
REMARK  3 active torsions:
REMARK  status: ('A' for Active; 'I' for Inactive)
REMARK    1  A    between atoms: C3_3  and  O1_4 
REMARK    2  A    between atoms: C6_8  and  O2_9 
REMARK    3  A    between atoms: C10_14  and  O3_15 
ROOT
HETATM    1  C1  UNL     1      14.555  16.594  18.700  1.00  0.00     0.021 C 
HETATM    2  C2  UNL     1      13.804  16.262  17.473  1.00  0.00     0.020 C 
HETATM    3  C3  UNL     1      13.196  14.881  17.455  1.00  0.00     0.136 C 
HETATM    4  C4  UNL     1      12.057  15.505  16.635  1.00  0.00     0.053 C 
HETATM    5  C5  UNL     1      12.503  15.450  15.194  1.00  0.00     0.042 C 
HETATM    6  C6  UNL     1      13.925  15.844  15.029  1.00  0.00     0.123 C 
HETATM    7  C7  UNL     1      14.432  16.663  16.187  1.00  0.00     0.028 C 
HETATM    8  C8  UNL     1      13.872  18.078  15.989  1.00  0.00     0.011 C 
HETATM    9  C9  UNL     1      12.433  17.953  16.405  1.00  0.00     0.040 C 
HETATM   10  C10 UNL     1      12.401  16.807  17.351  1.00  0.00     0.074 C 
ENDROOT
BRANCH   3  11
HETATM   11  O1  UNL     1      12.697  14.569  18.718  1.00  0.00    -0.394 OA
ATOM     12  H1  UNL     1      11.903  14.054  18.631  1.00  0.00     0.210 HD
ENDBRANCH   3  11
BRANCH  10  13
HETATM   13  O3  UNL     1      11.707  16.969  18.523  1.00  0.00    -0.388 OA
ATOM     14  H3  UNL     1      12.037  17.629  19.121  1.00  0.00     0.210 HD
ENDBRANCH  10  13
BRANCH   6  15
HETATM   15  O2  UNL     1      14.798  14.795  14.819  1.00  0.00    -0.395 OA
ATOM     16  H2  UNL     1      15.405  14.918  14.098  1.00  0.00     0.210 HD
ENDBRANCH   6  15
TORSDOF 3
ENDMDL
MODEL 5
REMARK VINA RESULT: -5.511371495      1.658      2.904
REMARK  3 active torsions:
REMARK  status: ('A' for Active; 'I' for Inactive)
REMARK    1  A    between atoms: C3_3  and  O1_4 
REMARK    2  A    between atoms: C6_8  and  O2_9 
REMARK    3  A    between atoms: C10_14  and  O3_15 
ROOT
HETATM    1  C1  UNL     1      12.156  15.057  15.193  1.00  0.00     0.021 C 
HETATM    2  C2  UNL     1      13.174  15.759  16.000  1.00  0.00     0.020 C 
HETATM    3  C3  UNL     1      14.558  15.777  15.398  1.00  0.00     0.136 C 
HETATM    4  C4  UNL     1      14.713  17.157  16.055  1.00  0.00     0.053 C 
HETATM    5  C5  UNL     1      15.205  16.897  17.459  1.00  0.00     0.042 C 
HETATM    6  C6  UNL     1      14.487  15.771  18.107  1.00  0.00     0.123 C 
HETATM    7  C7  UNL     1      13.154  15.491  17.462  1.00  0.00     0.028 C 
HETATM    8  C8  UNL     1      12.196  16.578  17.969  1.00  0.00     0.011 C 
HETATM    9  C9  UNL     1      12.587  17.795  17.177  1.00  0.00     0.040 C 
HETATM   10  C10 UNL     1      13.197  17.267  15.929  1.00  0.00     0.074 C 
ENDROOT
BRANCH   3  11
HETATM   11  O1  UNL     1      14.471  15.963  14.020  1.00  0.00    -0.394 OA
ATOM     12  H1  UNL     1      15.099  16.620  13.744  1.00  0.00     0.210 HD
ENDBRANCH   3  11
BRANCH  10  13
HETATM   13  O3  UNL     1      12.801  17.826  14.741  1.00  0.00    -0.388 OA
ATOM     14  H3  UNL     1      12.657  18.765  14.744  1.00  0.00     0.210 HD
ENDBRANCH  10  13
BRANCH   6  15
HETATM   15  O2  UNL     1      15.197  14.589  18.174  1.00  0.00    -0.395 OA
ATOM     16  H2  UNL     1      14.665  13.802  18.181  1.00  0.00     0.210 HD
ENDBRANCH   6  15
TORSDOF 3
ENDMDL
