MODEL 1
REMARK VINA RESULT: -6.386956538      0.000      0.000
REMARK  3 active torsions:
REMARK  status: ('A' for Active; 'I' for Inactive)
REMARK    1  A    between atoms: C8_8  and  O1_9 
REMARK    2  A    between atoms: C9_11  and  O2_12 
REMARK    3  A    between atoms: C10_14  and  O3_15 
ROOT
HETATM    1  C1  UNL     1      12.837  17.347  18.259  1.00  0.00     0.012 C 
HETATM    2  C2  UNL     1      12.973  16.757  19.305  1.00  0.00    -0.110 C 
HETATM    3  C3  UNL     1      13.136  16.056  20.597  1.00  0.00     0.095 C 
HETATM    4  C4  UNL     1      14.555  15.583  20.715  1.00  0.00     0.020 C 
HETATM    5  C5  UNL     1      15.539  16.702  20.865  1.00  0.00     0.001 C 
HETATM    6  C6  UNL     1      16.108  16.846  22.233  1.00  0.00     0.003 C 
HETATM    7  C7  UNL     1      15.131  17.496  23.214  1.00  0.00     0.034 C 
HETATM    8  C8  UNL     1      14.117  16.556  23.731  1.00  0.00     0.149 C 
HETATM    9  C9  UNL     1      12.815  16.521  23.044  1.00  0.00     0.176 C 
HETATM   10  C10 UNL     1      12.748  17.047  21.669  1.00  0.00     0.165 C 
ENDROOT
BRANCH  10  11
HETATM   11  O3  UNL     1      11.383  17.336  21.408  1.00  0.00    -0.392 OA
ATOM     12  H3  UNL     1      10.903  16.702  21.927  1.00  0.00     0.210 HD
ENDBRANCH  10  11
BRANCH   9  13
HETATM   13  O2  UNL     1      11.828  17.192  23.807  1.00  0.00    -0.390 OA
ATOM     14  H2  UNL     1      11.492  16.628  24.494  1.00  0.00     0.210 HD
ENDBRANCH   9  13
BRANCH   8  15
HETATM   15  O1  UNL     1      13.876  16.850  25.098  1.00  0.00    -0.393 OA
ATOM     16  H1  UNL     1      13.326  17.623  25.152  1.00  0.00     0.210 HD
ENDBRANCH   8  15
TORSDOF 3
ENDMDL
MODEL 2
REMARK VINA RESULT: -6.107253225      4.176      5.784
REMARK  3 active torsions:
REMARK  status: ('A' for Active; 'I' for Inactive)
REMARK    1  A    between atoms: C8_8  and  O1_9 
REMARK    2  A    between atoms: C9_11  and  O2_12 
REMARK    3  A    between atoms: C10_14  and  O3_15 
ROOT
HETATM    1  C1  UNL     1      14.289  13.603  19.538  1.00  0.00     0.012 C 
HETATM    2  C2  UNL     1      13.834  14.682  19.238  1.00  0.00    -0.110 C 
HETATM    3  C3  UNL     1      13.273  15.993  18.848  1.00  0.00     0.095 C 
HETATM    4  C4  UNL     1      14.381  17.005  18.824  1.00  0.00     0.020 C 
HETATM    5  C5  UNL     1      15.367  16.772  17.722  1.00  0.00     0.001 C 
HETATM    6  C6  UNL     1      15.273  17.738  16.593  1.00  0.00     0.003 C 
HETATM    7  C7  UNL     1      14.087  17.454  15.670  1.00  0.00     0.034 C 
HETATM    8  C8  UNL     1      12.804  17.950  16.206  1.00  0.00     0.149 C 
HETATM    9  C9  UNL     1      11.967  16.993  16.950  1.00  0.00     0.176 C 
HETATM   10  C10 UNL     1      12.621  15.792  17.501  1.00  0.00     0.165 C 
ENDROOT
BRANCH  10  11
HETATM   11  O3  UNL     1      11.593  14.843  17.742  1.00  0.00    -0.392 OA
ATOM     12  H3  UNL     1      10.904  15.079  17.132  1.00  0.00     0.210 HD
ENDBRANCH  10  11
BRANCH   9  13
HETATM   13  O2  UNL     1      10.875  16.561  16.160  1.00  0.00    -0.390 OA
ATOM     14  H2  UNL     1      10.152  16.279  16.709  1.00  0.00     0.210 HD
ENDBRANCH   9  13
BRANCH   8  15
HETATM   15  O1  UNL     1      12.026  18.458  15.133  1.00  0.00    -0.393 OA
ATOM     16  H1  UNL     1      11.779  17.737  14.566  1.00  0.00     0.210 HD
ENDBRANCH   8  15
TORSDOF 3
ENDMDL
MODEL 3
REMARK VINA RESULT: -5.926038547      3.372      4.666
REMARK  3 active torsions:
REMARK  status: ('A' for Active; 'I' for Inactive)
REMARK    1  A    between atoms: C8_8  and  O1_9 
REMARK    2  A    between atoms: C9_11  and  O2_12 
REMARK    3  A    between atoms: C10_14  and  O3_15 
ROOT
HETATM    1  C1  UNL     1      13.290  16.815  20.953  1.00  0.00     0.012 C 
HETATM    2  C2  UNL     1      14.439  16.447  20.884  1.00  0.00    -0.110 C 
HETATM    3  C3  UNL     1      15.852  16.017  20.808  1.00  0.00     0.095 C 
HETATM    4  C4  UNL     1      16.233  15.860  19.365  1.00  0.00     0.020 C 
HETATM    5  C5  UNL     1      16.284  17.160  18.625  1.00  0.00     0.001 C 
HETATM    6  C6  UNL     1      17.658  17.640  18.311  1.00  0.00     0.003 C 
HETATM    7  C7  UNL     1      18.367  18.238  19.528  1.00  0.00     0.034 C 
HETATM    8  C8  UNL     1      18.927  17.215  20.434  1.00  0.00     0.149 C 
HETATM    9  C9  UNL     1      18.105  16.810  21.586  1.00  0.00     0.176 C 
HETATM   10  C10 UNL     1      16.656  17.076  21.524  1.00  0.00     0.165 C 
ENDROOT
BRANCH  10  11
HETATM   11  O3  UNL     1      16.178  17.042  22.860  1.00  0.00    -0.392 OA
ATOM     12  H3  UNL     1      15.353  16.573  22.806  1.00  0.00     0.210 HD
ENDBRANCH  10  11
BRANCH   9  13
HETATM   13  O2  UNL     1      18.595  17.390  22.781  1.00  0.00    -0.390 OA
ATOM     14  H2  UNL     1      18.247  16.939  23.542  1.00  0.00     0.210 HD
ENDBRANCH   9  13
BRANCH   8  15
HETATM   15  O1  UNL     1      20.171  17.679  20.934  1.00  0.00    -0.393 OA
ATOM     16  H1  UNL     1      20.763  17.813  20.204  1.00  0.00     0.210 HD
ENDBRANCH   8  15
TORSDOF 3
ENDMDL
MODEL 4
REMARK VINA RESULT: -5.900276384      3.608      6.110
REMARK  3 active torsions:
REMARK  status: ('A' for Active; 'I' for Inactive)
REMARK    1  A    between atoms: C8_8  and  O1_9 
REMARK    2  A    between atoms: C9_11  and  O2_12 
REMARK    3  A    between atoms: C10_14  and  O3_15 
ROOT
HETATM    1  C1  UNL     1      16.135  16.123  19.401  1.00  0.00     0.012 C 
HETATM    2  C2  UNL     1      15.355  16.674  18.660  1.00  0.00    -0.110 C 
HETATM    3  C3  UNL     1      14.385  17.329  17.757  1.00  0.00     0.095 C 
HETATM    4  C4  UNL     1      14.928  17.300  16.359  1.00  0.00     0.020 C 
HETATM    5  C5  UNL     1      14.982  15.922  15.777  1.00  0.00     0.001 C 
HETATM    6  C6  UNL     1      13.951  15.649  14.737  1.00  0.00     0.003 C 
HETATM    7  C7  UNL     1      12.562  15.408  15.332  1.00  0.00     0.034 C 
HETATM    8  C8  UNL     1      11.865  16.655  15.701  1.00  0.00     0.149 C 
HETATM    9  C9  UNL     1      11.971  17.099  17.101  1.00  0.00     0.176 C 
HETATM   10  C10 UNL     1      13.087  16.572  17.907  1.00  0.00     0.165 C 
ENDROOT
BRANCH  10  11
HETATM   11  O3  UNL     1      12.727  16.750  19.269  1.00  0.00    -0.392 OA
ATOM     12  H3  UNL     1      12.388  15.905  19.538  1.00  0.00     0.210 HD
ENDBRANCH  10  11
BRANCH   9  13
HETATM   13  O2  UNL     1      10.772  16.833  17.805  1.00  0.00    -0.390 OA
ATOM     14  H2  UNL     1      10.896  16.125  18.426  1.00  0.00     0.210 HD
ENDBRANCH   9  13
BRANCH   8  15
HETATM   15  O1  UNL     1      10.486  16.515  15.398  1.00  0.00    -0.393 OA
ATOM     16  H1  UNL     1      10.260  17.130  14.710  1.00  0.00     0.210 HD
ENDBRANCH   8  15
TORSDOF 3
ENDMDL
MODEL 5
REMARK VINA RESULT: -5.881002802      3.425      5.108
REMARK  3 active torsions:
REMARK  status: ('A' for Active; 'I' for Inactive)
REMARK    1  A    between atoms: C8_8  and  O1_9 
REMARK    2  A    between atoms: C9_11  and  O2_12 
REMARK    3  A    between atoms: C10_14  and  O3_15 
ROOT
HETATM    1  C1  UNL     1      17.942  17.610  19.292  1.00  0.00     0.012 C 
HETATM    2  C2  UNL     1      16.996  16.935  18.959  1.00  0.00    -0.110 C 
HETATM    3  C3  UNL     1      15.827  16.130  18.546  1.00  0.00     0.095 C 
HETATM    4  C4  UNL     1      15.229  15.485  19.762  1.00  0.00     0.020 C 
HETATM    5  C5  UNL     1      14.591  16.466  20.695  1.00  0.00     0.001 C 
HETATM    6  C6  UNL     1      13.102  16.444  20.692  1.00  0.00     0.003 C 
HETATM    7  C7  UNL     1      12.504  17.133  19.464  1.00  0.00     0.034 C 
HETATM    8  C8  UNL     1      12.522  16.284  18.256  1.00  0.00     0.149 C 
HETATM    9  C9  UNL     1      13.654  16.453  17.329  1.00  0.00     0.176 C 
HETATM   10  C10 UNL     1      14.882  17.080  17.850  1.00  0.00     0.165 C 
ENDROOT
BRANCH  10  11
HETATM   11  O3  UNL     1      15.611  17.545  16.725  1.00  0.00    -0.392 OA
ATOM     12  H3  UNL     1      14.962  17.619  16.035  1.00  0.00     0.210 HD
ENDBRANCH  10  11
BRANCH   9  13
HETATM   13  O2  UNL     1      13.257  17.178  16.180  1.00  0.00    -0.390 OA
ATOM     14  H2  UNL     1      13.938  17.159  15.518  1.00  0.00     0.210 HD
ENDBRANCH   9  13
BRANCH   8  15
HETATM   15  O1  UNL     1      11.328  16.506  17.523  1.00  0.00    -0.393 OA
ATOM     16  H1  UNL     1      11.545  16.948  16.711  1.00  0.00     0.210 HD
ENDBRANCH   8  15
TORSDOF 3
ENDMDL
