MODEL 1
REMARK VINA RESULT: -5.775701668      0.000      0.000
REMARK  4 active torsions:
REMARK  status: ('A' for Active; 'I' for Inactive)
REMARK    1  A    between atoms: C3_3  and  O1_4 
REMARK    2  A    between atoms: C4_6  and  O2_7 
REMARK    3  A    between atoms: C5_9  and  O3_10 
REMARK    4  A    between atoms: C9_15  and  O4_16 
ROOT
HETATM    1  C1  UNL     1      13.516  16.321  21.652  1.00  0.00     0.015 C 
HETATM    2  C2  UNL     1      13.924  16.686  20.222  1.00  0.00     0.042 C 
HETATM    3  C3  UNL     1      15.239  16.067  19.939  1.00  0.00     0.155 C 
HETATM    4  C4  UNL     1      15.460  15.600  18.555  1.00  0.00     0.176 C 
HETATM    5  C5  UNL     1      14.560  16.120  17.513  1.00  0.00     0.159 C 
HETATM    6  C6  UNL     1      13.135  16.305  17.866  1.00  0.00     0.007 C 
HETATM    7  C7  UNL     1      12.251  15.247  17.190  1.00  0.00     0.020 C 
HETATM    8  C8  UNL     1      12.670  17.641  17.268  1.00  0.00     0.020 C 
HETATM    9  C9  UNL     1      12.818  16.278  19.317  1.00  0.00     0.134 C 
ENDROOT
BRANCH   3  10
HETATM   10  O1  UNL     1      16.231  16.986  20.356  1.00  0.00    -0.392 OA
ATOM     11  H1  UNL     1      16.793  17.149  19.609  1.00  0.00     0.210 HD
ENDBRANCH   3  10
BRANCH   4  12
HETATM   12  O2  UNL     1      15.456  14.188  18.479  1.00  0.00    -0.390 OA
ATOM     13  H2  UNL     1      15.425  13.889  17.578  1.00  0.00     0.210 HD
ENDBRANCH   4  12
BRANCH   9  14
HETATM   14  O4  UNL     1      11.722  17.118  19.630  1.00  0.00    -0.394 OA
ATOM     15  H4  UNL     1      11.108  16.581  20.118  1.00  0.00     0.210 HD
ENDBRANCH   9  14
BRANCH   5  16
HETATM   16  O3  UNL     1      14.614  15.220  16.420  1.00  0.00    -0.392 OA
ATOM     17  H3  UNL     1      14.974  14.403  16.744  1.00  0.00     0.210 HD
ENDBRANCH   5  16
TORSDOF 4
ENDMDL
MODEL 2
REMARK VINA RESULT: -5.693882926      1.818      3.147
REMARK  4 active torsions:
REMARK  status: ('A' for Active; 'I' for Inactive)
REMARK    1  A    between atoms: C3_3  and  O1_4 
REMARK    2  A    between atoms: C4_6  and  O2_7 
REMARK    3  A    between atoms: C5_9  and  O3_10 
REMARK    4  A    between atoms: C9_15  and  O4_16 
ROOT
HETATM    1  C1  UNL     1      16.593  17.013  18.587  1.00  0.00     0.015 C 
HETATM    2  C2  UNL     1      15.473  16.325  17.801  1.00  0.00     0.042 C 
HETATM    3  C3  UNL     1      14.720  15.452  18.730  1.00  0.00     0.155 C 
HETATM    4  C4  UNL     1      13.267  15.333  18.486  1.00  0.00     0.176 C 
HETATM    5  C5  UNL     1      12.766  15.749  17.166  1.00  0.00     0.159 C 
HETATM    6  C6  UNL     1      13.387  16.935  16.538  1.00  0.00     0.007 C 
HETATM    7  C7  UNL     1      12.437  18.141  16.558  1.00  0.00     0.020 C 
HETATM    8  C8  UNL     1      13.594  16.627  15.047  1.00  0.00     0.020 C 
HETATM    9  C9  UNL     1      14.675  17.383  17.130  1.00  0.00     0.134 C 
ENDROOT
BRANCH   3  10
HETATM   10  O1  UNL     1      15.363  14.192  18.732  1.00  0.00    -0.392 OA
ATOM     11  H1  UNL     1      14.779  13.578  18.303  1.00  0.00     0.210 HD
ENDBRANCH   3  10
BRANCH   4  12
HETATM   12  O2  UNL     1      12.520  16.012  19.477  1.00  0.00    -0.390 OA
ATOM     13  H2  UNL     1      11.711  15.554  19.675  1.00  0.00     0.210 HD
ENDBRANCH   4  12
BRANCH   9  14
HETATM   14  O4  UNL     1      15.525  17.963  16.158  1.00  0.00    -0.394 OA
ATOM     15  H4  UNL     1      15.293  18.883  16.117  1.00  0.00     0.210 HD
ENDBRANCH   9  14
BRANCH   5  16
HETATM   16  O3  UNL     1      11.382  16.018  17.305  1.00  0.00    -0.392 OA
ATOM     17  H3  UNL     1      11.292  16.938  17.523  1.00  0.00     0.210 HD
ENDBRANCH   5  16
TORSDOF 4
ENDMDL
MODEL 3
REMARK VINA RESULT: -5.547211593      2.073      3.477
REMARK  4 active torsions:
REMARK  status: ('A' for Active; 'I' for Inactive)
REMARK    1  A    between atoms: C3_3  and  O1_4 
REMARK    2  A    between atoms: C4_6  and  O2_7 
REMARK    3  A    between atoms: C5_9  and  O3_10 
REMARK    4  A    between atoms: C9_15  and  O4_16 
ROOT
HETATM    1  C1  UNL     1      15.551  16.913  18.893  1.00  0.00     0.015 C 
HETATM    2  C2  UNL     1      14.920  16.182  17.704  1.00  0.00     0.042 C 
HETATM    3  C3  UNL     1      13.794  15.362  18.206  1.00  0.00     0.155 C 
HETATM    4  C4  UNL     1      12.628  15.229  17.307  1.00  0.00     0.176 C 
HETATM    5  C5  UNL     1      12.825  15.568  15.888  1.00  0.00     0.159 C 
HETATM    6  C6  UNL     1      13.701  16.718  15.572  1.00  0.00     0.007 C 
HETATM    7  C7  UNL     1      12.887  17.922  15.078  1.00  0.00     0.020 C 
HETATM    8  C8  UNL     1      14.582  16.325  14.377  1.00  0.00     0.020 C 
HETATM    9  C9  UNL     1      14.565  17.199  16.682  1.00  0.00     0.134 C 
ENDROOT
BRANCH   3  10
HETATM   10  O1  UNL     1      14.326  14.104  18.577  1.00  0.00    -0.392 OA
ATOM     11  H1  UNL     1      13.594  13.553  18.826  1.00  0.00     0.210 HD
ENDBRANCH   3  10
BRANCH   4  12
HETATM   12  O2  UNL     1      11.519  15.962  17.788  1.00  0.00    -0.390 OA
ATOM     13  H2  UNL     1      10.844  16.046  17.124  1.00  0.00     0.210 HD
ENDBRANCH   4  12
BRANCH   9  14
HETATM   14  O4  UNL     1      15.789  17.723  16.204  1.00  0.00    -0.394 OA
ATOM     15  H4  UNL     1      16.186  18.181  16.936  1.00  0.00     0.210 HD
ENDBRANCH   9  14
BRANCH   5  16
HETATM   16  O3  UNL     1      11.548  15.844  15.339  1.00  0.00    -0.392 OA
ATOM     17  H3  UNL     1      11.645  15.865  14.394  1.00  0.00     0.210 HD
ENDBRANCH   5  16
TORSDOF 4
ENDMDL
MODEL 4
REMARK VINA RESULT: -5.420885074      1.946      3.997
REMARK  4 active torsions:
REMARK  status: ('A' for Active; 'I' for Inactive)
REMARK    1  A    between atoms: C3_3  and  O1_4 
REMARK    2  A    between atoms: C4_6  and  O2_7 
REMARK    3  A    between atoms: C5_9  and  O3_10 
REMARK    4  A    between atoms: C9_15  and  O4_16 
ROOT
HETATM    1  C1  UNL     1      14.941  17.871  15.478  1.00  0.00     0.015 C 
HETATM    2  C2  UNL     1      14.108  17.459  16.695  1.00  0.00     0.042 C 
HETATM    3  C3  UNL     1      12.840  16.867  16.213  1.00  0.00     0.155 C 
HETATM    4  C4  UNL     1      12.285  15.760  17.020  1.00  0.00     0.176 C 
HETATM    5  C5  UNL     1      12.792  15.601  18.392  1.00  0.00     0.159 C 
HETATM    6  C6  UNL     1      14.231  15.854  18.626  1.00  0.00     0.007 C 
HETATM    7  C7  UNL     1      14.994  14.546  18.885  1.00  0.00     0.020 C 
HETATM    8  C8  UNL     1      14.364  16.649  19.933  1.00  0.00     0.020 C 
HETATM    9  C9  UNL     1      14.949  16.571  17.539  1.00  0.00     0.134 C 
ENDROOT
BRANCH   3  10
HETATM   10  O1  UNL     1      11.916  17.927  16.058  1.00  0.00    -0.392 OA
ATOM     11  H1  UNL     1      12.230  18.470  15.345  1.00  0.00     0.210 HD
ENDBRANCH   3  10
BRANCH   4  12
HETATM   12  O2  UNL     1      12.416  14.519  16.353  1.00  0.00    -0.390 OA
ATOM     13  H2  UNL     1      11.899  13.843  16.775  1.00  0.00     0.210 HD
ENDBRANCH   4  12
BRANCH   9  14
HETATM   14  O4  UNL     1      15.993  17.380  18.046  1.00  0.00    -0.394 OA
ATOM     15  H4  UNL     1      16.158  17.077  18.931  1.00  0.00     0.210 HD
ENDBRANCH   9  14
BRANCH   5  16
HETATM   16  O3  UNL     1      12.525  14.267  18.790  1.00  0.00    -0.392 OA
ATOM     17  H3  UNL     1      11.756  14.286  19.347  1.00  0.00     0.210 HD
ENDBRANCH   5  16
TORSDOF 4
ENDMDL
MODEL 5
REMARK VINA RESULT: -5.279055368      2.243      4.639
REMARK  4 active torsions:
REMARK  status: ('A' for Active; 'I' for Inactive)
REMARK    1  A    between atoms: C3_3  and  O1_4 
REMARK    2  A    between atoms: C4_6  and  O2_7 
REMARK    3  A    between atoms: C5_9  and  O3_10 
REMARK    4  A    between atoms: C9_15  and  O4_16 
ROOT
HETATM    1  C1  UNL     1      14.718  15.898  14.171  1.00  0.00     0.015 C 
HETATM    2  C2  UNL     1      14.170  16.608  15.412  1.00  0.00     0.042 C 
HETATM    3  C3  UNL     1      12.923  17.311  15.035  1.00  0.00     0.155 C 
HETATM    4  C4  UNL     1      11.865  17.370  16.065  1.00  0.00     0.176 C 
HETATM    5  C5  UNL     1      12.259  17.092  17.456  1.00  0.00     0.159 C 
HETATM    6  C6  UNL     1      13.266  16.034  17.686  1.00  0.00     0.007 C 
HETATM    7  C7  UNL     1      12.628  14.778  18.299  1.00  0.00     0.020 C 
HETATM    8  C8  UNL     1      14.244  16.537  18.759  1.00  0.00     0.020 C 
HETATM    9  C9  UNL     1      14.031  15.595  16.490  1.00  0.00     0.134 C 
ENDROOT
BRANCH   3  10
HETATM   10  O1  UNL     1      13.292  18.598  14.577  1.00  0.00    -0.392 OA
ATOM     11  H1  UNL     1      13.284  19.176  15.330  1.00  0.00     0.210 HD
ENDBRANCH   3  10
BRANCH   4  12
HETATM   12  O2  UNL     1      10.777  16.529  15.736  1.00  0.00    -0.390 OA
ATOM     13  H2  UNL     1       9.990  17.032  15.561  1.00  0.00     0.210 HD
ENDBRANCH   4  12
BRANCH   9  14
HETATM   14  O4  UNL     1      15.346  15.194  16.827  1.00  0.00    -0.394 OA
ATOM     15  H4  UNL     1      15.263  14.361  17.276  1.00  0.00     0.210 HD
ENDBRANCH   9  14
BRANCH   5  16
HETATM   16  O3  UNL     1      11.086  16.724  18.161  1.00  0.00    -0.392 OA
ATOM     17  H3  UNL     1      10.603  17.521  18.343  1.00  0.00     0.210 HD
ENDBRANCH   5  16
TORSDOF 4
ENDMDL
