MODEL 1
REMARK VINA RESULT: -6.024403005      0.000      0.000
REMARK  4 active torsions:
REMARK  status: ('A' for Active; 'I' for Inactive)
REMARK    1  A    between atoms: O1_1  and  C1_3 
REMARK    2  A    between atoms: C2_4  and  O2_5 
REMARK    3  A    between atoms: C3_7  and  O3_8 
REMARK    4  A    between atoms: C9_15  and  O4_16 
ROOT
HETATM    1  C1  UNL     1      13.944  15.513  16.977  1.00  0.00     0.178 C 
HETATM    2  C2  UNL     1      12.754  15.272  17.858  1.00  0.00     0.178 C 
HETATM    3  C3  UNL     1      12.523  16.538  18.663  1.00  0.00     0.154 C 
HETATM    4  C4  UNL     1      13.694  16.915  19.491  1.00  0.00     0.024 C 
HETATM    5  C5  UNL     1      13.745  16.074  20.764  1.00  0.00     0.007 C 
HETATM    6  C6  UNL     1      15.108  16.440  21.300  1.00  0.00     0.001 C 
HETATM    7  C7  UNL     1      15.941  16.516  20.064  1.00  0.00     0.007 C 
HETATM    8  C8  UNL     1      15.020  16.725  18.891  1.00  0.00     0.024 C 
HETATM    9  C9  UNL     1      15.153  15.629  17.898  1.00  0.00     0.154 C 
ENDROOT
BRANCH   1  10
HETATM   10  O1  UNL     1      13.823  16.677  16.218  1.00  0.00    -0.390 OA
ATOM     11  H1  UNL     1      14.479  16.737  15.534  1.00  0.00     0.210 HD
ENDBRANCH   1  10
BRANCH   2  12
HETATM   12  O2  UNL     1      11.609  14.934  17.181  1.00  0.00    -0.390 OA
ATOM     13  H2  UNL     1      11.013  15.659  17.034  1.00  0.00     0.210 HD
ENDBRANCH   2  12
BRANCH   9  14
HETATM   14  O4  UNL     1      15.393  14.377  18.462  1.00  0.00    -0.393 OA
ATOM     15  H4  UNL     1      16.307  14.157  18.320  1.00  0.00     0.210 HD
ENDBRANCH   9  14
BRANCH   3  16
HETATM   16  O3  UNL     1      12.078  17.579  17.856  1.00  0.00    -0.393 OA
ATOM     17  H3  UNL     1      11.149  17.741  17.978  1.00  0.00     0.210 HD
ENDBRANCH   3  16
TORSDOF 4
ENDMDL
MODEL 2
REMARK VINA RESULT: -5.918067198      1.615      2.402
REMARK  4 active torsions:
REMARK  status: ('A' for Active; 'I' for Inactive)
REMARK    1  A    between atoms: O1_1  and  C1_3 
REMARK    2  A    between atoms: C2_4  and  O2_5 
REMARK    3  A    between atoms: C3_7  and  O3_8 
REMARK    4  A    between atoms: C9_15  and  O4_16 
ROOT
HETATM    1  C1  UNL     1      12.700  15.251  17.370  1.00  0.00     0.178 C 
HETATM    2  C2  UNL     1      13.362  14.739  18.615  1.00  0.00     0.178 C 
HETATM    3  C3  UNL     1      13.678  15.940  19.487  1.00  0.00     0.154 C 
HETATM    4  C4  UNL     1      14.563  16.922  18.815  1.00  0.00     0.024 C 
HETATM    5  C5  UNL     1      16.017  16.458  18.866  1.00  0.00     0.007 C 
HETATM    6  C6  UNL     1      16.671  17.447  17.932  1.00  0.00     0.001 C 
HETATM    7  C7  UNL     1      15.659  17.596  16.845  1.00  0.00     0.007 C 
HETATM    8  C8  UNL     1      14.322  17.165  17.388  1.00  0.00     0.024 C 
HETATM    9  C9  UNL     1      13.759  16.036  16.604  1.00  0.00     0.154 C 
ENDROOT
BRANCH   1  10
HETATM   10  O1  UNL     1      11.613  16.081  17.643  1.00  0.00    -0.390 OA
ATOM     11  H1  UNL     1      11.215  16.434  16.855  1.00  0.00     0.210 HD
ENDBRANCH   1  10
BRANCH   2  12
HETATM   12  O2  UNL     1      12.610  13.833  19.322  1.00  0.00    -0.390 OA
ATOM     13  H2  UNL     1      12.244  14.175  20.130  1.00  0.00     0.210 HD
ENDBRANCH   2  12
BRANCH   9  14
HETATM   14  O4  UNL     1      14.715  15.136  16.137  1.00  0.00    -0.393 OA
ATOM     15  H4  UNL     1      15.576  15.509  16.291  1.00  0.00     0.210 HD
ENDBRANCH   9  14
BRANCH   3  16
HETATM   16  O3  UNL     1      12.520  16.519  19.995  1.00  0.00    -0.393 OA
ATOM     17  H3  UNL     1      12.670  17.419  20.262  1.00  0.00     0.210 HD
ENDBRANCH   3  16
TORSDOF 4
ENDMDL
MODEL 3
REMARK VINA RESULT: -5.612820259      2.165      3.155
REMARK  4 active torsions:
REMARK  status: ('A' for Active; 'I' for Inactive)
REMARK    1  A    between atoms: O1_1  and  C1_3 
REMARK    2  A    between atoms: C2_4  and  O2_5 
REMARK    3  A    between atoms: C3_7  and  O3_8 
REMARK    4  A    between atoms: C9_15  and  O4_16 
ROOT
HETATM    1  C1  UNL     1      11.980  15.542  15.932  1.00  0.00     0.178 C 
HETATM    2  C2  UNL     1      12.599  15.172  17.248  1.00  0.00     0.178 C 
HETATM    3  C3  UNL     1      12.891  16.464  17.990  1.00  0.00     0.154 C 
HETATM    4  C4  UNL     1      13.801  17.364  17.242  1.00  0.00     0.024 C 
HETATM    5  C5  UNL     1      15.251  16.909  17.392  1.00  0.00     0.007 C 
HETATM    6  C6  UNL     1      15.939  17.787  16.375  1.00  0.00     0.001 C 
HETATM    7  C7  UNL     1      14.963  17.812  15.245  1.00  0.00     0.007 C 
HETATM    8  C8  UNL     1      13.608  17.445  15.789  1.00  0.00     0.024 C 
HETATM    9  C9  UNL     1      13.066  16.236  15.118  1.00  0.00     0.154 C 
ENDROOT
BRANCH   1  10
HETATM   10  O1  UNL     1      10.888  16.398  16.075  1.00  0.00    -0.390 OA
ATOM     11  H1  UNL     1      10.961  16.959  16.838  1.00  0.00     0.210 HD
ENDBRANCH   1  10
BRANCH   2  12
HETATM   12  O2  UNL     1      11.821  14.352  18.028  1.00  0.00    -0.390 OA
ATOM     13  H2  UNL     1      11.594  14.718  18.875  1.00  0.00     0.210 HD
ENDBRANCH   2  12
BRANCH   9  14
HETATM   14  O4  UNL     1      14.034  15.289  14.787  1.00  0.00    -0.393 OA
ATOM     15  H4  UNL     1      13.595  14.468  14.595  1.00  0.00     0.210 HD
ENDBRANCH   9  14
BRANCH   3  16
HETATM   16  O3  UNL     1      11.719  17.097  18.391  1.00  0.00    -0.393 OA
ATOM     17  H3  UNL     1      11.892  17.969  18.726  1.00  0.00     0.210 HD
ENDBRANCH   3  16
TORSDOF 4
ENDMDL
MODEL 4
REMARK VINA RESULT: -5.514869536      1.332      2.650
REMARK  4 active torsions:
REMARK  status: ('A' for Active; 'I' for Inactive)
REMARK    1  A    between atoms: O1_1  and  C1_3 
REMARK    2  A    between atoms: C2_4  and  O2_5 
REMARK    3  A    between atoms: C3_7  and  O3_8 
REMARK    4  A    between atoms: C9_15  and  O4_16 
ROOT
HETATM    1  C1  UNL     1      12.375  15.805  17.443  1.00  0.00     0.178 C 
HETATM    2  C2  UNL     1      13.244  16.828  16.773  1.00  0.00     0.178 C 
HETATM    3  C3  UNL     1      14.649  16.256  16.709  1.00  0.00     0.154 C 
HETATM    4  C4  UNL     1      15.198  15.928  18.047  1.00  0.00     0.024 C 
HETATM    5  C5  UNL     1      15.705  17.188  18.743  1.00  0.00     0.007 C 
HETATM    6  C6  UNL     1      15.969  16.665  20.135  1.00  0.00     0.001 C 
HETATM    7  C7  UNL     1      14.824  15.734  20.362  1.00  0.00     0.007 C 
HETATM    8  C8  UNL     1      14.270  15.339  19.019  1.00  0.00     0.024 C 
HETATM    9  C9  UNL     1      12.840  15.718  18.892  1.00  0.00     0.154 C 
ENDROOT
BRANCH   1  10
HETATM   10  O1  UNL     1      12.470  14.547  16.848  1.00  0.00    -0.390 OA
ATOM     11  H1  UNL     1      11.853  13.923  17.211  1.00  0.00     0.210 HD
ENDBRANCH   1  10
BRANCH   2  12
HETATM   12  O2  UNL     1      12.828  17.186  15.515  1.00  0.00    -0.390 OA
ATOM     13  H2  UNL     1      12.084  16.690  15.193  1.00  0.00     0.210 HD
ENDBRANCH   2  12
BRANCH   9  14
HETATM   14  O4  UNL     1      12.511  16.915  19.527  1.00  0.00    -0.393 OA
ATOM     15  H4  UNL     1      13.269  17.487  19.494  1.00  0.00     0.210 HD
ENDBRANCH   9  14
BRANCH   3  16
HETATM   16  O3  UNL     1      14.724  15.189  15.821  1.00  0.00    -0.393 OA
ATOM     17  H3  UNL     1      14.661  15.482  14.919  1.00  0.00     0.210 HD
ENDBRANCH   3  16
TORSDOF 4
ENDMDL
MODEL 5
REMARK VINA RESULT: -5.479355465      2.001      3.967
REMARK  4 active torsions:
REMARK  status: ('A' for Active; 'I' for Inactive)
REMARK    1  A    between atoms: O1_1  and  C1_3 
REMARK    2  A    between atoms: C2_4  and  O2_5 
REMARK    3  A    between atoms: C3_7  and  O3_8 
REMARK    4  A    between atoms: C9_15  and  O4_16 
ROOT
HETATM    1  C1  UNL     1      13.112  14.907  18.231  1.00  0.00     0.178 C 
HETATM    2  C2  UNL     1      14.547  15.035  17.813  1.00  0.00     0.178 C 
HETATM    3  C3  UNL     1      14.905  16.509  17.866  1.00  0.00     0.154 C 
HETATM    4  C4  UNL     1      14.049  17.341  16.986  1.00  0.00     0.024 C 
HETATM    5  C5  UNL     1      14.516  17.244  15.536  1.00  0.00     0.007 C 
HETATM    6  C6  UNL     1      13.383  17.938  14.818  1.00  0.00     0.001 C 
HETATM    7  C7  UNL     1      12.179  17.464  15.563  1.00  0.00     0.007 C 
HETATM    8  C8  UNL     1      12.625  16.990  16.920  1.00  0.00     0.024 C 
HETATM    9  C9  UNL     1      12.278  15.562  17.135  1.00  0.00     0.154 C 
ENDROOT
BRANCH   1  10
HETATM   10  O1  UNL     1      12.851  15.531  19.450  1.00  0.00    -0.390 OA
ATOM     11  H1  UNL     1      13.143  15.017  20.194  1.00  0.00     0.210 HD
ENDBRANCH   1  10
BRANCH   2  12
HETATM   12  O2  UNL     1      15.426  14.313  18.582  1.00  0.00    -0.390 OA
ATOM     13  H2  UNL     1      15.014  13.666  19.143  1.00  0.00     0.210 HD
ENDBRANCH   2  12
BRANCH   9  14
HETATM   14  O4  UNL     1      12.372  14.776  15.988  1.00  0.00    -0.393 OA
ATOM     15  H4  UNL     1      12.631  13.900  16.248  1.00  0.00     0.210 HD
ENDBRANCH   9  14
BRANCH   3  16
HETATM   16  O3  UNL     1      14.943  16.976  19.176  1.00  0.00    -0.393 OA
ATOM     17  H3  UNL     1      14.101  16.877  19.605  1.00  0.00     0.210 HD
ENDBRANCH   3  16
TORSDOF 4
ENDMDL
