MODEL 1
REMARK VINA RESULT: -7.359893697      0.000      0.000
REMARK  9 active torsions:
REMARK  status: ('A' for Active; 'I' for Inactive)
REMARK    1  A    between atoms: S1_2  and  C2_3 
REMARK    2  A    between atoms: C2_3  and  C3_4 
REMARK    3  A    between atoms: C3_4  and  S2_5 
REMARK    4  A    between atoms: C3_4  and  C9_11 
REMARK    5  A    between atoms: S2_5  and  C4_6 
REMARK       I    between atoms: C9_11  and  N1_13 
REMARK    6  A    between atoms: N1_13  and  C10_15 
REMARK    7  A    between atoms: C10_15  and  C11_16 
REMARK    8  A    between atoms: C13_21  and  O4_22 
REMARK    9  A    between atoms: C14_24  and  O5_25 
ROOT
HETATM    1  C9  UNL     1     -12.299  44.524  35.711  1.00  0.00     0.234 C 
HETATM    2  O1  UNL     1     -11.935  45.128  36.748  1.00  0.00    -0.272 OA
HETATM    3  N1  UNL     1     -12.656  45.277  34.576  1.00  0.00    -0.330 N 
ATOM      4  H1  UNL     1     -12.954  44.805  33.722  1.00  0.00     0.164 HD
ENDROOT
BRANCH   3   5
HETATM    5  C10 UNL     1     -12.601  46.719  34.623  1.00  0.00     0.199 C 
HETATM    6  S3  UNL     1     -13.829  47.273  33.370  1.00  0.00    -0.121 SA
HETATM    7  C12 UNL     1     -15.002  48.085  34.530  1.00  0.00     0.111 C 
HETATM    8  C13 UNL     1     -13.988  48.473  35.617  1.00  0.00     0.160 C 
HETATM    9  C14 UNL     1     -13.230  47.228  35.902  1.00  0.00     0.197 C 
BRANCH   5  10
HETATM   10  C11 UNL     1     -11.291  47.304  34.360  1.00  0.00     0.216 C 
HETATM   11  O2  UNL     1     -10.253  46.909  34.923  1.00  0.00    -0.645 OA
HETATM   12  O3  UNL     1     -11.186  48.334  33.456  1.00  0.00    -0.645 OA
ENDBRANCH   5  10
BRANCH   8  13
HETATM   13  O4  UNL     1     -14.645  48.855  36.775  1.00  0.00    -0.392 OA
ATOM     14  H4  UNL     1     -14.501  49.778  36.948  1.00  0.00     0.210 HD
ENDBRANCH   8  13
BRANCH   9  15
HETATM   15  O5  UNL     1     -12.240  47.548  36.852  1.00  0.00    -0.389 OA
ATOM     16  H5  UNL     1     -12.620  47.625  37.720  1.00  0.00     0.210 HD
ENDBRANCH   9  15
ENDBRANCH   3   5
BRANCH   1  17
HETATM   17  C3  UNL     1     -12.331  43.041  35.741  1.00  0.00     0.149 C 
BRANCH  17  18
HETATM   18  C2  UNL     1     -12.719  42.477  34.395  1.00  0.00     0.098 C 
BRANCH  18  19
HETATM   19  S1  UNL     1     -11.992  40.818  34.256  1.00  0.00    -0.172 SA
HETATM   20  C1  UNL     1     -11.652  40.379  32.541  1.00  0.00     0.089 C 
ENDBRANCH  18  19
ENDBRANCH  17  18
BRANCH  17  21
HETATM   21  S2  UNL     1     -13.410  42.482  37.047  1.00  0.00    -0.149 SA
BRANCH  21  22
HETATM   22  C4  UNL     1     -12.613  41.402  38.235  1.00  0.00     0.048 C 
HETATM   23  C5  UNL     1     -12.890  39.965  37.854  1.00  0.00     0.015 C 
HETATM   24  C6  UNL     1     -14.156  39.677  38.660  1.00  0.00     0.001 C 
HETATM   25  C7  UNL     1     -13.817  40.271  39.995  1.00  0.00     0.001 C 
HETATM   26  C8  UNL     1     -13.203  41.613  39.606  1.00  0.00     0.015 C 
ENDBRANCH  21  22
ENDBRANCH  17  21
ENDBRANCH   1  17
TORSDOF 9
ENDMDL
MODEL 2
REMARK VINA RESULT: -7.124143267      1.293      3.523
REMARK  9 active torsions:
REMARK  status: ('A' for Active; 'I' for Inactive)
REMARK    1  A    between atoms: S1_2  and  C2_3 
REMARK    2  A    between atoms: C2_3  and  C3_4 
REMARK    3  A    between atoms: C3_4  and  S2_5 
REMARK    4  A    between atoms: C3_4  and  C9_11 
REMARK    5  A    between atoms: S2_5  and  C4_6 
REMARK       I    between atoms: C9_11  and  N1_13 
REMARK    6  A    between atoms: N1_13  and  C10_15 
REMARK    7  A    between atoms: C10_15  and  C11_16 
REMARK    8  A    between atoms: C13_21  and  O4_22 
REMARK    9  A    between atoms: C14_24  and  O5_25 
ROOT
HETATM    1  C9  UNL     1     -12.788  45.034  36.301  1.00  0.00     0.234 C 
HETATM    2  O1  UNL     1     -11.957  45.662  36.999  1.00  0.00    -0.272 OA
HETATM    3  N1  UNL     1     -13.445  45.709  35.254  1.00  0.00    -0.330 N 
ATOM      4  H1  UNL     1     -14.123  45.216  34.674  1.00  0.00     0.164 HD
ENDROOT
BRANCH   3   5
HETATM    5  C10 UNL     1     -13.156  47.102  35.004  1.00  0.00     0.199 C 
HETATM    6  S3  UNL     1     -14.286  47.571  33.630  1.00  0.00    -0.121 SA
HETATM    7  C12 UNL     1     -15.304  48.784  34.564  1.00  0.00     0.111 C 
HETATM    8  C13 UNL     1     -14.233  49.223  35.574  1.00  0.00     0.160 C 
HETATM    9  C14 UNL     1     -13.686  47.960  36.131  1.00  0.00     0.197 C 
BRANCH   5  10
HETATM   10  C11 UNL     1     -11.770  47.402  34.661  1.00  0.00     0.216 C 
HETATM   11  O2  UNL     1     -11.183  48.421  35.069  1.00  0.00    -0.645 OA
HETATM   12  O3  UNL     1     -11.075  46.530  33.857  1.00  0.00    -0.645 OA
ENDBRANCH   5  10
BRANCH   8  13
HETATM   13  O4  UNL     1     -14.812  49.938  36.610  1.00  0.00    -0.392 OA
ATOM     14  H4  UNL     1     -15.139  49.347  37.278  1.00  0.00     0.210 HD
ENDBRANCH   8  13
BRANCH   9  15
HETATM   15  O5  UNL     1     -12.650  48.308  37.022  1.00  0.00    -0.389 OA
ATOM     16  H5  UNL     1     -12.865  49.106  37.491  1.00  0.00     0.210 HD
ENDBRANCH   9  15
ENDBRANCH   3   5
BRANCH   1  17
HETATM   17  C3  UNL     1     -13.031  43.606  36.621  1.00  0.00     0.149 C 
BRANCH  17  18
HETATM   18  C2  UNL     1     -12.988  43.367  38.112  1.00  0.00     0.098 C 
BRANCH  18  19
HETATM   19  S1  UNL     1     -12.789  41.581  38.383  1.00  0.00    -0.172 SA
HETATM   20  C1  UNL     1     -13.575  41.048  39.915  1.00  0.00     0.089 C 
ENDBRANCH  18  19
ENDBRANCH  17  18
BRANCH  17  21
HETATM   21  S2  UNL     1     -11.871  42.578  35.737  1.00  0.00    -0.149 SA
BRANCH  21  22
HETATM   22  C4  UNL     1     -12.619  41.588  34.443  1.00  0.00     0.048 C 
HETATM   23  C5  UNL     1     -11.980  40.218  34.444  1.00  0.00     0.015 C 
HETATM   24  C6  UNL     1     -10.846  40.412  33.438  1.00  0.00     0.001 C 
HETATM   25  C7  UNL     1     -11.535  41.153  32.331  1.00  0.00     0.001 C 
HETATM   26  C8  UNL     1     -12.341  42.200  33.094  1.00  0.00     0.015 C 
ENDBRANCH  21  22
ENDBRANCH  17  21
ENDBRANCH   1  17
TORSDOF 9
ENDMDL
MODEL 3
REMARK VINA RESULT: -7.101817924      2.321      4.282
REMARK  9 active torsions:
REMARK  status: ('A' for Active; 'I' for Inactive)
REMARK    1  A    between atoms: S1_2  and  C2_3 
REMARK    2  A    between atoms: C2_3  and  C3_4 
REMARK    3  A    between atoms: C3_4  and  S2_5 
REMARK    4  A    between atoms: C3_4  and  C9_11 
REMARK    5  A    between atoms: S2_5  and  C4_6 
REMARK       I    between atoms: C9_11  and  N1_13 
REMARK    6  A    between atoms: N1_13  and  C10_15 
REMARK    7  A    between atoms: C10_15  and  C11_16 
REMARK    8  A    between atoms: C13_21  and  O4_22 
REMARK    9  A    between atoms: C14_24  and  O5_25 
ROOT
HETATM    1  C9  UNL     1     -14.016  46.531  35.927  1.00  0.00     0.234 C 
HETATM    2  O1  UNL     1     -13.790  47.404  36.799  1.00  0.00    -0.272 OA
HETATM    3  N1  UNL     1     -14.376  46.943  34.630  1.00  0.00    -0.330 N 
ATOM      4  H1  UNL     1     -14.563  46.248  33.906  1.00  0.00     0.164 HD
ENDROOT
BRANCH   3   5
HETATM    5  C10 UNL     1     -14.481  48.350  34.325  1.00  0.00     0.199 C 
HETATM    6  S3  UNL     1     -16.198  48.563  33.698  1.00  0.00    -0.121 SA
HETATM    7  C12 UNL     1     -16.816  49.636  35.057  1.00  0.00     0.111 C 
HETATM    8  C13 UNL     1     -15.479  50.291  35.432  1.00  0.00     0.160 C 
HETATM    9  C14 UNL     1     -14.529  49.162  35.601  1.00  0.00     0.197 C 
BRANCH   5  10
HETATM   10  C11 UNL     1     -13.510  48.857  33.362  1.00  0.00     0.216 C 
HETATM   11  O2  UNL     1     -13.823  49.626  32.434  1.00  0.00    -0.645 OA
HETATM   12  O3  UNL     1     -12.194  48.477  33.474  1.00  0.00    -0.645 OA
ENDBRANCH   5  10
BRANCH   8  13
HETATM   13  O4  UNL     1     -15.589  50.950  36.646  1.00  0.00    -0.392 OA
ATOM     14  H4  UNL     1     -14.778  50.878  37.136  1.00  0.00     0.210 HD
ENDBRANCH   8  13
BRANCH   9  15
HETATM   15  O5  UNL     1     -13.264  49.717  35.886  1.00  0.00    -0.389 OA
ATOM     16  H5  UNL     1     -13.259  50.650  35.706  1.00  0.00     0.210 HD
ENDBRANCH   9  15
ENDBRANCH   3   5
BRANCH   1  17
HETATM   17  C3  UNL     1     -13.888  45.105  36.318  1.00  0.00     0.149 C 
BRANCH  17  18
HETATM   18  C2  UNL     1     -12.573  44.847  37.013  1.00  0.00     0.098 C 
BRANCH  18  19
HETATM   19  S1  UNL     1     -12.641  43.178  37.729  1.00  0.00    -0.172 SA
HETATM   20  C1  UNL     1     -12.564  43.220  39.529  1.00  0.00     0.089 C 
ENDBRANCH  18  19
ENDBRANCH  17  18
BRANCH  17  21
HETATM   21  S2  UNL     1     -14.116  44.060  34.890  1.00  0.00    -0.149 SA
BRANCH  21  22
HETATM   22  C4  UNL     1     -12.598  43.692  34.011  1.00  0.00     0.048 C 
HETATM   23  C5  UNL     1     -12.736  44.155  32.578  1.00  0.00     0.015 C 
HETATM   24  C6  UNL     1     -13.263  42.890  31.901  1.00  0.00     0.001 C 
HETATM   25  C7  UNL     1     -12.380  41.831  32.490  1.00  0.00     0.001 C 
HETATM   26  C8  UNL     1     -12.369  42.203  33.970  1.00  0.00     0.015 C 
ENDBRANCH  21  22
ENDBRANCH  17  21
ENDBRANCH   1  17
TORSDOF 9
ENDMDL
MODEL 4
REMARK VINA RESULT: -7.078046251      2.160      2.813
REMARK  9 active torsions:
REMARK  status: ('A' for Active; 'I' for Inactive)
REMARK    1  A    between atoms: S1_2  and  C2_3 
REMARK    2  A    between atoms: C2_3  and  C3_4 
REMARK    3  A    between atoms: C3_4  and  S2_5 
REMARK    4  A    between atoms: C3_4  and  C9_11 
REMARK    5  A    between atoms: S2_5  and  C4_6 
REMARK       I    between atoms: C9_11  and  N1_13 
REMARK    6  A    between atoms: N1_13  and  C10_15 
REMARK    7  A    between atoms: C10_15  and  C11_16 
REMARK    8  A    between atoms: C13_21  and  O4_22 
REMARK    9  A    between atoms: C14_24  and  O5_25 
ROOT
HETATM    1  C9  UNL     1     -13.529  46.637  35.145  1.00  0.00     0.234 C 
HETATM    2  O1  UNL     1     -12.748  47.440  35.711  1.00  0.00    -0.272 OA
HETATM    3  N1  UNL     1     -14.568  47.149  34.344  1.00  0.00    -0.330 N 
ATOM      4  H1  UNL     1     -15.212  46.512  33.875  1.00  0.00     0.164 HD
ENDROOT
BRANCH   3   5
HETATM    5  C10 UNL     1     -14.719  48.576  34.188  1.00  0.00     0.199 C 
HETATM    6  S3  UNL     1     -16.475  48.805  33.687  1.00  0.00    -0.121 SA
HETATM    7  C12 UNL     1     -17.030  49.722  35.180  1.00  0.00     0.111 C 
HETATM    8  C13 UNL     1     -15.686  50.372  35.540  1.00  0.00     0.160 C 
HETATM    9  C14 UNL     1     -14.705  49.257  35.539  1.00  0.00     0.197 C 
BRANCH   5  10
HETATM   10  C11 UNL     1     -13.819  49.200  33.225  1.00  0.00     0.216 C 
HETATM   11  O2  UNL     1     -12.709  48.717  32.932  1.00  0.00    -0.645 OA
HETATM   12  O3  UNL     1     -14.202  50.367  32.608  1.00  0.00    -0.645 OA
ENDBRANCH   5  10
BRANCH   8  13
HETATM   13  O4  UNL     1     -15.734  50.905  36.818  1.00  0.00    -0.392 OA
ATOM     14  H4  UNL     1     -15.263  51.730  36.851  1.00  0.00     0.210 HD
ENDBRANCH   8  13
BRANCH   9  15
HETATM   15  O5  UNL     1     -13.436  49.814  35.803  1.00  0.00    -0.389 OA
ATOM     16  H5  UNL     1     -13.401  50.718  35.514  1.00  0.00     0.210 HD
ENDBRANCH   9  15
ENDBRANCH   3   5
BRANCH   1  17
HETATM   17  C3  UNL     1     -13.308  45.185  35.355  1.00  0.00     0.149 C 
BRANCH  17  18
HETATM   18  C2  UNL     1     -14.213  44.363  34.469  1.00  0.00     0.098 C 
BRANCH  18  19
HETATM   19  S1  UNL     1     -13.188  43.618  33.167  1.00  0.00    -0.172 SA
HETATM   20  C1  UNL     1     -12.589  44.855  31.999  1.00  0.00     0.089 C 
ENDBRANCH  18  19
ENDBRANCH  17  18
BRANCH  17  21
HETATM   21  S2  UNL     1     -13.506  44.783  37.083  1.00  0.00    -0.149 SA
BRANCH  21  22
HETATM   22  C4  UNL     1     -12.330  43.571  37.685  1.00  0.00     0.048 C 
HETATM   23  C5  UNL     1     -12.389  42.349  36.796  1.00  0.00     0.015 C 
HETATM   24  C6  UNL     1     -13.424  41.493  37.526  1.00  0.00     0.001 C 
HETATM   25  C7  UNL     1     -12.985  41.626  38.955  1.00  0.00     0.001 C 
HETATM   26  C8  UNL     1     -12.711  43.122  39.072  1.00  0.00     0.015 C 
ENDBRANCH  21  22
ENDBRANCH  17  21
ENDBRANCH   1  17
TORSDOF 9
ENDMDL
MODEL 5
REMARK VINA RESULT: -7.071864075      1.429      3.416
REMARK  9 active torsions:
REMARK  status: ('A' for Active; 'I' for Inactive)
REMARK    1  A    between atoms: S1_2  and  C2_3 
REMARK    2  A    between atoms: C2_3  and  C3_4 
REMARK    3  A    between atoms: C3_4  and  S2_5 
REMARK    4  A    between atoms: C3_4  and  C9_11 
REMARK    5  A    between atoms: S2_5  and  C4_6 
REMARK       I    between atoms: C9_11  and  N1_13 
REMARK    6  A    between atoms: N1_13  and  C10_15 
REMARK    7  A    between atoms: C10_15  and  C11_16 
REMARK    8  A    between atoms: C13_21  and  O4_22 
REMARK    9  A    between atoms: C14_24  and  O5_25 
ROOT
HETATM    1  C9  UNL     1     -12.808  44.958  34.643  1.00  0.00     0.234 C 
HETATM    2  O1  UNL     1     -12.575  45.077  33.417  1.00  0.00    -0.272 OA
HETATM    3  N1  UNL     1     -13.022  46.118  35.411  1.00  0.00    -0.330 N 
ATOM      4  H1  UNL     1     -13.215  46.043  36.410  1.00  0.00     0.164 HD
ENDROOT
BRANCH   3   5
HETATM    5  C10 UNL     1     -12.968  47.417  34.781  1.00  0.00     0.199 C 
HETATM    6  S3  UNL     1     -14.362  47.409  33.580  1.00  0.00    -0.121 SA
HETATM    7  C12 UNL     1     -15.366  48.730  34.372  1.00  0.00     0.111 C 
HETATM    8  C13 UNL     1     -14.212  49.510  35.020  1.00  0.00     0.160 C 
HETATM    9  C14 UNL     1     -13.416  48.490  35.749  1.00  0.00     0.197 C 
BRANCH   5  10
HETATM   10  C11 UNL     1     -11.711  47.737  34.115  1.00  0.00     0.216 C 
HETATM   11  O2  UNL     1     -11.663  48.300  33.005  1.00  0.00    -0.645 OA
HETATM   12  O3  UNL     1     -10.525  47.410  34.728  1.00  0.00    -0.645 OA
ENDBRANCH   5  10
BRANCH   8  13
HETATM   13  O4  UNL     1     -14.703  50.418  35.944  1.00  0.00    -0.392 OA
ATOM     14  H4  UNL     1     -14.253  51.250  35.862  1.00  0.00     0.210 HD
ENDBRANCH   8  13
BRANCH   9  15
HETATM   15  O5  UNL     1     -12.304  49.149  36.311  1.00  0.00    -0.389 OA
ATOM     16  H5  UNL     1     -11.864  48.589  36.940  1.00  0.00     0.210 HD
ENDBRANCH   9  15
ENDBRANCH   3   5
BRANCH   1  17
HETATM   17  C3  UNL     1     -12.847  43.589  35.217  1.00  0.00     0.149 C 
BRANCH  17  18
HETATM   18  C2  UNL     1     -11.808  43.424  36.301  1.00  0.00     0.098 C 
BRANCH  18  19
HETATM   19  S1  UNL     1     -12.680  43.111  37.863  1.00  0.00    -0.172 SA
HETATM   20  C1  UNL     1     -12.920  41.348  38.153  1.00  0.00     0.089 C 
ENDBRANCH  18  19
ENDBRANCH  17  18
BRANCH  17  21
HETATM   21  S2  UNL     1     -12.668  42.380  33.917  1.00  0.00    -0.149 SA
BRANCH  21  22
HETATM   22  C4  UNL     1     -11.382  41.170  34.224  1.00  0.00     0.048 C 
HETATM   23  C5  UNL     1     -10.771  40.759  32.903  1.00  0.00     0.015 C 
HETATM   24  C6  UNL     1     -11.625  39.544  32.539  1.00  0.00     0.001 C 
HETATM   25  C7  UNL     1     -11.686  38.806  33.844  1.00  0.00     0.001 C 
HETATM   26  C8  UNL     1     -11.973  39.927  34.838  1.00  0.00     0.015 C 
ENDBRANCH  21  22
ENDBRANCH  17  21
ENDBRANCH   1  17
TORSDOF 9
ENDMDL
