MODEL 1
REMARK VINA RESULT: -8.914212486      0.000      0.000
REMARK  7 active torsions:
REMARK  status: ('A' for Active; 'I' for Inactive)
REMARK    1  A    between atoms: N3_7  and  C4_8 
REMARK    2  A    between atoms: C4_8  and  C5_9 
REMARK    3  A    between atoms: C5_9  and  C6_10 
REMARK    4  A    between atoms: C6_10  and  C7_11 
REMARK    5  A    between atoms: C9_13  and  N4_14 
REMARK    6  A    between atoms: N4_14  and  C10_16 
REMARK    7  A    between atoms: N6_22  and  C14_24 
ROOT
HETATM    1  C7  UNL     1     -13.786  43.419  36.610  1.00  0.00     0.031 A 
HETATM    2  C8  UNL     1     -13.903  42.094  36.972  1.00  0.00     0.076 A 
HETATM    3  C9  UNL     1     -13.050  41.522  37.922  1.00  0.00     0.124 A 
HETATM    4  N8  UNL     1     -12.105  42.287  38.483  1.00  0.00    -0.271 N 
ATOM      5  H8  UNL     1     -11.467  41.900  39.179  1.00  0.00     0.190 HD
HETATM    6  N9  UNL     1     -12.018  43.550  38.118  1.00  0.00    -0.241 N 
ATOM      7  H9  UNL     1     -11.294  44.123  38.552  1.00  0.00     0.208 HD
HETATM    8  N10 UNL     1     -12.805  44.126  37.226  1.00  0.00    -0.290 N 
ATOM      9  H10 UNL     1     -12.673  45.111  36.997  1.00  0.00     0.188 HD
ENDROOT
BRANCH   3  10
HETATM   10  N4  UNL     1     -13.166  40.288  38.252  1.00  0.00    -0.327 N 
ATOM     11  H4  UNL     1     -12.983  39.556  37.566  1.00  0.00     0.169 HD
BRANCH  10  12
HETATM   12  C10 UNL     1     -13.551  39.941  39.572  1.00  0.00     0.123 A 
HETATM   13  C11 UNL     1     -13.858  40.972  40.429  1.00  0.00     0.067 A 
HETATM   14  C12 UNL     1     -14.234  40.690  41.721  1.00  0.00     0.110 A 
HETATM   15  N5  UNL     1     -14.299  39.409  42.139  1.00  0.00    -0.202 N 
HETATM   16  C13 UNL     1     -14.002  38.400  41.313  1.00  0.00     0.679 A 
ATOM     17  H5  UNL     1     -14.577  39.207  43.099  1.00  0.00     0.183 HD
HETATM   18  N6  UNL     1     -14.068  37.194  41.727  1.00  0.00    -0.221 N 
HETATM   19  N7  UNL     1     -13.628  38.685  40.028  1.00  0.00    -0.177 N 
ATOM     20  H6  UNL     1     -13.839  36.432  41.089  1.00  0.00     0.178 HD
ATOM     21  H7  UNL     1     -13.401  37.916  39.398  1.00  0.00     0.186 HD
BRANCH  18  22
HETATM   22  C14 UNL     1     -14.458  36.894  43.070  1.00  0.00     0.099 C 
HETATM   23  C15 UNL     1     -13.192  36.425  43.799  1.00  0.00     0.026 C 
HETATM   24  C16 UNL     1     -13.200  34.935  43.429  1.00  0.00     0.002 C 
HETATM   25  C17 UNL     1     -14.633  34.584  43.807  1.00  0.00     0.002 C 
HETATM   26  C18 UNL     1     -15.401  35.692  43.120  1.00  0.00     0.026 C 
ENDBRANCH  18  22
ENDBRANCH  10  12
ENDBRANCH   3  10
BRANCH   1  27
HETATM   27  C6  UNL     1     -14.678  44.036  35.612  1.00  0.00     0.060 C 
BRANCH  27  28
HETATM   28  C5  UNL     1     -13.918  44.770  34.531  1.00  0.00     0.026 C 
BRANCH  28  29
HETATM   29  C4  UNL     1     -14.056  46.245  34.737  1.00  0.00     0.126 C 
BRANCH  29  30
HETATM   30  N3  UNL     1     -12.894  46.980  34.347  1.00  0.00    -0.354 N 
HETATM   31  C1  UNL     1     -11.583  46.864  34.887  1.00  0.00     0.186 C 
HETATM   32  N1  UNL     1     -11.225  46.376  36.182  1.00  0.00    -0.064 NA
HETATM   33  N2  UNL     1     -10.703  47.273  34.025  1.00  0.00    -0.363 N 
HETATM   34  C2  UNL     1     -11.369  47.710  32.800  1.00  0.00     0.142 C 
ATOM     35  H2  UNL     1      -9.695  47.287  34.180  1.00  0.00     0.162 HD
HETATM   36  C3  UNL     1     -12.764  48.013  33.314  1.00  0.00     0.145 C 
ENDBRANCH  29  30
ENDBRANCH  28  29
ENDBRANCH  27  28
ENDBRANCH   1  27
TORSDOF 7
ENDMDL
MODEL 2
REMARK VINA RESULT: -8.787559175      0.930      1.010
REMARK  7 active torsions:
REMARK  status: ('A' for Active; 'I' for Inactive)
REMARK    1  A    between atoms: N3_7  and  C4_8 
REMARK    2  A    between atoms: C4_8  and  C5_9 
REMARK    3  A    between atoms: C5_9  and  C6_10 
REMARK    4  A    between atoms: C6_10  and  C7_11 
REMARK    5  A    between atoms: C9_13  and  N4_14 
REMARK    6  A    between atoms: N4_14  and  C10_16 
REMARK    7  A    between atoms: N6_22  and  C14_24 
ROOT
HETATM    1  C7  UNL     1     -13.656  43.379  36.738  1.00  0.00     0.031 A 
HETATM    2  C8  UNL     1     -13.877  42.049  37.025  1.00  0.00     0.076 A 
HETATM    3  C9  UNL     1     -13.121  41.380  37.992  1.00  0.00     0.124 A 
HETATM    4  N8  UNL     1     -12.167  42.054  38.646  1.00  0.00    -0.271 N 
ATOM      5  H8  UNL     1     -11.599  41.595  39.358  1.00  0.00     0.190 HD
HETATM    6  N9  UNL     1     -11.980  43.325  38.351  1.00  0.00    -0.241 N 
ATOM      7  H9  UNL     1     -11.250  43.828  38.856  1.00  0.00     0.208 HD
HETATM    8  N10 UNL     1     -12.673  43.991  37.445  1.00  0.00    -0.290 N 
ATOM      9  H10 UNL     1     -12.467  44.976  37.275  1.00  0.00     0.188 HD
ENDROOT
BRANCH   3  10
HETATM   10  N4  UNL     1     -13.334  40.141  38.253  1.00  0.00    -0.327 N 
ATOM     11  H4  UNL     1     -13.258  39.444  37.512  1.00  0.00     0.169 HD
BRANCH  10  12
HETATM   12  C10 UNL     1     -13.676  39.742  39.569  1.00  0.00     0.123 A 
HETATM   13  C11 UNL     1     -13.887  40.738  40.493  1.00  0.00     0.067 A 
HETATM   14  C12 UNL     1     -14.218  40.406  41.786  1.00  0.00     0.110 A 
HETATM   15  N5  UNL     1     -14.332  39.109  42.138  1.00  0.00    -0.202 N 
HETATM   16  C13 UNL     1     -14.129  38.133  41.247  1.00  0.00     0.679 A 
ATOM     17  H5  UNL     1     -14.577  38.869  43.099  1.00  0.00     0.183 HD
HETATM   18  N6  UNL     1     -14.241  36.911  41.600  1.00  0.00    -0.221 N 
HETATM   19  N7  UNL     1     -13.800  38.469  39.962  1.00  0.00    -0.177 N 
ATOM     20  H6  UNL     1     -14.082  36.174  40.912  1.00  0.00     0.178 HD
ATOM     21  H7  UNL     1     -13.643  37.724  39.282  1.00  0.00     0.186 HD
BRANCH  18  22
HETATM   22  C14 UNL     1     -14.584  36.557  42.942  1.00  0.00     0.099 C 
HETATM   23  C15 UNL     1     -13.266  36.246  43.664  1.00  0.00     0.026 C 
HETATM   24  C16 UNL     1     -13.090  34.769  43.285  1.00  0.00     0.002 C 
HETATM   25  C17 UNL     1     -14.467  34.240  43.667  1.00  0.00     0.002 C 
HETATM   26  C18 UNL     1     -15.370  35.247  42.989  1.00  0.00     0.026 C 
ENDBRANCH  18  22
ENDBRANCH  10  12
ENDBRANCH   3  10
BRANCH   1  27
HETATM   27  C6  UNL     1     -14.445  44.099  35.721  1.00  0.00     0.060 C 
BRANCH  27  28
HETATM   28  C5  UNL     1     -13.850  43.981  34.337  1.00  0.00     0.026 C 
BRANCH  28  29
HETATM   29  C4  UNL     1     -12.795  45.025  34.155  1.00  0.00     0.126 C 
BRANCH  29  30
HETATM   30  N3  UNL     1     -13.209  46.324  34.581  1.00  0.00    -0.354 N 
HETATM   31  C1  UNL     1     -12.613  47.126  35.594  1.00  0.00     0.186 C 
HETATM   32  N1  UNL     1     -11.815  46.675  36.691  1.00  0.00    -0.064 NA
HETATM   33  N2  UNL     1     -12.890  48.379  35.399  1.00  0.00    -0.363 N 
HETATM   34  C2  UNL     1     -13.720  48.526  34.204  1.00  0.00     0.142 C 
ATOM     35  H2  UNL     1     -12.576  49.147  35.991  1.00  0.00     0.162 HD
HETATM   36  C3  UNL     1     -14.326  47.139  34.092  1.00  0.00     0.145 C 
ENDBRANCH  29  30
ENDBRANCH  28  29
ENDBRANCH  27  28
ENDBRANCH   1  27
TORSDOF 7
ENDMDL
MODEL 3
REMARK VINA RESULT: -8.494053393      2.454      3.182
REMARK  7 active torsions:
REMARK  status: ('A' for Active; 'I' for Inactive)
REMARK    1  A    between atoms: N3_7  and  C4_8 
REMARK    2  A    between atoms: C4_8  and  C5_9 
REMARK    3  A    between atoms: C5_9  and  C6_10 
REMARK    4  A    between atoms: C6_10  and  C7_11 
REMARK    5  A    between atoms: C9_13  and  N4_14 
REMARK    6  A    between atoms: N4_14  and  C10_16 
REMARK    7  A    between atoms: N6_22  and  C14_24 
ROOT
HETATM    1  C7  UNL     1     -12.737  41.765  37.838  1.00  0.00     0.031 A 
HETATM    2  C8  UNL     1     -13.476  41.145  38.823  1.00  0.00     0.076 A 
HETATM    3  C9  UNL     1     -13.485  41.627  40.136  1.00  0.00     0.124 A 
HETATM    4  N8  UNL     1     -12.759  42.713  40.430  1.00  0.00    -0.271 N 
ATOM      5  H8  UNL     1     -12.745  43.089  41.378  1.00  0.00     0.190 HD
HETATM    6  N9  UNL     1     -12.063  43.284  39.468  1.00  0.00    -0.241 N 
ATOM      7  H9  UNL     1     -11.514  44.110  39.704  1.00  0.00     0.208 HD
HETATM    8  N10 UNL     1     -12.029  42.860  38.217  1.00  0.00    -0.290 N 
ATOM      9  H10 UNL     1     -11.465  43.359  37.529  1.00  0.00     0.188 HD
ENDROOT
BRANCH   3  10
HETATM   10  N4  UNL     1     -14.177  41.043  41.045  1.00  0.00    -0.327 N 
ATOM     11  H4  UNL     1     -14.764  41.593  41.672  1.00  0.00     0.169 HD
BRANCH  10  12
HETATM   12  C10 UNL     1     -14.125  39.632  41.179  1.00  0.00     0.123 A 
HETATM   13  C11 UNL     1     -13.906  39.128  42.440  1.00  0.00     0.067 A 
HETATM   14  C12 UNL     1     -13.844  37.768  42.625  1.00  0.00     0.110 A 
HETATM   15  N5  UNL     1     -13.998  36.938  41.572  1.00  0.00    -0.202 N 
HETATM   16  C13 UNL     1     -14.212  37.419  40.343  1.00  0.00     0.679 A 
ATOM     17  H5  UNL     1     -13.950  35.929  41.716  1.00  0.00     0.183 HD
HETATM   18  N6  UNL     1     -14.355  36.617  39.359  1.00  0.00    -0.221 N 
HETATM   19  N7  UNL     1     -14.273  38.773  40.164  1.00  0.00    -0.177 N 
ATOM     20  H6  UNL     1     -14.517  36.995  38.425  1.00  0.00     0.178 HD
ATOM     21  H7  UNL     1     -14.435  39.141  39.225  1.00  0.00     0.186 HD
BRANCH  18  22
HETATM   22  C14 UNL     1     -14.291  35.200  39.544  1.00  0.00     0.099 C 
HETATM   23  C15 UNL     1     -13.028  34.721  38.816  1.00  0.00     0.026 C 
HETATM   24  C16 UNL     1     -13.581  34.543  37.396  1.00  0.00     0.002 C 
HETATM   25  C17 UNL     1     -14.812  33.700  37.703  1.00  0.00     0.002 C 
HETATM   26  C18 UNL     1     -15.441  34.493  38.827  1.00  0.00     0.026 C 
ENDBRANCH  18  22
ENDBRANCH  10  12
ENDBRANCH   3  10
BRANCH   1  27
HETATM   27  C6  UNL     1     -12.716  41.270  36.450  1.00  0.00     0.060 C 
BRANCH  27  28
HETATM   28  C5  UNL     1     -12.179  42.295  35.477  1.00  0.00     0.026 C 
BRANCH  28  29
HETATM   29  C4  UNL     1     -13.286  43.202  35.044  1.00  0.00     0.126 C 
BRANCH  29  30
HETATM   30  N3  UNL     1     -12.953  44.588  35.153  1.00  0.00    -0.354 N 
HETATM   31  C1  UNL     1     -13.083  45.416  36.303  1.00  0.00     0.186 C 
HETATM   32  N1  UNL     1     -13.965  45.217  37.411  1.00  0.00    -0.064 NA
HETATM   33  N2  UNL     1     -12.269  46.423  36.228  1.00  0.00    -0.363 N 
HETATM   34  C2  UNL     1     -11.503  46.355  34.985  1.00  0.00     0.142 C 
ATOM     35  H2  UNL     1     -12.178  47.155  36.932  1.00  0.00     0.162 HD
HETATM   36  C3  UNL     1     -12.404  45.484  34.129  1.00  0.00     0.145 C 
ENDBRANCH  29  30
ENDBRANCH  28  29
ENDBRANCH  27  28
ENDBRANCH   1  27
TORSDOF 7
ENDMDL
MODEL 4
REMARK VINA RESULT: -8.372564037      1.524      2.332
REMARK  7 active torsions:
REMARK  status: ('A' for Active; 'I' for Inactive)
REMARK    1  A    between atoms: N3_7  and  C4_8 
REMARK    2  A    between atoms: C4_8  and  C5_9 
REMARK    3  A    between atoms: C5_9  and  C6_10 
REMARK    4  A    between atoms: C6_10  and  C7_11 
REMARK    5  A    between atoms: C9_13  and  N4_14 
REMARK    6  A    between atoms: N4_14  and  C10_16 
REMARK    7  A    between atoms: N6_22  and  C14_24 
ROOT
HETATM    1  C7  UNL     1     -12.703  42.121  37.720  1.00  0.00     0.031 A 
HETATM    2  C8  UNL     1     -13.322  41.396  38.716  1.00  0.00     0.076 A 
HETATM    3  C9  UNL     1     -13.225  41.776  40.058  1.00  0.00     0.124 A 
HETATM    4  N8  UNL     1     -12.515  42.867  40.370  1.00  0.00    -0.271 N 
ATOM      5  H8  UNL     1     -12.426  43.170  41.340  1.00  0.00     0.190 HD
HETATM    6  N9  UNL     1     -11.936  43.541  39.397  1.00  0.00    -0.241 N 
ATOM      7  H9  UNL     1     -11.398  44.370  39.648  1.00  0.00     0.208 HD
HETATM    8  N10 UNL     1     -12.005  43.214  38.119  1.00  0.00    -0.290 N 
ATOM      9  H10 UNL     1     -11.527  43.789  37.425  1.00  0.00     0.188 HD
ENDROOT
BRANCH   3  10
HETATM   10  N4  UNL     1     -13.805  41.094  40.978  1.00  0.00    -0.327 N 
ATOM     11  H4  UNL     1     -14.156  41.560  41.814  1.00  0.00     0.169 HD
BRANCH  10  12
HETATM   12  C10 UNL     1     -13.957  39.692  40.832  1.00  0.00     0.123 A 
HETATM   13  C11 UNL     1     -14.262  39.220  39.576  1.00  0.00     0.067 A 
HETATM   14  C12 UNL     1     -14.424  37.869  39.380  1.00  0.00     0.110 A 
HETATM   15  N5  UNL     1     -14.284  37.017  40.416  1.00  0.00    -0.202 N 
HETATM   16  C13 UNL     1     -13.987  37.466  41.640  1.00  0.00     0.679 A 
ATOM     17  H5  UNL     1     -14.406  36.016  40.264  1.00  0.00     0.183 HD
HETATM   18  N6  UNL     1     -13.859  36.644  42.609  1.00  0.00    -0.221 N 
HETATM   19  N7  UNL     1     -13.827  38.811  41.831  1.00  0.00    -0.177 N 
ATOM     20  H6  UNL     1     -13.633  36.997  43.539  1.00  0.00     0.178 HD
ATOM     21  H7  UNL     1     -13.602  39.154  42.765  1.00  0.00     0.186 HD
BRANCH  18  22
HETATM   22  C14 UNL     1     -14.026  35.237  42.413  1.00  0.00     0.099 C 
HETATM   23  C15 UNL     1     -15.262  34.826  43.223  1.00  0.00     0.026 C 
HETATM   24  C16 UNL     1     -14.621  34.591  44.598  1.00  0.00     0.002 C 
HETATM   25  C17 UNL     1     -13.472  33.677  44.193  1.00  0.00     0.002 C 
HETATM   26  C18 UNL     1     -12.875  34.447  43.036  1.00  0.00     0.026 C 
ENDBRANCH  18  22
ENDBRANCH  10  12
ENDBRANCH   3  10
BRANCH   1  27
HETATM   27  C6  UNL     1     -12.797  41.734  36.301  1.00  0.00     0.060 C 
BRANCH  27  28
HETATM   28  C5  UNL     1     -12.416  42.861  35.367  1.00  0.00     0.026 C 
BRANCH  28  29
HETATM   29  C4  UNL     1     -13.653  43.534  34.865  1.00  0.00     0.126 C 
BRANCH  29  30
HETATM   30  N3  UNL     1     -13.602  44.959  34.973  1.00  0.00    -0.354 N 
HETATM   31  C1  UNL     1     -13.569  45.729  36.169  1.00  0.00     0.186 C 
HETATM   32  N1  UNL     1     -14.033  45.332  37.462  1.00  0.00    -0.064 NA
HETATM   33  N2  UNL     1     -13.041  46.892  35.942  1.00  0.00    -0.363 N 
HETATM   34  C2  UNL     1     -12.667  47.004  34.533  1.00  0.00     0.142 C 
ATOM     35  H2  UNL     1     -12.908  47.622  36.642  1.00  0.00     0.162 HD
HETATM   36  C3  UNL     1     -13.571  45.961  33.903  1.00  0.00     0.145 C 
ENDBRANCH  29  30
ENDBRANCH  28  29
ENDBRANCH  27  28
ENDBRANCH   1  27
TORSDOF 7
ENDMDL
MODEL 5
REMARK VINA RESULT: -8.307604382      3.162      4.165
REMARK  7 active torsions:
REMARK  status: ('A' for Active; 'I' for Inactive)
REMARK    1  A    between atoms: N3_7  and  C4_8 
REMARK    2  A    between atoms: C4_8  and  C5_9 
REMARK    3  A    between atoms: C5_9  and  C6_10 
REMARK    4  A    between atoms: C6_10  and  C7_11 
REMARK    5  A    between atoms: C9_13  and  N4_14 
REMARK    6  A    between atoms: N4_14  and  C10_16 
REMARK    7  A    between atoms: N6_22  and  C14_24 
ROOT
HETATM    1  C7  UNL     1     -12.886  42.731  36.753  1.00  0.00     0.031 A 
HETATM    2  C8  UNL     1     -13.427  41.706  37.499  1.00  0.00     0.076 A 
HETATM    3  C9  UNL     1     -13.202  41.611  38.876  1.00  0.00     0.124 A 
HETATM    4  N8  UNL     1     -12.444  42.541  39.470  1.00  0.00    -0.271 N 
ATOM      5  H8  UNL     1     -12.261  42.500  40.473  1.00  0.00     0.190 HD
HETATM    6  N9  UNL     1     -11.941  43.510  38.732  1.00  0.00    -0.241 N 
ATOM      7  H9  UNL     1     -11.366  44.212  39.197  1.00  0.00     0.208 HD
HETATM    8  N10 UNL     1     -12.132  43.633  37.431  1.00  0.00    -0.290 N 
ATOM      9  H10 UNL     1     -11.707  44.414  36.930  1.00  0.00     0.188 HD
ENDROOT
BRANCH   3  10
HETATM   10  N4  UNL     1     -13.710  40.653  39.561  1.00  0.00    -0.327 N 
ATOM     11  H4  UNL     1     -14.280  40.858  40.381  1.00  0.00     0.169 HD
BRANCH  10  12
HETATM   12  C10 UNL     1     -13.479  39.307  39.177  1.00  0.00     0.123 A 
HETATM   13  C11 UNL     1     -14.438  38.383  39.521  1.00  0.00     0.067 A 
HETATM   14  C12 UNL     1     -14.263  37.064  39.176  1.00  0.00     0.110 A 
HETATM   15  N5  UNL     1     -13.155  36.685  38.506  1.00  0.00    -0.202 N 
HETATM   16  C13 UNL     1     -12.218  37.577  38.167  1.00  0.00     0.679 A 
ATOM     17  H5  UNL     1     -13.031  35.705  38.254  1.00  0.00     0.183 HD
HETATM   18  N6  UNL     1     -11.175  37.199  37.534  1.00  0.00    -0.221 N 
HETATM   19  N7  UNL     1     -12.396  38.888  38.513  1.00  0.00    -0.177 N 
ATOM     20  H6  UNL     1     -10.466  37.887  37.281  1.00  0.00     0.178 HD
ATOM     21  H7  UNL     1     -11.681  39.568  38.256  1.00  0.00     0.186 HD
BRANCH  18  22
HETATM   22  C14 UNL     1     -10.986  35.828  37.172  1.00  0.00     0.099 C 
HETATM   23  C15 UNL     1      -9.492  35.530  37.355  1.00  0.00     0.026 C 
HETATM   24  C16 UNL     1      -8.951  35.996  35.997  1.00  0.00     0.002 C 
HETATM   25  C17 UNL     1      -9.906  35.253  35.071  1.00  0.00     0.002 C 
HETATM   26  C18 UNL     1     -11.245  35.605  35.682  1.00  0.00     0.026 C 
ENDBRANCH  18  22
ENDBRANCH  10  12
ENDBRANCH   3  10
BRANCH   1  27
HETATM   27  C6  UNL     1     -13.115  42.845  35.302  1.00  0.00     0.060 C 
BRANCH  27  28
HETATM   28  C5  UNL     1     -14.021  44.002  34.947  1.00  0.00     0.026 C 
BRANCH  28  29
HETATM   29  C4  UNL     1     -13.224  45.074  34.276  1.00  0.00     0.126 C 
BRANCH  29  30
HETATM   30  N3  UNL     1     -13.472  46.377  34.808  1.00  0.00    -0.354 N 
HETATM   31  C1  UNL     1     -12.724  47.052  35.813  1.00  0.00     0.186 C 
HETATM   32  N1  UNL     1     -11.893  46.457  36.813  1.00  0.00    -0.064 NA
HETATM   33  N2  UNL     1     -12.888  48.335  35.712  1.00  0.00    -0.363 N 
HETATM   34  C2  UNL     1     -13.788  48.638  34.600  1.00  0.00     0.142 C 
ATOM     35  H2  UNL     1     -12.454  49.030  36.319  1.00  0.00     0.162 HD
HETATM   36  C3  UNL     1     -14.536  47.325  34.459  1.00  0.00     0.145 C 
ENDBRANCH  29  30
ENDBRANCH  28  29
ENDBRANCH  27  28
ENDBRANCH   1  27
TORSDOF 7
ENDMDL
