MODEL 1
REMARK VINA RESULT: -7.418658026      0.000      0.000
REMARK  9 active torsions:
REMARK  status: ('A' for Active; 'I' for Inactive)
REMARK    1  A    between atoms: N1_1  and  C1_4 
REMARK    2  A    between atoms: C3_8  and  N3_9 
REMARK    3  A    between atoms: N3_9  and  C4_11 
REMARK    4  A    between atoms: C4_11  and  C5_12 
REMARK    5  A    between atoms: C5_12  and  C6_13 
REMARK    6  A    between atoms: C6_13  and  N4_14 
REMARK    7  A    between atoms: C11_22  and  N6_23 
REMARK    8  A    between atoms: N8_32  and  C18_33 
REMARK    9  A    between atoms: C18_33  and  O2_34 
ROOT
HETATM    1  C1  UNL     1     -13.768  40.712  40.575  1.00  0.00     0.682 A 
HETATM    2  N2  UNL     1     -13.340  41.785  39.931  1.00  0.00    -0.184 N 
ATOM      3  H2  UNL     1     -13.318  42.732  40.311  1.00  0.00     0.184 HD
HETATM    4  C2  UNL     1     -12.939  41.432  38.701  1.00  0.00     0.138 A 
HETATM    5  C3  UNL     1     -12.411  42.156  37.636  1.00  0.00     0.148 A 
HETATM    6  N5  UNL     1     -12.119  41.448  36.534  1.00  0.00    -0.174 N 
ATOM      7  H5  UNL     1     -11.730  41.942  35.731  1.00  0.00     0.186 HD
HETATM    8  C11 UNL     1     -12.311  40.127  36.431  1.00  0.00     0.683 A 
HETATM    9  N7  UNL     1     -12.825  39.470  37.488  1.00  0.00    -0.173 N 
ATOM     10  H7  UNL     1     -12.972  38.464  37.414  1.00  0.00     0.186 HD
HETATM   11  C17 UNL     1     -13.144  40.074  38.614  1.00  0.00     0.172 A 
HETATM   12  N8  UNL     1     -13.664  39.632  39.798  1.00  0.00    -0.144 N 
ENDROOT
BRANCH   5  13
HETATM   13  N3  UNL     1     -12.256  43.384  37.791  1.00  0.00    -0.374 N 
ATOM     14  H3  UNL     1     -12.007  43.639  38.747  1.00  0.00     0.161 HD
BRANCH  13  15
HETATM   15  C4  UNL     1     -12.353  44.497  36.928  1.00  0.00     0.123 C 
BRANCH  15  16
HETATM   16  C5  UNL     1     -13.874  44.776  36.818  1.00  0.00     0.050 C 
BRANCH  16  17
HETATM   17  C6  UNL     1     -14.069  45.547  35.543  1.00  0.00     0.274 C 
BRANCH  17  18
HETATM   18  N4  UNL     1     -13.299  46.736  35.412  1.00  0.00     0.092 N 
HETATM   19  C7  UNL     1     -13.898  47.754  36.254  1.00  0.00     0.298 C 
HETATM   20  C8  UNL     1     -13.245  49.070  35.988  1.00  0.00     0.198 C 
HETATM   21  O1  UNL     1     -13.549  49.479  34.719  1.00  0.00    -0.388 OA
HETATM   22  C9  UNL     1     -13.664  48.522  33.762  1.00  0.00     0.198 C 
HETATM   23  C10 UNL     1     -13.052  47.191  34.080  1.00  0.00     0.298 C 
ENDBRANCH  17  18
ENDBRANCH  16  17
ENDBRANCH  15  16
ENDBRANCH  13  15
ENDBRANCH   5  13
BRANCH   8  24
HETATM   24  N6  UNL     1     -11.994  39.394  35.276  1.00  0.00    -0.217 N 
HETATM   25  C12 UNL     1     -11.739  37.990  35.278  1.00  0.00     0.141 C 
HETATM   26  C13 UNL     1     -10.249  37.815  34.935  1.00  0.00     0.020 C 
HETATM   27  C14 UNL     1      -9.894  38.593  33.720  1.00  0.00     0.003 C 
HETATM   28  C15 UNL     1     -11.032  39.278  33.028  1.00  0.00     0.020 C 
HETATM   29  C16 UNL     1     -11.900  40.068  33.982  1.00  0.00     0.141 C 
ENDBRANCH   8  24
BRANCH   1  30
HETATM   30  N1  UNL     1     -14.226  40.725  41.804  1.00  0.00    -0.234 N 
ATOM     31  H12 UNL     1     -14.572  41.548  42.298  1.00  0.00     0.174 HD
ATOM     32  H11 UNL     1     -14.285  39.901  42.402  1.00  0.00     0.174 HD
ENDBRANCH   1  30
BRANCH  12  33
HETATM   33  C18 UNL     1     -14.014  38.259  40.092  1.00  0.00     0.316 C 
BRANCH  33  34
HETATM   34  O2  UNL     1     -15.036  37.900  39.236  1.00  0.00    -0.381 OA
ATOM     35  H2  UNL     1     -14.732  37.160  38.724  1.00  0.00     0.211 HD
ENDBRANCH  33  34
ENDBRANCH  12  33
TORSDOF 9
ENDMDL
MODEL 2
REMARK VINA RESULT: -7.296276013      1.100      1.202
REMARK  9 active torsions:
REMARK  status: ('A' for Active; 'I' for Inactive)
REMARK    1  A    between atoms: N1_1  and  C1_4 
REMARK    2  A    between atoms: C3_8  and  N3_9 
REMARK    3  A    between atoms: N3_9  and  C4_11 
REMARK    4  A    between atoms: C4_11  and  C5_12 
REMARK    5  A    between atoms: C5_12  and  C6_13 
REMARK    6  A    between atoms: C6_13  and  N4_14 
REMARK    7  A    between atoms: C11_22  and  N6_23 
REMARK    8  A    between atoms: N8_32  and  C18_33 
REMARK    9  A    between atoms: C18_33  and  O2_34 
ROOT
HETATM    1  C1  UNL     1     -13.477  40.850  39.890  1.00  0.00     0.682 A 
HETATM    2  N2  UNL     1     -13.151  42.026  39.383  1.00  0.00    -0.184 N 
ATOM      3  H2  UNL     1     -13.153  42.910  39.894  1.00  0.00     0.184 HD
HETATM    4  C2  UNL     1     -12.817  41.876  38.093  1.00  0.00     0.138 A 
HETATM    5  C3  UNL     1     -12.402  42.774  37.114  1.00  0.00     0.148 A 
HETATM    6  N5  UNL     1     -12.150  42.247  35.905  1.00  0.00    -0.174 N 
ATOM      7  H5  UNL     1     -11.844  42.873  35.160  1.00  0.00     0.186 HD
HETATM    8  C11 UNL     1     -12.279  40.944  35.625  1.00  0.00     0.683 A 
HETATM    9  N7  UNL     1     -12.684  40.114  36.605  1.00  0.00    -0.173 N 
ATOM     10  H7  UNL     1     -12.783  39.122  36.395  1.00  0.00     0.186 HD
HETATM   11  C17 UNL     1     -12.956  40.533  37.824  1.00  0.00     0.172 A 
HETATM   12  N8  UNL     1     -13.370  39.898  38.960  1.00  0.00    -0.144 N 
ENDROOT
BRANCH   5  13
HETATM   13  N3  UNL     1     -12.303  43.975  37.435  1.00  0.00    -0.374 N 
ATOM     14  H3  UNL     1     -12.027  44.108  38.409  1.00  0.00     0.161 HD
BRANCH  13  15
HETATM   15  C4  UNL     1     -12.490  45.190  36.740  1.00  0.00     0.123 C 
BRANCH  15  16
HETATM   16  C5  UNL     1     -13.996  45.203  36.373  1.00  0.00     0.050 C 
BRANCH  16  17
HETATM   17  C6  UNL     1     -14.088  45.799  34.997  1.00  0.00     0.274 C 
BRANCH  17  18
HETATM   18  N4  UNL     1     -13.593  47.125  34.860  1.00  0.00     0.092 N 
HETATM   19  C7  UNL     1     -14.713  47.993  34.548  1.00  0.00     0.298 C 
HETATM   20  C8  UNL     1     -14.209  49.353  34.195  1.00  0.00     0.198 C 
HETATM   21  O1  UNL     1     -13.512  49.287  33.019  1.00  0.00    -0.388 OA
HETATM   22  C9  UNL     1     -12.789  48.162  32.780  1.00  0.00     0.198 C 
HETATM   23  C10 UNL     1     -12.488  47.304  33.972  1.00  0.00     0.298 C 
ENDBRANCH  17  18
ENDBRANCH  16  17
ENDBRANCH  15  16
ENDBRANCH  13  15
ENDBRANCH   5  13
BRANCH   8  24
HETATM   24  N6  UNL     1     -12.004  40.403  34.359  1.00  0.00    -0.217 N 
HETATM   25  C12 UNL     1     -11.646  39.037  34.146  1.00  0.00     0.141 C 
HETATM   26  C13 UNL     1     -10.180  39.037  33.678  1.00  0.00     0.020 C 
HETATM   27  C14 UNL     1      -9.984  39.997  32.562  1.00  0.00     0.003 C 
HETATM   28  C15 UNL     1     -11.222  40.670  32.054  1.00  0.00     0.020 C 
HETATM   29  C16 UNL     1     -12.066  41.249  33.169  1.00  0.00     0.141 C 
ENDBRANCH   8  24
BRANCH   1  30
HETATM   30  N1  UNL     1     -13.849  40.661  41.133  1.00  0.00    -0.234 N 
ATOM     31  H12 UNL     1     -13.223  40.487  41.920  1.00  0.00     0.174 HD
ATOM     32  H11 UNL     1     -14.820  40.669  41.448  1.00  0.00     0.174 HD
ENDBRANCH   1  30
BRANCH  12  33
HETATM   33  C18 UNL     1     -13.626  38.478  39.073  1.00  0.00     0.316 C 
BRANCH  33  34
HETATM   34  O2  UNL     1     -14.981  38.318  39.280  1.00  0.00    -0.381 OA
ATOM     35  H2  UNL     1     -15.350  37.961  38.480  1.00  0.00     0.211 HD
ENDBRANCH  33  34
ENDBRANCH  12  33
TORSDOF 9
ENDMDL
MODEL 3
REMARK VINA RESULT: -7.234332470      1.801      2.241
REMARK  9 active torsions:
REMARK  status: ('A' for Active; 'I' for Inactive)
REMARK    1  A    between atoms: N1_1  and  C1_4 
REMARK    2  A    between atoms: C3_8  and  N3_9 
REMARK    3  A    between atoms: N3_9  and  C4_11 
REMARK    4  A    between atoms: C4_11  and  C5_12 
REMARK    5  A    between atoms: C5_12  and  C6_13 
REMARK    6  A    between atoms: C6_13  and  N4_14 
REMARK    7  A    between atoms: C11_22  and  N6_23 
REMARK    8  A    between atoms: N8_32  and  C18_33 
REMARK    9  A    between atoms: C18_33  and  O2_34 
ROOT
HETATM    1  C1  UNL     1     -13.099  41.877  39.538  1.00  0.00     0.682 A 
HETATM    2  N2  UNL     1     -12.891  43.029  38.924  1.00  0.00    -0.184 N 
ATOM      3  H2  UNL     1     -12.900  43.946  39.371  1.00  0.00     0.184 HD
HETATM    4  C2  UNL     1     -12.665  42.802  37.621  1.00  0.00     0.138 A 
HETATM    5  C3  UNL     1     -12.394  43.646  36.548  1.00  0.00     0.148 A 
HETATM    6  N5  UNL     1     -12.220  43.046  35.361  1.00  0.00    -0.174 N 
ATOM      7  H5  UNL     1     -12.020  43.631  34.549  1.00  0.00     0.186 HD
HETATM    8  C11 UNL     1     -12.295  41.721  35.183  1.00  0.00     0.683 A 
HETATM    9  N7  UNL     1     -12.560  40.945  36.251  1.00  0.00    -0.173 N 
ATOM     10  H7  UNL     1     -12.618  39.936  36.120  1.00  0.00     0.186 HD
HETATM   11  C17 UNL     1     -12.747  41.438  37.459  1.00  0.00     0.172 A 
HETATM   12  N8  UNL     1     -13.019  40.867  38.669  1.00  0.00    -0.144 N 
ENDROOT
BRANCH   5  13
HETATM   13  N3  UNL     1     -12.339  44.871  36.776  1.00  0.00    -0.374 N 
ATOM     14  H3  UNL     1     -12.535  45.108  37.749  1.00  0.00     0.161 HD
BRANCH  13  15
HETATM   15  C4  UNL     1     -12.062  46.001  35.976  1.00  0.00     0.123 C 
BRANCH  15  16
HETATM   16  C5  UNL     1     -13.413  46.759  35.889  1.00  0.00     0.050 C 
BRANCH  16  17
HETATM   17  C6  UNL     1     -13.270  47.745  34.765  1.00  0.00     0.274 C 
BRANCH  17  18
HETATM   18  N4  UNL     1     -13.952  48.982  34.932  1.00  0.00     0.092 N 
HETATM   19  C7  UNL     1     -14.479  49.025  36.283  1.00  0.00     0.298 C 
HETATM   20  C8  UNL     1     -15.372  50.211  36.433  1.00  0.00     0.198 C 
HETATM   21  O1  UNL     1     -16.485  50.042  35.656  1.00  0.00    -0.388 OA
HETATM   22  C9  UNL     1     -16.331  49.398  34.470  1.00  0.00     0.198 C 
HETATM   23  C10 UNL     1     -14.930  49.309  33.943  1.00  0.00     0.298 C 
ENDBRANCH  17  18
ENDBRANCH  16  17
ENDBRANCH  15  16
ENDBRANCH  13  15
ENDBRANCH   5  13
BRANCH   8  24
HETATM   24  N6  UNL     1     -12.102  41.103  33.937  1.00  0.00    -0.217 N 
HETATM   25  C12 UNL     1     -11.686  39.747  33.785  1.00  0.00     0.141 C 
HETATM   26  C13 UNL     1     -10.270  39.788  33.185  1.00  0.00     0.020 C 
HETATM   27  C14 UNL     1     -10.230  40.673  31.992  1.00  0.00     0.003 C 
HETATM   28  C15 UNL     1     -11.546  41.242  31.557  1.00  0.00     0.020 C 
HETATM   29  C16 UNL     1     -12.319  41.856  32.703  1.00  0.00     0.141 C 
ENDBRANCH   8  24
BRANCH   1  30
HETATM   30  N1  UNL     1     -13.347  41.761  40.821  1.00  0.00    -0.234 N 
ATOM     31  H12 UNL     1     -14.275  41.727  41.244  1.00  0.00     0.174 HD
ATOM     32  H11 UNL     1     -12.627  41.691  41.539  1.00  0.00     0.174 HD
ENDBRANCH   1  30
BRANCH  12  33
HETATM   33  C18 UNL     1     -13.178  39.447  38.903  1.00  0.00     0.316 C 
BRANCH  33  34
HETATM   34  O2  UNL     1     -12.025  38.825  38.470  1.00  0.00    -0.381 OA
ATOM     35  H2  UNL     1     -12.283  38.113  37.897  1.00  0.00     0.211 HD
ENDBRANCH  33  34
ENDBRANCH  12  33
TORSDOF 9
ENDMDL
MODEL 4
REMARK VINA RESULT: -7.230539934      2.872      6.405
REMARK  9 active torsions:
REMARK  status: ('A' for Active; 'I' for Inactive)
REMARK    1  A    between atoms: N1_1  and  C1_4 
REMARK    2  A    between atoms: C3_8  and  N3_9 
REMARK    3  A    between atoms: N3_9  and  C4_11 
REMARK    4  A    between atoms: C4_11  and  C5_12 
REMARK    5  A    between atoms: C5_12  and  C6_13 
REMARK    6  A    between atoms: C6_13  and  N4_14 
REMARK    7  A    between atoms: C11_22  and  N6_23 
REMARK    8  A    between atoms: N8_32  and  C18_33 
REMARK    9  A    between atoms: C18_33  and  O2_34 
ROOT
HETATM    1  C1  UNL     1     -13.864  39.347  41.146  1.00  0.00     0.682 A 
HETATM    2  N2  UNL     1     -13.417  38.629  40.131  1.00  0.00    -0.184 N 
ATOM      3  H2  UNL     1     -13.274  37.619  40.140  1.00  0.00     0.184 HD
HETATM    4  C2  UNL     1     -13.178  39.438  39.087  1.00  0.00     0.138 A 
HETATM    5  C3  UNL     1     -12.709  39.203  37.798  1.00  0.00     0.148 A 
HETATM    6  N5  UNL     1     -12.598  40.284  37.010  1.00  0.00    -0.174 N 
ATOM      7  H5  UNL     1     -12.257  40.153  36.057  1.00  0.00     0.186 HD
HETATM    8  C11 UNL     1     -12.909  41.524  37.407  1.00  0.00     0.683 A 
HETATM    9  N7  UNL     1     -13.359  41.701  38.663  1.00  0.00    -0.173 N 
ATOM     10  H7  UNL     1     -13.597  42.644  38.969  1.00  0.00     0.186 HD
HETATM   11  C17 UNL     1     -13.503  40.705  39.514  1.00  0.00     0.172 A 
HETATM   12  N8  UNL     1     -13.934  40.636  40.808  1.00  0.00    -0.144 N 
ENDROOT
BRANCH   5  13
HETATM   13  N3  UNL     1     -12.434  38.027  37.488  1.00  0.00    -0.374 N 
ATOM     14  H3  UNL     1     -13.239  37.401  37.534  1.00  0.00     0.161 HD
BRANCH  13  15
HETATM   15  C4  UNL     1     -11.247  37.375  37.087  1.00  0.00     0.123 C 
BRANCH  15  16
HETATM   16  C5  UNL     1     -11.401  37.189  35.555  1.00  0.00     0.050 C 
BRANCH  16  17
HETATM   17  C6  UNL     1     -10.108  37.647  34.945  1.00  0.00     0.274 C 
BRANCH  17  18
HETATM   18  N4  UNL     1     -10.215  38.338  33.706  1.00  0.00     0.092 N 
HETATM   19  C7  UNL     1     -11.372  39.209  33.776  1.00  0.00     0.298 C 
HETATM   20  C8  UNL     1     -11.639  39.796  32.430  1.00  0.00     0.198 C 
HETATM   21  O1  UNL     1     -12.030  38.805  31.572  1.00  0.00    -0.388 OA
HETATM   22  C9  UNL     1     -11.464  37.580  31.729  1.00  0.00     0.198 C 
HETATM   23  C10 UNL     1     -10.195  37.535  32.525  1.00  0.00     0.298 C 
ENDBRANCH  17  18
ENDBRANCH  16  17
ENDBRANCH  15  16
ENDBRANCH  13  15
ENDBRANCH   5  13
BRANCH   8  24
HETATM   24  N6  UNL     1     -12.797  42.646  36.570  1.00  0.00    -0.217 N 
HETATM   25  C12 UNL     1     -12.806  43.991  37.049  1.00  0.00     0.141 C 
HETATM   26  C13 UNL     1     -14.110  44.628  36.538  1.00  0.00     0.020 C 
HETATM   27  C14 UNL     1     -14.271  44.400  35.079  1.00  0.00     0.003 C 
HETATM   28  C15 UNL     1     -13.126  43.719  34.394  1.00  0.00     0.020 C 
HETATM   29  C16 UNL     1     -12.672  42.474  35.124  1.00  0.00     0.141 C 
ENDBRANCH   8  24
BRANCH   1  30
HETATM   30  N1  UNL     1     -14.190  38.848  42.315  1.00  0.00    -0.234 N 
ATOM     31  H12 UNL     1     -14.199  37.856  42.553  1.00  0.00     0.174 HD
ATOM     32  H11 UNL     1     -14.473  39.408  43.118  1.00  0.00     0.174 HD
ENDBRANCH   1  30
BRANCH  12  33
HETATM   33  C18 UNL     1     -14.365  41.767  41.603  1.00  0.00     0.316 C 
BRANCH  33  34
HETATM   34  O2  UNL     1     -13.383  42.732  41.516  1.00  0.00    -0.381 OA
ATOM     35  H2  UNL     1     -13.131  42.963  42.403  1.00  0.00     0.211 HD
ENDBRANCH  33  34
ENDBRANCH  12  33
TORSDOF 9
ENDMDL
MODEL 5
REMARK VINA RESULT: -7.183106071      1.771      2.455
REMARK  9 active torsions:
REMARK  status: ('A' for Active; 'I' for Inactive)
REMARK    1  A    between atoms: N1_1  and  C1_4 
REMARK    2  A    between atoms: C3_8  and  N3_9 
REMARK    3  A    between atoms: N3_9  and  C4_11 
REMARK    4  A    between atoms: C4_11  and  C5_12 
REMARK    5  A    between atoms: C5_12  and  C6_13 
REMARK    6  A    between atoms: C6_13  and  N4_14 
REMARK    7  A    between atoms: C11_22  and  N6_23 
REMARK    8  A    between atoms: N8_32  and  C18_33 
REMARK    9  A    between atoms: C18_33  and  O2_34 
ROOT
HETATM    1  C1  UNL     1     -13.826  40.732  40.564  1.00  0.00     0.682 A 
HETATM    2  N2  UNL     1     -13.437  41.384  39.482  1.00  0.00    -0.184 N 
ATOM      3  H2  UNL     1     -13.486  42.395  39.352  1.00  0.00     0.184 HD
HETATM    4  C2  UNL     1     -12.967  40.507  38.581  1.00  0.00     0.138 A 
HETATM    5  C3  UNL     1     -12.441  40.658  37.302  1.00  0.00     0.148 A 
HETATM    6  N5  UNL     1     -12.064  39.526  36.686  1.00  0.00    -0.174 N 
ATOM      7  H5  UNL     1     -11.673  39.595  35.746  1.00  0.00     0.186 HD
HETATM    8  C11 UNL     1     -12.174  38.312  37.240  1.00  0.00     0.683 A 
HETATM    9  N7  UNL     1     -12.689  38.217  38.480  1.00  0.00    -0.173 N 
ATOM     10  H7  UNL     1     -12.773  37.294  38.905  1.00  0.00     0.186 HD
HETATM   11  C17 UNL     1     -13.088  39.267  39.167  1.00  0.00     0.172 A 
HETATM   12  N8  UNL     1     -13.628  39.421  40.412  1.00  0.00    -0.144 N 
ENDROOT
BRANCH   5  13
HETATM   13  N3  UNL     1     -12.366  41.814  36.840  1.00  0.00    -0.374 N 
ATOM     14  H3  UNL     1     -11.782  42.434  37.402  1.00  0.00     0.161 HD
BRANCH  13  15
HETATM   15  C4  UNL     1     -12.917  42.450  35.705  1.00  0.00     0.123 C 
BRANCH  15  16
HETATM   16  C5  UNL     1     -13.908  43.492  36.284  1.00  0.00     0.050 C 
BRANCH  16  17
HETATM   17  C6  UNL     1     -13.085  44.690  36.662  1.00  0.00     0.274 C 
BRANCH  17  18
HETATM   18  N4  UNL     1     -12.987  45.713  35.678  1.00  0.00     0.092 N 
HETATM   19  C7  UNL     1     -11.581  46.016  35.485  1.00  0.00     0.298 C 
HETATM   20  C8  UNL     1     -11.445  47.221  34.614  1.00  0.00     0.198 C 
HETATM   21  O1  UNL     1     -11.925  48.317  35.278  1.00  0.00    -0.388 OA
HETATM   22  C9  UNL     1     -12.991  48.135  36.101  1.00  0.00     0.198 C 
HETATM   23  C10 UNL     1     -13.783  46.880  35.889  1.00  0.00     0.298 C 
ENDBRANCH  17  18
ENDBRANCH  16  17
ENDBRANCH  15  16
ENDBRANCH  13  15
ENDBRANCH   5  13
BRANCH   8  24
HETATM   24  N6  UNL     1     -11.767  37.135  36.590  1.00  0.00    -0.217 N 
HETATM   25  C12 UNL     1     -10.975  37.122  35.403  1.00  0.00     0.141 C 
HETATM   26  C13 UNL     1     -11.879  36.584  34.280  1.00  0.00     0.020 C 
HETATM   27  C14 UNL     1     -12.540  35.321  34.697  1.00  0.00     0.003 C 
HETATM   28  C15 UNL     1     -12.131  34.779  36.032  1.00  0.00     0.020 C 
HETATM   29  C16 UNL     1     -12.163  35.831  37.119  1.00  0.00     0.141 C 
ENDBRANCH   8  24
BRANCH   1  30
HETATM   30  N1  UNL     1     -14.333  41.307  41.628  1.00  0.00    -0.234 N 
ATOM     31  H12 UNL     1     -14.852  42.185  41.635  1.00  0.00     0.174 HD
ATOM     32  H11 UNL     1     -14.259  40.931  42.573  1.00  0.00     0.174 HD
ENDBRANCH   1  30
BRANCH  12  33
HETATM   33  C18 UNL     1     -13.907  38.342  41.336  1.00  0.00     0.316 C 
BRANCH  33  34
HETATM   34  O2  UNL     1     -13.196  38.594  42.492  1.00  0.00    -0.381 OA
ATOM     35  H2  UNL     1     -12.764  37.785  42.742  1.00  0.00     0.211 HD
ENDBRANCH  33  34
ENDBRANCH  12  33
TORSDOF 9
ENDMDL
