MODEL 1
REMARK VINA RESULT: -6.815506131      0.000      0.000
REMARK  9 active torsions:
REMARK  status: ('A' for Active; 'I' for Inactive)
REMARK    1  A    between atoms: O1_2  and  C2_3 
REMARK    2  A    between atoms: C2_3  and  C3_5 
REMARK    3  A    between atoms: C3_5  and  C4_6 
REMARK    4  A    between atoms: C4_6  and  C5_7 
REMARK    5  A    between atoms: C5_7  and  N1_8 
REMARK    6  A    between atoms: C5_7  and  C6_12 
REMARK    7  A    between atoms: C7_14  and  C8_15 
REMARK    8  A    between atoms: C12_19  and  N2_20 
REMARK    9  A    between atoms: C15_28  and  N3_29 
ROOT
HETATM    1  C6  UNL     1     -12.014  45.471  34.043  1.00  0.00     0.177 C 
HETATM    2  O3  UNL     1     -13.247  45.293  34.648  1.00  0.00    -0.363 OA
HETATM    3  C7  UNL     1     -13.776  44.034  34.498  1.00  0.00     0.212 C 
HETATM    4  S1  UNL     1     -12.776  43.084  33.291  1.00  0.00    -0.128 SA
HETATM    5  C13 UNL     1     -12.149  44.202  32.002  1.00  0.00     0.071 C 
HETATM    6  C14 UNL     1     -12.931  44.009  30.752  1.00  0.00     0.024 C 
HETATM    7  C15 UNL     1     -12.227  45.636  32.555  1.00  0.00     0.128 C 
ENDROOT
BRANCH   1   8
HETATM    8  C5  UNL     1     -11.278  46.602  34.691  1.00  0.00     0.215 C 
BRANCH   8   9
HETATM    9  C4  UNL     1     -12.070  47.165  35.821  1.00  0.00     0.045 C 
BRANCH   9  10
HETATM   10  C3  UNL     1     -12.807  48.382  35.294  1.00  0.00     0.113 C 
BRANCH  10  11
HETATM   11  C2  UNL     1     -13.791  48.888  36.281  1.00  0.00     0.258 C 
HETATM   12  O2  UNL     1     -14.031  48.248  37.332  1.00  0.00    -0.265 OA
BRANCH  11  13
HETATM   13  O1  UNL     1     -14.459  50.074  36.056  1.00  0.00    -0.326 OA
HETATM   14  C1  UNL     1     -15.810  50.121  35.612  1.00  0.00     0.213 C 
ENDBRANCH  11  13
ENDBRANCH  10  11
ENDBRANCH   9  10
ENDBRANCH   8   9
BRANCH   8  15
HETATM   15  N1  UNL     1     -10.860  47.637  33.797  1.00  0.00    -0.072 N 
ATOM     16  H13 UNL     1      -9.965  48.038  34.076  1.00  0.00     0.274 HD
ATOM     17  H12 UNL     1     -10.584  47.263  32.889  1.00  0.00     0.274 HD
ATOM     18  H11 UNL     1     -11.581  48.352  33.707  1.00  0.00     0.274 HD
ENDBRANCH   8  15
ENDBRANCH   1   8
BRANCH   7  19
HETATM   19  N3  UNL     1     -13.522  46.212  32.267  1.00  0.00    -0.359 N 
HETATM   20  C16 UNL     1     -13.737  47.390  31.815  1.00  0.00     0.197 C 
HETATM   21  N4  UNL     1     -15.078  47.791  31.589  1.00  0.00    -0.067 NA
HETATM   22  N5  UNL     1     -12.713  48.325  31.528  1.00  0.00    -0.067 NA
ATOM     23  H3  UNL     1     -14.338  45.627  32.439  1.00  0.00     0.162 HD
ENDBRANCH   7  19
BRANCH   3  24
HETATM   24  C8  UNL     1     -13.998  43.282  35.769  1.00  0.00     0.163 C 
HETATM   25  C9  UNL     1     -13.831  44.087  37.010  1.00  0.00     0.035 C 
HETATM   26  C10 UNL     1     -12.501  43.753  37.699  1.00  0.00     0.007 C 
HETATM   27  C11 UNL     1     -12.567  42.297  38.129  1.00  0.00     0.061 C 
HETATM   28  C12 UNL     1     -13.205  41.513  37.029  1.00  0.00     0.318 C 
HETATM   29  O4  UNL     1     -13.175  42.162  35.793  1.00  0.00    -0.350 OA
BRANCH  28  30
HETATM   30  N2  UNL     1     -12.462  40.270  36.882  1.00  0.00    -0.053 N 
ATOM     31  H23 UNL     1     -11.657  40.214  37.506  1.00  0.00     0.277 HD
ATOM     32  H22 UNL     1     -12.968  39.461  37.242  1.00  0.00     0.277 HD
ATOM     33  H21 UNL     1     -12.208  40.174  35.899  1.00  0.00     0.277 HD
ENDBRANCH  28  30
ENDBRANCH   3  24
TORSDOF 9
ENDMDL
MODEL 2
REMARK VINA RESULT: -6.768458149      2.542      5.198
REMARK  9 active torsions:
REMARK  status: ('A' for Active; 'I' for Inactive)
REMARK    1  A    between atoms: O1_2  and  C2_3 
REMARK    2  A    between atoms: C2_3  and  C3_5 
REMARK    3  A    between atoms: C3_5  and  C4_6 
REMARK    4  A    between atoms: C4_6  and  C5_7 
REMARK    5  A    between atoms: C5_7  and  N1_8 
REMARK    6  A    between atoms: C5_7  and  C6_12 
REMARK    7  A    between atoms: C7_14  and  C8_15 
REMARK    8  A    between atoms: C12_19  and  N2_20 
REMARK    9  A    between atoms: C15_28  and  N3_29 
ROOT
HETATM    1  C6  UNL     1     -12.958  45.126  33.919  1.00  0.00     0.177 C 
HETATM    2  O3  UNL     1     -11.828  44.834  34.666  1.00  0.00    -0.363 OA
HETATM    3  C7  UNL     1     -11.992  44.979  36.022  1.00  0.00     0.212 C 
HETATM    4  S1  UNL     1     -13.599  45.789  36.367  1.00  0.00    -0.128 SA
HETATM    5  C13 UNL     1     -13.973  46.990  35.054  1.00  0.00     0.071 C 
HETATM    6  C14 UNL     1     -13.736  48.369  35.558  1.00  0.00     0.024 C 
HETATM    7  C15 UNL     1     -13.105  46.628  33.836  1.00  0.00     0.128 C 
ENDROOT
BRANCH   1   8
HETATM    8  C5  UNL     1     -12.892  44.437  32.592  1.00  0.00     0.215 C 
BRANCH   8   9
HETATM    9  C4  UNL     1     -13.126  42.973  32.747  1.00  0.00     0.045 C 
BRANCH   9  10
HETATM   10  C3  UNL     1     -12.072  42.257  31.924  1.00  0.00     0.113 C 
BRANCH  10  11
HETATM   11  C2  UNL     1     -11.447  41.151  32.689  1.00  0.00     0.258 C 
HETATM   12  O2  UNL     1     -10.256  40.822  32.481  1.00  0.00    -0.265 OA
BRANCH  11  13
HETATM   13  O1  UNL     1     -12.171  40.467  33.643  1.00  0.00    -0.326 OA
HETATM   14  C1  UNL     1     -11.634  39.366  34.369  1.00  0.00     0.213 C 
ENDBRANCH  11  13
ENDBRANCH  10  11
ENDBRANCH   9  10
ENDBRANCH   8   9
BRANCH   8  15
HETATM   15  N1  UNL     1     -11.697  44.685  31.845  1.00  0.00    -0.072 N 
ATOM     16  H13 UNL     1     -11.145  43.836  31.724  1.00  0.00     0.274 HD
ATOM     17  H12 UNL     1     -11.898  44.879  30.864  1.00  0.00     0.274 HD
ATOM     18  H11 UNL     1     -11.150  45.432  32.273  1.00  0.00     0.274 HD
ENDBRANCH   8  15
ENDBRANCH   1   8
BRANCH   7  19
HETATM   19  N3  UNL     1     -11.823  47.292  33.922  1.00  0.00    -0.359 N 
HETATM   20  C16 UNL     1     -11.201  47.854  32.956  1.00  0.00     0.197 C 
HETATM   21  N4  UNL     1      -9.946  48.460  33.222  1.00  0.00    -0.067 NA
HETATM   22  N5  UNL     1     -11.688  47.907  31.627  1.00  0.00    -0.067 NA
ATOM     23  H3  UNL     1     -11.373  47.313  34.836  1.00  0.00     0.162 HD
ENDBRANCH   7  19
BRANCH   3  24
HETATM   24  C8  UNL     1     -11.800  43.733  36.822  1.00  0.00     0.163 C 
HETATM   25  C9  UNL     1     -12.464  42.522  36.264  1.00  0.00     0.035 C 
HETATM   26  C10 UNL     1     -13.726  42.176  37.066  1.00  0.00     0.007 C 
HETATM   27  C11 UNL     1     -13.283  41.821  38.476  1.00  0.00     0.061 C 
HETATM   28  C12 UNL     1     -12.219  42.785  38.889  1.00  0.00     0.318 C 
HETATM   29  O4  UNL     1     -12.207  43.958  38.132  1.00  0.00    -0.350 OA
BRANCH  28  30
HETATM   30  N2  UNL     1     -12.478  43.165  40.270  1.00  0.00    -0.053 N 
ATOM     31  H23 UNL     1     -13.467  43.121  40.515  1.00  0.00     0.277 HD
ATOM     32  H22 UNL     1     -12.143  42.473  40.941  1.00  0.00     0.277 HD
ATOM     33  H21 UNL     1     -12.074  44.089  40.420  1.00  0.00     0.277 HD
ENDBRANCH  28  30
ENDBRANCH   3  24
TORSDOF 9
ENDMDL
MODEL 3
REMARK VINA RESULT: -6.698611695      2.527      5.172
REMARK  9 active torsions:
REMARK  status: ('A' for Active; 'I' for Inactive)
REMARK    1  A    between atoms: O1_2  and  C2_3 
REMARK    2  A    between atoms: C2_3  and  C3_5 
REMARK    3  A    between atoms: C3_5  and  C4_6 
REMARK    4  A    between atoms: C4_6  and  C5_7 
REMARK    5  A    between atoms: C5_7  and  N1_8 
REMARK    6  A    between atoms: C5_7  and  C6_12 
REMARK    7  A    between atoms: C7_14  and  C8_15 
REMARK    8  A    between atoms: C12_19  and  N2_20 
REMARK    9  A    between atoms: C15_28  and  N3_29 
ROOT
HETATM    1  C6  UNL     1     -12.949  45.372  33.879  1.00  0.00     0.177 C 
HETATM    2  O3  UNL     1     -11.819  44.998  34.587  1.00  0.00    -0.363 OA
HETATM    3  C7  UNL     1     -11.948  45.090  35.952  1.00  0.00     0.212 C 
HETATM    4  S1  UNL     1     -13.508  45.957  36.367  1.00  0.00    -0.128 SA
HETATM    5  C13 UNL     1     -13.853  47.229  35.115  1.00  0.00     0.071 C 
HETATM    6  C14 UNL     1     -13.542  48.573  35.672  1.00  0.00     0.024 C 
HETATM    7  C15 UNL     1     -13.028  46.882  33.863  1.00  0.00     0.128 C 
ENDROOT
BRANCH   1   8
HETATM    8  C5  UNL     1     -12.942  44.739  32.523  1.00  0.00     0.215 C 
BRANCH   8   9
HETATM    9  C4  UNL     1     -13.474  43.349  32.589  1.00  0.00     0.045 C 
BRANCH   9  10
HETATM   10  C3  UNL     1     -12.360  42.417  32.151  1.00  0.00     0.113 C 
BRANCH  10  11
HETATM   11  C2  UNL     1     -12.774  41.582  30.997  1.00  0.00     0.258 C 
HETATM   12  O2  UNL     1     -12.384  40.396  30.891  1.00  0.00    -0.265 OA
BRANCH  11  13
HETATM   13  O1  UNL     1     -13.598  42.102  30.021  1.00  0.00    -0.326 OA
HETATM   14  C1  UNL     1     -14.782  41.443  29.587  1.00  0.00     0.213 C 
ENDBRANCH  11  13
ENDBRANCH  10  11
ENDBRANCH   9  10
ENDBRANCH   8   9
BRANCH   8  15
HETATM   15  N1  UNL     1     -11.679  44.769  31.852  1.00  0.00    -0.072 N 
ATOM     16  H13 UNL     1     -11.286  43.834  31.745  1.00  0.00     0.274 HD
ATOM     17  H12 UNL     1     -11.780  45.007  30.866  1.00  0.00     0.274 HD
ATOM     18  H11 UNL     1     -11.031  45.398  32.327  1.00  0.00     0.274 HD
ENDBRANCH   8  15
ENDBRANCH   1   8
BRANCH   7  19
HETATM   19  N3  UNL     1     -11.715  47.482  33.948  1.00  0.00    -0.359 N 
HETATM   20  C16 UNL     1     -11.036  47.947  32.969  1.00  0.00     0.197 C 
HETATM   21  N4  UNL     1      -9.759  48.504  33.237  1.00  0.00    -0.067 NA
HETATM   22  N5  UNL     1     -11.481  47.939  31.624  1.00  0.00    -0.067 NA
ATOM     23  H3  UNL     1     -11.292  47.540  34.874  1.00  0.00     0.162 HD
ENDBRANCH   7  19
BRANCH   3  24
HETATM   24  C8  UNL     1     -11.797  43.804  36.693  1.00  0.00     0.163 C 
HETATM   25  C9  UNL     1     -12.514  42.645  36.090  1.00  0.00     0.035 C 
HETATM   26  C10 UNL     1     -13.781  42.314  36.891  1.00  0.00     0.007 C 
HETATM   27  C11 UNL     1     -13.339  41.879  38.278  1.00  0.00     0.061 C 
HETATM   28  C12 UNL     1     -12.233  42.781  38.721  1.00  0.00     0.318 C 
HETATM   29  O4  UNL     1     -12.182  43.985  38.017  1.00  0.00    -0.350 OA
BRANCH  28  30
HETATM   30  N2  UNL     1     -12.463  43.108  40.121  1.00  0.00    -0.053 N 
ATOM     31  H23 UNL     1     -12.194  44.064  40.353  1.00  0.00     0.277 HD
ATOM     32  H22 UNL     1     -13.453  43.186  40.352  1.00  0.00     0.277 HD
ATOM     33  H21 UNL     1     -11.978  42.412  40.686  1.00  0.00     0.277 HD
ENDBRANCH  28  30
ENDBRANCH   3  24
TORSDOF 9
ENDMDL
MODEL 4
REMARK VINA RESULT: -6.668737983      2.553      5.298
REMARK  9 active torsions:
REMARK  status: ('A' for Active; 'I' for Inactive)
REMARK    1  A    between atoms: O1_2  and  C2_3 
REMARK    2  A    between atoms: C2_3  and  C3_5 
REMARK    3  A    between atoms: C3_5  and  C4_6 
REMARK    4  A    between atoms: C4_6  and  C5_7 
REMARK    5  A    between atoms: C5_7  and  N1_8 
REMARK    6  A    between atoms: C5_7  and  C6_12 
REMARK    7  A    between atoms: C7_14  and  C8_15 
REMARK    8  A    between atoms: C12_19  and  N2_20 
REMARK    9  A    between atoms: C15_28  and  N3_29 
ROOT
HETATM    1  C6  UNL     1     -12.951  45.105  33.906  1.00  0.00     0.177 C 
HETATM    2  O3  UNL     1     -11.828  44.820  34.665  1.00  0.00    -0.363 OA
HETATM    3  C7  UNL     1     -12.008  44.959  36.020  1.00  0.00     0.212 C 
HETATM    4  S1  UNL     1     -13.626  45.755  36.348  1.00  0.00    -0.128 SA
HETATM    5  C13 UNL     1     -13.994  46.957  35.035  1.00  0.00     0.071 C 
HETATM    6  C14 UNL     1     -13.774  48.336  35.546  1.00  0.00     0.024 C 
HETATM    7  C15 UNL     1     -13.109  46.606  33.826  1.00  0.00     0.128 C 
ENDROOT
BRANCH   1   8
HETATM    8  C5  UNL     1     -12.864  44.420  32.578  1.00  0.00     0.215 C 
BRANCH   8   9
HETATM    9  C4  UNL     1     -13.100  42.956  32.724  1.00  0.00     0.045 C 
BRANCH   9  10
HETATM   10  C3  UNL     1     -11.930  42.243  32.073  1.00  0.00     0.113 C 
BRANCH  10  11
HETATM   11  C2  UNL     1     -11.953  40.788  32.365  1.00  0.00     0.258 C 
HETATM   12  O2  UNL     1     -11.954  40.373  33.548  1.00  0.00    -0.265 OA
BRANCH  11  13
HETATM   13  O1  UNL     1     -11.972  39.870  31.336  1.00  0.00    -0.326 OA
HETATM   14  C1  UNL     1     -12.704  40.082  30.134  1.00  0.00     0.213 C 
ENDBRANCH  11  13
ENDBRANCH  10  11
ENDBRANCH   9  10
ENDBRANCH   8   9
BRANCH   8  15
HETATM   15  N1  UNL     1     -11.658  44.671  31.851  1.00  0.00    -0.072 N 
ATOM     16  H13 UNL     1     -11.732  45.509  31.274  1.00  0.00     0.274 HD
ATOM     17  H12 UNL     1     -10.902  44.974  32.465  1.00  0.00     0.274 HD
ATOM     18  H11 UNL     1     -11.391  43.856  31.299  1.00  0.00     0.274 HD
ENDBRANCH   8  15
ENDBRANCH   1   8
BRANCH   7  19
HETATM   19  N3  UNL     1     -11.834  47.280  33.928  1.00  0.00    -0.359 N 
HETATM   20  C16 UNL     1     -11.195  47.831  32.967  1.00  0.00     0.197 C 
HETATM   21  N4  UNL     1      -9.950  48.450  33.251  1.00  0.00    -0.067 NA
HETATM   22  N5  UNL     1     -11.654  47.860  31.628  1.00  0.00    -0.067 NA
ATOM     23  H3  UNL     1     -11.404  47.318  34.852  1.00  0.00     0.162 HD
ENDBRANCH   7  19
BRANCH   3  24
HETATM   24  C8  UNL     1     -11.816  43.712  36.818  1.00  0.00     0.163 C 
HETATM   25  C9  UNL     1     -12.473  42.500  36.255  1.00  0.00     0.035 C 
HETATM   26  C10 UNL     1     -13.737  42.148  37.050  1.00  0.00     0.007 C 
HETATM   27  C11 UNL     1     -13.300  41.791  38.461  1.00  0.00     0.061 C 
HETATM   28  C12 UNL     1     -12.241  42.758  38.881  1.00  0.00     0.318 C 
HETATM   29  O4  UNL     1     -12.229  43.933  38.127  1.00  0.00    -0.350 OA
BRANCH  28  30
HETATM   30  N2  UNL     1     -12.507  43.134  40.262  1.00  0.00    -0.053 N 
ATOM     31  H23 UNL     1     -12.916  44.065  40.348  1.00  0.00     0.277 HD
ATOM     32  H22 UNL     1     -13.279  42.610  40.674  1.00  0.00     0.277 HD
ATOM     33  H21 UNL     1     -11.637  43.034  40.785  1.00  0.00     0.277 HD
ENDBRANCH  28  30
ENDBRANCH   3  24
TORSDOF 9
ENDMDL
MODEL 5
REMARK VINA RESULT: -6.425433579      2.571      5.285
REMARK  9 active torsions:
REMARK  status: ('A' for Active; 'I' for Inactive)
REMARK    1  A    between atoms: O1_2  and  C2_3 
REMARK    2  A    between atoms: C2_3  and  C3_5 
REMARK    3  A    between atoms: C3_5  and  C4_6 
REMARK    4  A    between atoms: C4_6  and  C5_7 
REMARK    5  A    between atoms: C5_7  and  N1_8 
REMARK    6  A    between atoms: C5_7  and  C6_12 
REMARK    7  A    between atoms: C7_14  and  C8_15 
REMARK    8  A    between atoms: C12_19  and  N2_20 
REMARK    9  A    between atoms: C15_28  and  N3_29 
ROOT
HETATM    1  C6  UNL     1     -13.171  44.871  34.200  1.00  0.00     0.177 C 
HETATM    2  O3  UNL     1     -12.011  44.557  34.890  1.00  0.00    -0.363 OA
HETATM    3  C7  UNL     1     -12.087  44.753  36.247  1.00  0.00     0.212 C 
HETATM    4  S1  UNL     1     -13.637  45.642  36.656  1.00  0.00    -0.128 SA
HETATM    5  C13 UNL     1     -14.040  46.813  35.326  1.00  0.00     0.071 C 
HETATM    6  C14 UNL     1     -13.718  48.197  35.766  1.00  0.00     0.024 C 
HETATM    7  C15 UNL     1     -13.262  46.375  34.073  1.00  0.00     0.128 C 
ENDROOT
BRANCH   1   8
HETATM    8  C5  UNL     1     -13.212  44.136  32.897  1.00  0.00     0.215 C 
BRANCH   8   9
HETATM    9  C4  UNL     1     -12.378  42.903  32.962  1.00  0.00     0.045 C 
BRANCH   9  10
HETATM   10  C3  UNL     1     -12.253  42.368  31.548  1.00  0.00     0.113 C 
BRANCH  10  11
HETATM   11  C2  UNL     1     -10.835  42.313  31.114  1.00  0.00     0.258 C 
HETATM   12  O2  UNL     1     -10.223  43.358  30.792  1.00  0.00    -0.265 OA
BRANCH  11  13
HETATM   13  O1  UNL     1     -10.169  41.107  31.058  1.00  0.00    -0.326 OA
HETATM   14  C1  UNL     1      -9.329  40.646  32.111  1.00  0.00     0.213 C 
ENDBRANCH  11  13
ENDBRANCH  10  11
ENDBRANCH   9  10
ENDBRANCH   8   9
BRANCH   8  15
HETATM   15  N1  UNL     1     -12.869  44.923  31.753  1.00  0.00    -0.072 N 
ATOM     16  H13 UNL     1     -12.599  44.341  30.961  1.00  0.00     0.274 HD
ATOM     17  H12 UNL     1     -13.689  45.370  31.342  1.00  0.00     0.274 HD
ATOM     18  H11 UNL     1     -12.145  45.604  31.984  1.00  0.00     0.274 HD
ENDBRANCH   8  15
ENDBRANCH   1   8
BRANCH   7  19
HETATM   19  N3  UNL     1     -11.951  46.986  34.060  1.00  0.00    -0.359 N 
HETATM   20  C16 UNL     1     -11.479  47.735  33.136  1.00  0.00     0.197 C 
HETATM   21  N4  UNL     1     -10.167  48.251  33.290  1.00  0.00    -0.067 NA
HETATM   22  N5  UNL     1     -12.189  48.080  31.960  1.00  0.00    -0.067 NA
ATOM     23  H3  UNL     1     -11.347  46.803  34.861  1.00  0.00     0.162 HD
ENDBRANCH   7  19
BRANCH   3  24
HETATM   24  C8  UNL     1     -11.899  43.528  37.078  1.00  0.00     0.163 C 
HETATM   25  C9  UNL     1     -12.440  42.276  36.481  1.00  0.00     0.035 C 
HETATM   26  C10 UNL     1     -13.748  41.865  37.171  1.00  0.00     0.007 C 
HETATM   27  C11 UNL     1     -13.415  41.548  38.619  1.00  0.00     0.061 C 
HETATM   28  C12 UNL     1     -12.448  42.575  39.112  1.00  0.00     0.318 C 
HETATM   29  O4  UNL     1     -12.434  43.740  38.344  1.00  0.00    -0.350 OA
BRANCH  28  30
HETATM   30  N2  UNL     1     -12.851  42.952  40.460  1.00  0.00    -0.053 N 
ATOM     31  H23 UNL     1     -13.849  43.151  40.534  1.00  0.00     0.277 HD
ATOM     32  H22 UNL     1     -12.820  42.171  41.115  1.00  0.00     0.277 HD
ATOM     33  H21 UNL     1     -12.268  43.736  40.751  1.00  0.00     0.277 HD
ENDBRANCH  28  30
ENDBRANCH   3  24
TORSDOF 9
ENDMDL
