MODEL 1
REMARK VINA RESULT: -6.479396561      0.000      0.000
REMARK  11 active torsions:
REMARK  status: ('A' for Active; 'I' for Inactive)
REMARK    1  A    between atoms: N1_2  and  C3_4 
REMARK    2  A    between atoms: C3_4  and  C4_5 
REMARK    3  A    between atoms: C4_5  and  C5_6 
REMARK    4  A    between atoms: C6_9  and  C7_10 
REMARK    5  A    between atoms: C7_10  and  C8_11 
REMARK    6  A    between atoms: C9_13  and  N3_14 
REMARK    7  A    between atoms: C10_19  and  O1_20 
REMARK    8  A    between atoms: C11_22  and  N5_23 
REMARK    9  A    between atoms: N5_23  and  C12_25 
REMARK   10  A    between atoms: C12_25  and  C13_26 
REMARK   11  A    between atoms: C13_26  and  N6_27 
ROOT
HETATM    1  C5  UNL     1     -13.447  45.389  36.357  1.00  0.00     0.077 A 
HETATM    2  N2  UNL     1     -13.829  46.632  36.583  1.00  0.00    -0.348 N 
ATOM      3  H2  UNL     1     -14.540  46.834  37.285  1.00  0.00     0.166 HD
HETATM    4  C6  UNL     1     -13.277  47.616  35.885  1.00  0.00     0.068 A 
HETATM    5  C11 UNL     1     -12.330  47.279  34.959  1.00  0.00     0.099 A 
HETATM    6  S2  UNL     1     -12.278  45.533  35.140  1.00  0.00    -0.053 SA
ENDROOT
BRANCH   4   7
HETATM    7  C7  UNL     1     -13.645  48.914  36.089  1.00  0.00     0.055 C 
BRANCH   7   8
HETATM    8  C8  UNL     1     -14.681  49.545  35.252  1.00  0.00     0.061 A 
HETATM    9  S1  UNL     1     -15.014  49.400  33.586  1.00  0.00    -0.050 SA
HETATM   10  C9  UNL     1     -16.343  50.458  33.504  1.00  0.00     0.144 A 
HETATM   11  N4  UNL     1     -16.480  50.883  34.760  1.00  0.00    -0.317 N 
HETATM   12  C10 UNL     1     -15.639  50.425  35.661  1.00  0.00     0.159 A 
ATOM     13  H4  UNL     1     -17.216  51.543  35.014  1.00  0.00     0.170 HD
BRANCH  10  14
HETATM   14  N3  UNL     1     -17.088  50.806  32.474  1.00  0.00    -0.380 N 
ATOM     15  H32 UNL     1     -17.568  51.697  32.347  1.00  0.00     0.158 HD
ATOM     16  H31 UNL     1     -17.329  50.284  31.632  1.00  0.00     0.158 HD
ENDBRANCH  10  14
BRANCH  12  17
HETATM   17  O1  UNL     1     -15.711  50.823  37.027  1.00  0.00    -0.345 OA
ATOM     18  H1  UNL     1     -15.899  50.183  37.703  1.00  0.00     0.219 HD
ENDBRANCH  12  17
ENDBRANCH   7   8
ENDBRANCH   4   7
BRANCH   5  19
HETATM   19  N5  UNL     1     -11.612  47.933  34.136  1.00  0.00    -0.381 N 
ATOM     20  H5  UNL     1     -11.312  48.824  34.534  1.00  0.00     0.160 HD
BRANCH  19  21
HETATM   21  C12 UNL     1     -11.128  47.769  32.854  1.00  0.00     0.150 C 
BRANCH  21  22
HETATM   22  C13 UNL     1     -12.229  47.527  31.817  1.00  0.00     0.292 C 
BRANCH  22  23
HETATM   23  N6  UNL     1     -11.604  47.404  30.514  1.00  0.00     0.090 N 
HETATM   24  C14 UNL     1     -12.173  48.322  29.547  1.00  0.00     0.274 C 
HETATM   25  C15 UNL     1     -10.793  48.819  29.218  1.00  0.00     0.060 C 
HETATM   26  C16 UNL     1     -10.309  48.055  30.424  1.00  0.00     0.274 C 
ENDBRANCH  22  23
ENDBRANCH  21  22
ENDBRANCH  19  21
ENDBRANCH   5  19
BRANCH   1  27
HETATM   27  C4  UNL     1     -13.890  44.267  36.962  1.00  0.00     0.054 C 
BRANCH  27  28
HETATM   28  C3  UNL     1     -12.891  43.458  37.684  1.00  0.00     0.087 C 
BRANCH  28  29
HETATM   29  N1  UNL     1     -12.782  42.133  37.260  1.00  0.00    -0.398 N 
HETATM   30  C1  UNL     1     -12.601  41.788  35.931  1.00  0.00     0.148 C 
HETATM   31  C2  UNL     1     -12.790  41.170  38.285  1.00  0.00     0.148 C 
ENDBRANCH  28  29
ENDBRANCH  27  28
ENDBRANCH   1  27
TORSDOF 11
ENDMDL
MODEL 2
REMARK VINA RESULT: -6.472998299      0.953      1.331
REMARK  11 active torsions:
REMARK  status: ('A' for Active; 'I' for Inactive)
REMARK    1  A    between atoms: N1_2  and  C3_4 
REMARK    2  A    between atoms: C3_4  and  C4_5 
REMARK    3  A    between atoms: C4_5  and  C5_6 
REMARK    4  A    between atoms: C6_9  and  C7_10 
REMARK    5  A    between atoms: C7_10  and  C8_11 
REMARK    6  A    between atoms: C9_13  and  N3_14 
REMARK    7  A    between atoms: C10_19  and  O1_20 
REMARK    8  A    between atoms: C11_22  and  N5_23 
REMARK    9  A    between atoms: N5_23  and  C12_25 
REMARK   10  A    between atoms: C12_25  and  C13_26 
REMARK   11  A    between atoms: C13_26  and  N6_27 
ROOT
HETATM    1  C5  UNL     1     -13.461  45.440  36.368  1.00  0.00     0.077 A 
HETATM    2  N2  UNL     1     -13.827  46.692  36.565  1.00  0.00    -0.348 N 
ATOM      3  H2  UNL     1     -14.549  46.917  37.250  1.00  0.00     0.166 HD
HETATM    4  C6  UNL     1     -13.246  47.655  35.863  1.00  0.00     0.068 A 
HETATM    5  C11 UNL     1     -12.286  47.289  34.962  1.00  0.00     0.099 A 
HETATM    6  S2  UNL     1     -12.267  45.545  35.172  1.00  0.00    -0.053 SA
ENDROOT
BRANCH   4   7
HETATM    7  C7  UNL     1     -13.597  48.963  36.039  1.00  0.00     0.055 C 
BRANCH   7   8
HETATM    8  C8  UNL     1     -14.650  49.579  35.211  1.00  0.00     0.061 A 
HETATM    9  S1  UNL     1     -14.981  49.447  33.544  1.00  0.00    -0.050 SA
HETATM   10  C9  UNL     1     -16.337  50.474  33.477  1.00  0.00     0.144 A 
HETATM   11  N4  UNL     1     -16.482  50.879  34.739  1.00  0.00    -0.317 N 
HETATM   12  C10 UNL     1     -15.628  50.430  35.633  1.00  0.00     0.159 A 
ATOM     13  H4  UNL     1     -17.233  51.517  35.002  1.00  0.00     0.170 HD
BRANCH  10  14
HETATM   14  N3  UNL     1     -17.092  50.816  32.453  1.00  0.00    -0.380 N 
ATOM     15  H32 UNL     1     -17.532  50.182  31.786  1.00  0.00     0.158 HD
ATOM     16  H31 UNL     1     -17.380  51.739  32.130  1.00  0.00     0.158 HD
ENDBRANCH  10  14
BRANCH  12  17
HETATM   17  O1  UNL     1     -15.708  50.808  37.004  1.00  0.00    -0.345 OA
ATOM     18  H1  UNL     1     -16.493  51.225  37.340  1.00  0.00     0.219 HD
ENDBRANCH  12  17
ENDBRANCH   7   8
ENDBRANCH   4   7
BRANCH   5  19
HETATM   19  N5  UNL     1     -11.542  47.919  34.143  1.00  0.00    -0.381 N 
ATOM     20  H5  UNL     1     -11.118  48.736  34.582  1.00  0.00     0.160 HD
BRANCH  19  21
HETATM   21  C12 UNL     1     -11.152  47.798  32.824  1.00  0.00     0.150 C 
BRANCH  21  22
HETATM   22  C13 UNL     1     -12.309  47.463  31.878  1.00  0.00     0.292 C 
BRANCH  22  23
HETATM   23  N6  UNL     1     -11.924  46.312  31.084  1.00  0.00     0.090 N 
HETATM   24  C14 UNL     1     -12.704  45.136  31.415  1.00  0.00     0.274 C 
HETATM   25  C15 UNL     1     -13.040  44.958  29.960  1.00  0.00     0.060 C 
HETATM   26  C16 UNL     1     -12.457  46.330  29.733  1.00  0.00     0.274 C 
ENDBRANCH  22  23
ENDBRANCH  21  22
ENDBRANCH  19  21
ENDBRANCH   5  19
BRANCH   1  27
HETATM   27  C4  UNL     1     -13.933  44.335  36.982  1.00  0.00     0.054 C 
BRANCH  27  28
HETATM   28  C3  UNL     1     -12.952  43.489  37.684  1.00  0.00     0.087 C 
BRANCH  28  29
HETATM   29  N1  UNL     1     -12.917  42.155  37.275  1.00  0.00    -0.398 N 
HETATM   30  C1  UNL     1     -12.633  41.784  35.970  1.00  0.00     0.148 C 
HETATM   31  C2  UNL     1     -13.113  41.207  38.294  1.00  0.00     0.148 C 
ENDBRANCH  28  29
ENDBRANCH  27  28
ENDBRANCH   1  27
TORSDOF 11
ENDMDL
MODEL 3
REMARK VINA RESULT: -6.377613362      1.391      5.671
REMARK  11 active torsions:
REMARK  status: ('A' for Active; 'I' for Inactive)
REMARK    1  A    between atoms: N1_2  and  C3_4 
REMARK    2  A    between atoms: C3_4  and  C4_5 
REMARK    3  A    between atoms: C4_5  and  C5_6 
REMARK    4  A    between atoms: C6_9  and  C7_10 
REMARK    5  A    between atoms: C7_10  and  C8_11 
REMARK    6  A    between atoms: C9_13  and  N3_14 
REMARK    7  A    between atoms: C10_19  and  O1_20 
REMARK    8  A    between atoms: C11_22  and  N5_23 
REMARK    9  A    between atoms: N5_23  and  C12_25 
REMARK   10  A    between atoms: C12_25  and  C13_26 
REMARK   11  A    between atoms: C13_26  and  N6_27 
ROOT
HETATM    1  C5  UNL     1     -12.021  47.256  32.919  1.00  0.00     0.077 A 
HETATM    2  N2  UNL     1     -12.676  48.237  33.512  1.00  0.00    -0.348 N 
ATOM      3  H2  UNL     1     -12.764  49.147  33.059  1.00  0.00     0.166 HD
HETATM    4  C6  UNL     1     -13.218  48.027  34.704  1.00  0.00     0.068 A 
HETATM    5  C11 UNL     1     -13.064  46.787  35.257  1.00  0.00     0.099 A 
HETATM    6  S2  UNL     1     -12.131  45.969  34.014  1.00  0.00    -0.053 SA
ENDROOT
BRANCH   4   7
HETATM    7  C7  UNL     1     -13.902  49.017  35.349  1.00  0.00     0.055 C 
BRANCH   7   8
HETATM    8  C8  UNL     1     -15.308  49.304  35.012  1.00  0.00     0.061 A 
HETATM    9  S1  UNL     1     -16.362  48.569  33.892  1.00  0.00    -0.050 SA
HETATM   10  C9  UNL     1     -17.739  49.526  34.180  1.00  0.00     0.144 A 
HETATM   11  N4  UNL     1     -17.336  50.374  35.126  1.00  0.00    -0.317 N 
HETATM   12  C10 UNL     1     -16.099  50.271  35.560  1.00  0.00     0.159 A 
ATOM     13  H4  UNL     1     -17.968  51.080  35.503  1.00  0.00     0.170 HD
BRANCH  10  14
HETATM   14  N3  UNL     1     -18.935  49.480  33.628  1.00  0.00    -0.380 N 
ATOM     15  H32 UNL     1     -19.161  49.117  32.702  1.00  0.00     0.158 HD
ATOM     16  H31 UNL     1     -19.838  49.781  33.993  1.00  0.00     0.158 HD
ENDBRANCH  10  14
BRANCH  12  17
HETATM   17  O1  UNL     1     -15.582  51.133  36.569  1.00  0.00    -0.345 OA
ATOM     18  H1  UNL     1     -15.717  52.072  36.512  1.00  0.00     0.219 HD
ENDBRANCH  12  17
ENDBRANCH   7   8
ENDBRANCH   4   7
BRANCH   5  19
HETATM   19  N5  UNL     1     -13.435  46.243  36.347  1.00  0.00    -0.381 N 
ATOM     20  H5  UNL     1     -13.220  46.835  37.149  1.00  0.00     0.160 HD
BRANCH  19  21
HETATM   21  C12 UNL     1     -14.049  45.070  36.741  1.00  0.00     0.150 C 
BRANCH  21  22
HETATM   22  C13 UNL     1     -13.058  43.972  37.139  1.00  0.00     0.292 C 
BRANCH  22  23
HETATM   23  N6  UNL     1     -13.486  42.731  36.522  1.00  0.00     0.090 N 
HETATM   24  C14 UNL     1     -12.767  42.457  35.294  1.00  0.00     0.274 C 
HETATM   25  C15 UNL     1     -12.420  41.088  35.810  1.00  0.00     0.060 C 
HETATM   26  C16 UNL     1     -12.934  41.545  37.152  1.00  0.00     0.274 C 
ENDBRANCH  22  23
ENDBRANCH  21  22
ENDBRANCH  19  21
ENDBRANCH   5  19
BRANCH   1  27
HETATM   27  C4  UNL     1     -11.409  47.280  31.717  1.00  0.00     0.054 C 
BRANCH  27  28
HETATM   28  C3  UNL     1     -12.216  47.719  30.564  1.00  0.00     0.087 C 
BRANCH  28  29
HETATM   29  N1  UNL     1     -13.247  46.853  30.198  1.00  0.00    -0.398 N 
HETATM   30  C1  UNL     1     -13.016  45.549  29.789  1.00  0.00     0.148 C 
HETATM   31  C2  UNL     1     -14.548  47.367  30.347  1.00  0.00     0.148 C 
ENDBRANCH  28  29
ENDBRANCH  27  28
ENDBRANCH   1  27
TORSDOF 11
ENDMDL
MODEL 4
REMARK VINA RESULT: -6.295319470      1.100      5.450
REMARK  11 active torsions:
REMARK  status: ('A' for Active; 'I' for Inactive)
REMARK    1  A    between atoms: N1_2  and  C3_4 
REMARK    2  A    between atoms: C3_4  and  C4_5 
REMARK    3  A    between atoms: C4_5  and  C5_6 
REMARK    4  A    between atoms: C6_9  and  C7_10 
REMARK    5  A    between atoms: C7_10  and  C8_11 
REMARK    6  A    between atoms: C9_13  and  N3_14 
REMARK    7  A    between atoms: C10_19  and  O1_20 
REMARK    8  A    between atoms: C11_22  and  N5_23 
REMARK    9  A    between atoms: N5_23  and  C12_25 
REMARK   10  A    between atoms: C12_25  and  C13_26 
REMARK   11  A    between atoms: C13_26  and  N6_27 
ROOT
HETATM    1  C5  UNL     1     -11.826  47.466  33.539  1.00  0.00     0.077 A 
HETATM    2  N2  UNL     1     -12.809  48.215  34.001  1.00  0.00    -0.348 N 
ATOM      3  H2  UNL     1     -13.053  49.090  33.538  1.00  0.00     0.166 HD
HETATM    4  C6  UNL     1     -13.477  47.816  35.076  1.00  0.00     0.068 A 
HETATM    5  C11 UNL     1     -13.102  46.634  35.649  1.00  0.00     0.099 A 
HETATM    6  S2  UNL     1     -11.783  46.145  34.598  1.00  0.00    -0.053 SA
ENDROOT
BRANCH   4   7
HETATM    7  C7  UNL     1     -14.501  48.563  35.584  1.00  0.00     0.055 C 
BRANCH   7   8
HETATM    8  C8  UNL     1     -15.295  49.447  34.712  1.00  0.00     0.061 A 
HETATM    9  S1  UNL     1     -15.720  49.306  33.066  1.00  0.00    -0.050 SA
HETATM   10  C9  UNL     1     -16.619  50.743  32.917  1.00  0.00     0.144 A 
HETATM   11  N4  UNL     1     -16.558  51.276  34.137  1.00  0.00    -0.317 N 
HETATM   12  C10 UNL     1     -15.886  50.625  35.061  1.00  0.00     0.159 A 
ATOM     13  H4  UNL     1     -17.019  52.161  34.347  1.00  0.00     0.170 HD
BRANCH  10  14
HETATM   14  N3  UNL     1     -17.243  51.248  31.872  1.00  0.00    -0.380 N 
ATOM     15  H32 UNL     1     -17.032  51.061  30.892  1.00  0.00     0.158 HD
ATOM     16  H31 UNL     1     -18.026  51.899  31.827  1.00  0.00     0.158 HD
ENDBRANCH  10  14
BRANCH  12  17
HETATM   17  O1  UNL     1     -15.769  51.119  36.393  1.00  0.00    -0.345 OA
ATOM     18  H1  UNL     1     -15.485  52.012  36.548  1.00  0.00     0.219 HD
ENDBRANCH  12  17
ENDBRANCH   7   8
ENDBRANCH   4   7
BRANCH   5  19
HETATM   19  N5  UNL     1     -13.502  45.962  36.654  1.00  0.00    -0.381 N 
ATOM     20  H5  UNL     1     -13.331  46.463  37.526  1.00  0.00     0.160 HD
BRANCH  19  21
HETATM   21  C12 UNL     1     -14.104  44.741  36.887  1.00  0.00     0.150 C 
BRANCH  21  22
HETATM   22  C13 UNL     1     -13.104  43.623  37.203  1.00  0.00     0.292 C 
BRANCH  22  23
HETATM   23  N6  UNL     1     -13.439  42.474  36.385  1.00  0.00     0.090 N 
HETATM   24  C14 UNL     1     -12.823  42.539  35.075  1.00  0.00     0.274 C 
HETATM   25  C15 UNL     1     -12.260  41.159  35.278  1.00  0.00     0.060 C 
HETATM   26  C16 UNL     1     -12.684  41.279  36.720  1.00  0.00     0.274 C 
ENDBRANCH  22  23
ENDBRANCH  21  22
ENDBRANCH  19  21
ENDBRANCH   5  19
BRANCH   1  27
HETATM   27  C4  UNL     1     -11.040  47.704  32.468  1.00  0.00     0.054 C 
BRANCH  27  28
HETATM   28  C3  UNL     1     -11.708  47.807  31.158  1.00  0.00     0.087 C 
BRANCH  28  29
HETATM   29  N1  UNL     1     -12.409  46.668  30.759  1.00  0.00    -0.398 N 
HETATM   30  C1  UNL     1     -11.804  45.429  30.628  1.00  0.00     0.148 C 
HETATM   31  C2  UNL     1     -13.792  46.846  30.574  1.00  0.00     0.148 C 
ENDBRANCH  28  29
ENDBRANCH  27  28
ENDBRANCH   1  27
TORSDOF 11
ENDMDL
MODEL 5
REMARK VINA RESULT: -6.269290933      1.199      6.137
REMARK  11 active torsions:
REMARK  status: ('A' for Active; 'I' for Inactive)
REMARK    1  A    between atoms: N1_2  and  C3_4 
REMARK    2  A    between atoms: C3_4  and  C4_5 
REMARK    3  A    between atoms: C4_5  and  C5_6 
REMARK    4  A    between atoms: C6_9  and  C7_10 
REMARK    5  A    between atoms: C7_10  and  C8_11 
REMARK    6  A    between atoms: C9_13  and  N3_14 
REMARK    7  A    between atoms: C10_19  and  O1_20 
REMARK    8  A    between atoms: C11_22  and  N5_23 
REMARK    9  A    between atoms: N5_23  and  C12_25 
REMARK   10  A    between atoms: C12_25  and  C13_26 
REMARK   11  A    between atoms: C13_26  and  N6_27 
ROOT
HETATM    1  C5  UNL     1     -12.264  46.811  32.577  1.00  0.00     0.077 A 
HETATM    2  N2  UNL     1     -12.823  47.848  33.174  1.00  0.00    -0.348 N 
ATOM      3  H2  UNL     1     -12.944  48.728  32.673  1.00  0.00     0.166 HD
HETATM    4  C6  UNL     1     -13.225  47.731  34.432  1.00  0.00     0.068 A 
HETATM    5  C11 UNL     1     -13.034  46.526  35.047  1.00  0.00     0.099 A 
HETATM    6  S2  UNL     1     -12.272  45.602  33.763  1.00  0.00    -0.053 SA
ENDROOT
BRANCH   4   7
HETATM    7  C7  UNL     1     -13.807  48.781  35.083  1.00  0.00     0.055 C 
BRANCH   7   8
HETATM    8  C8  UNL     1     -15.217  49.132  34.839  1.00  0.00     0.061 A 
HETATM    9  S1  UNL     1     -16.369  48.459  33.776  1.00  0.00    -0.050 SA
HETATM   10  C9  UNL     1     -17.683  49.468  34.161  1.00  0.00     0.144 A 
HETATM   11  N4  UNL     1     -17.187  50.284  35.092  1.00  0.00    -0.317 N 
HETATM   12  C10 UNL     1     -15.931  50.122  35.446  1.00  0.00     0.159 A 
ATOM     13  H4  UNL     1     -17.764  51.010  35.516  1.00  0.00     0.170 HD
BRANCH  10  14
HETATM   14  N3  UNL     1     -18.911  49.481  33.684  1.00  0.00    -0.380 N 
ATOM     15  H32 UNL     1     -19.279  50.114  32.974  1.00  0.00     0.158 HD
ATOM     16  H31 UNL     1     -19.710  48.890  33.913  1.00  0.00     0.158 HD
ENDBRANCH  10  14
BRANCH  12  17
HETATM   17  O1  UNL     1     -15.317  50.947  36.433  1.00  0.00    -0.345 OA
ATOM     18  H1  UNL     1     -15.085  50.586  37.281  1.00  0.00     0.219 HD
ENDBRANCH  12  17
ENDBRANCH   7   8
ENDBRANCH   4   7
BRANCH   5  19
HETATM   19  N5  UNL     1     -13.286  46.065  36.207  1.00  0.00    -0.381 N 
ATOM     20  H5  UNL     1     -12.896  46.663  36.936  1.00  0.00     0.160 HD
BRANCH  19  21
HETATM   21  C12 UNL     1     -13.943  44.978  36.749  1.00  0.00     0.150 C 
BRANCH  21  22
HETATM   22  C13 UNL     1     -12.997  43.859  37.195  1.00  0.00     0.292 C 
BRANCH  22  23
HETATM   23  N6  UNL     1     -13.473  42.612  36.628  1.00  0.00     0.090 N 
HETATM   24  C14 UNL     1     -12.649  42.166  35.522  1.00  0.00     0.274 C 
HETATM   25  C15 UNL     1     -12.503  40.823  36.183  1.00  0.00     0.060 C 
HETATM   26  C16 UNL     1     -13.118  41.442  37.412  1.00  0.00     0.274 C 
ENDBRANCH  22  23
ENDBRANCH  21  22
ENDBRANCH  19  21
ENDBRANCH   5  19
BRANCH   1  27
HETATM   27  C4  UNL     1     -11.797  46.739  31.314  1.00  0.00     0.054 C 
BRANCH  27  28
HETATM   28  C3  UNL     1     -12.353  47.695  30.339  1.00  0.00     0.087 C 
BRANCH  28  29
HETATM   29  N1  UNL     1     -11.410  48.468  29.662  1.00  0.00    -0.398 N 
HETATM   30  C1  UNL     1     -11.765  49.431  28.731  1.00  0.00     0.148 C 
HETATM   31  C2  UNL     1     -10.073  48.260  30.046  1.00  0.00     0.148 C 
ENDBRANCH  28  29
ENDBRANCH  27  28
ENDBRANCH   1  27
TORSDOF 11
ENDMDL
