MODEL 1
REMARK VINA RESULT: -6.053796686      0.000      0.000
REMARK  6 active torsions:
REMARK  status: ('A' for Active; 'I' for Inactive)
REMARK    1  A    between atoms: C2_2  and  S1_4 
REMARK    2  A    between atoms: S1_4  and  C3_5 
REMARK    3  A    between atoms: C3_5  and  C4_6 
REMARK    4  A    between atoms: C5_7  and  C6_8 
REMARK    5  A    between atoms: C6_8  and  N1_9 
REMARK    6  A    between atoms: C9_13  and  C10_14 
ROOT
HETATM    1  N1  UNL     1      36.884  60.669  79.904  1.00  0.00    -0.245 N 
HETATM    2  O2  UNL     1      37.416  61.829  80.126  1.00  0.00    -0.238 OA
HETATM    3  C7  UNL     1      37.058  62.285  81.282  1.00  0.00     0.090 A 
HETATM    4  C8  UNL     1      37.440  63.588  81.938  1.00  0.00     0.080 C 
HETATM    5  C9  UNL     1      36.232  61.363  81.865  1.00  0.00     0.084 A 
HETATM    6  C11 UNL     1      36.130  60.327  80.962  1.00  0.00     0.050 A 
HETATM    7  C12 UNL     1      35.342  59.076  81.125  1.00  0.00     0.071 C 
ENDROOT
BRANCH   1   8
HETATM    8  C6  UNL     1      37.049  59.829  78.704  1.00  0.00     0.250 C 
BRANCH   8   9
HETATM    9  C5  UNL     1      37.722  60.551  77.641  1.00  0.00    -0.084 C 
HETATM   10  C4  UNL     1      38.275  61.131  76.747  1.00  0.00    -0.094 C 
BRANCH  10  11
HETATM   11  C3  UNL     1      38.934  61.821  75.649  1.00  0.00     0.176 C 
BRANCH  11  12
HETATM   12  S1  UNL     1      39.401  60.605  74.412  1.00  0.00    -0.081 SA
BRANCH  12  13
HETATM   13  C2  UNL     1      38.543  60.951  72.880  1.00  0.00     0.182 C 
HETATM   14  C1  UNL     1      39.090  61.860  71.842  1.00  0.00     0.104 C 
HETATM   15  O1  UNL     1      37.456  60.432  72.646  1.00  0.00    -0.286 OA
ENDBRANCH  12  13
ENDBRANCH  11  12
ENDBRANCH  10  11
ENDBRANCH   8   9
ENDBRANCH   1   8
BRANCH   5  16
HETATM   16  C10 UNL     1      35.574  61.434  83.178  1.00  0.00     0.269 C 
HETATM   17  N2  UNL     1      36.150  60.779  84.276  1.00  0.00    -0.057 NA
HETATM   18  O3  UNL     1      34.506  62.081  83.284  1.00  0.00    -0.271 OA
ENDBRANCH   5  16
TORSDOF 6
ENDMDL
MODEL 2
REMARK VINA RESULT: -6.007157066      5.342      8.918
REMARK  6 active torsions:
REMARK  status: ('A' for Active; 'I' for Inactive)
REMARK    1  A    between atoms: C2_2  and  S1_4 
REMARK    2  A    between atoms: S1_4  and  C3_5 
REMARK    3  A    between atoms: C3_5  and  C4_6 
REMARK    4  A    between atoms: C5_7  and  C6_8 
REMARK    5  A    between atoms: C6_8  and  N1_9 
REMARK    6  A    between atoms: C9_13  and  C10_14 
ROOT
HETATM    1  N1  UNL     1      35.728  60.300  83.778  1.00  0.00    -0.245 N 
HETATM    2  O2  UNL     1      36.375  61.207  83.117  1.00  0.00    -0.238 OA
HETATM    3  C7  UNL     1      36.141  61.106  81.849  1.00  0.00     0.090 A 
HETATM    4  C8  UNL     1      36.682  61.952  80.723  1.00  0.00     0.080 C 
HETATM    5  C9  UNL     1      35.279  60.060  81.658  1.00  0.00     0.084 A 
HETATM    6  C11 UNL     1      35.024  59.551  82.913  1.00  0.00     0.050 A 
HETATM    7  C12 UNL     1      34.143  58.400  83.245  1.00  0.00     0.071 C 
ENDROOT
BRANCH   1   8
HETATM    8  C6  UNL     1      35.734  60.086  85.236  1.00  0.00     0.250 C 
BRANCH   8   9
HETATM    9  C5  UNL     1      36.804  59.193  85.636  1.00  0.00    -0.084 C 
HETATM   10  C4  UNL     1      37.677  58.445  85.982  1.00  0.00    -0.094 C 
BRANCH  10  11
HETATM   11  C3  UNL     1      38.718  57.523  86.411  1.00  0.00     0.176 C 
BRANCH  11  12
HETATM   12  S1  UNL     1      38.267  55.868  85.880  1.00  0.00    -0.081 SA
BRANCH  12  13
HETATM   13  C2  UNL     1      38.593  54.706  87.202  1.00  0.00     0.182 C 
HETATM   14  C1  UNL     1      38.283  53.258  87.092  1.00  0.00     0.104 C 
HETATM   15  O1  UNL     1      39.092  55.089  88.256  1.00  0.00    -0.286 OA
ENDBRANCH  12  13
ENDBRANCH  11  12
ENDBRANCH  10  11
ENDBRANCH   8   9
ENDBRANCH   1   8
BRANCH   5  16
HETATM   16  C10 UNL     1      34.726  59.559  80.391  1.00  0.00     0.269 C 
HETATM   17  N2  UNL     1      33.422  59.915  80.019  1.00  0.00    -0.057 NA
HETATM   18  O3  UNL     1      35.437  58.821  79.671  1.00  0.00    -0.271 OA
ENDBRANCH   5  16
TORSDOF 6
ENDMDL
MODEL 3
REMARK VINA RESULT: -5.928847282      6.873      9.002
REMARK  6 active torsions:
REMARK  status: ('A' for Active; 'I' for Inactive)
REMARK    1  A    between atoms: C2_2  and  S1_4 
REMARK    2  A    between atoms: S1_4  and  C3_5 
REMARK    3  A    between atoms: C3_5  and  C4_6 
REMARK    4  A    between atoms: C5_7  and  C6_8 
REMARK    5  A    between atoms: C6_8  and  N1_9 
REMARK    6  A    between atoms: C9_13  and  C10_14 
ROOT
HETATM    1  N1  UNL     1      36.195  57.632  82.629  1.00  0.00    -0.245 N 
HETATM    2  O2  UNL     1      35.096  57.330  82.013  1.00  0.00    -0.238 OA
HETATM    3  C7  UNL     1      34.096  57.978  82.516  1.00  0.00     0.090 A 
HETATM    4  C8  UNL     1      32.645  57.930  82.108  1.00  0.00     0.080 C 
HETATM    5  C9  UNL     1      34.566  58.761  83.535  1.00  0.00     0.084 A 
HETATM    6  C11 UNL     1      35.922  58.525  83.595  1.00  0.00     0.050 A 
HETATM    7  C12 UNL     1      36.893  59.138  84.540  1.00  0.00     0.071 C 
ENDROOT
BRANCH   1   8
HETATM    8  C6  UNL     1      37.544  57.106  82.351  1.00  0.00     0.250 C 
BRANCH   8   9
HETATM    9  C5  UNL     1      37.845  55.955  83.181  1.00  0.00    -0.084 C 
HETATM   10  C4  UNL     1      38.092  55.014  83.885  1.00  0.00    -0.094 C 
BRANCH  10  11
HETATM   11  C3  UNL     1      38.380  53.886  84.757  1.00  0.00     0.176 C 
BRANCH  11  12
HETATM   12  S1  UNL     1      37.539  54.147  86.322  1.00  0.00    -0.081 SA
BRANCH  12  13
HETATM   13  C2  UNL     1      38.440  55.354  87.289  1.00  0.00     0.182 C 
HETATM   14  C1  UNL     1      38.428  56.805  86.974  1.00  0.00     0.104 C 
HETATM   15  O1  UNL     1      39.105  55.003  88.259  1.00  0.00    -0.286 OA
ENDBRANCH  12  13
ENDBRANCH  11  12
ENDBRANCH  10  11
ENDBRANCH   8   9
ENDBRANCH   1   8
BRANCH   5  16
HETATM   16  C10 UNL     1      33.807  59.673  84.404  1.00  0.00     0.269 C 
HETATM   17  N2  UNL     1      33.877  61.055  84.184  1.00  0.00    -0.057 NA
HETATM   18  O3  UNL     1      33.113  59.188  85.328  1.00  0.00    -0.271 OA
ENDBRANCH   5  16
TORSDOF 6
ENDMDL
MODEL 4
REMARK VINA RESULT: -5.842831734      6.820      9.020
REMARK  6 active torsions:
REMARK  status: ('A' for Active; 'I' for Inactive)
REMARK    1  A    between atoms: C2_2  and  S1_4 
REMARK    2  A    between atoms: S1_4  and  C3_5 
REMARK    3  A    between atoms: C3_5  and  C4_6 
REMARK    4  A    between atoms: C5_7  and  C6_8 
REMARK    5  A    between atoms: C6_8  and  N1_9 
REMARK    6  A    between atoms: C9_13  and  C10_14 
ROOT
HETATM    1  N1  UNL     1      38.196  56.277  84.345  1.00  0.00    -0.245 N 
HETATM    2  O2  UNL     1      38.247  55.014  84.065  1.00  0.00    -0.238 OA
HETATM    3  C7  UNL     1      38.246  54.303  85.146  1.00  0.00     0.090 A 
HETATM    4  C8  UNL     1      38.294  52.802  85.284  1.00  0.00     0.080 C 
HETATM    5  C9  UNL     1      38.191  55.157  86.215  1.00  0.00     0.084 A 
HETATM    6  C11 UNL     1      38.161  56.426  85.680  1.00  0.00     0.050 A 
HETATM    7  C12 UNL     1      38.099  57.708  86.430  1.00  0.00     0.071 C 
ENDROOT
BRANCH   1   8
HETATM    8  C6  UNL     1      38.181  57.400  83.391  1.00  0.00     0.250 C 
BRANCH   8   9
HETATM    9  C5  UNL     1      36.855  57.611  82.842  1.00  0.00    -0.084 C 
HETATM   10  C4  UNL     1      35.760  57.807  82.389  1.00  0.00    -0.094 C 
BRANCH  10  11
HETATM   11  C3  UNL     1      34.442  58.066  81.832  1.00  0.00     0.176 C 
BRANCH  11  12
HETATM   12  S1  UNL     1      34.009  59.777  82.166  1.00  0.00    -0.081 SA
BRANCH  12  13
HETATM   13  C2  UNL     1      33.761  59.997  83.925  1.00  0.00     0.182 C 
HETATM   14  C1  UNL     1      33.118  58.966  84.779  1.00  0.00     0.104 C 
HETATM   15  O1  UNL     1      34.125  61.029  84.479  1.00  0.00    -0.286 OA
ENDBRANCH  12  13
ENDBRANCH  11  12
ENDBRANCH  10  11
ENDBRANCH   8   9
ENDBRANCH   1   8
BRANCH   5  16
HETATM   16  C10 UNL     1      38.170  54.819  87.646  1.00  0.00     0.269 C 
HETATM   17  N2  UNL     1      36.983  54.354  88.228  1.00  0.00    -0.057 NA
HETATM   18  O3  UNL     1      39.220  54.959  88.315  1.00  0.00    -0.271 OA
ENDBRANCH   5  16
TORSDOF 6
ENDMDL
MODEL 5
REMARK VINA RESULT: -5.830669189      1.805      2.327
REMARK  6 active torsions:
REMARK  status: ('A' for Active; 'I' for Inactive)
REMARK    1  A    between atoms: C2_2  and  S1_4 
REMARK    2  A    between atoms: S1_4  and  C3_5 
REMARK    3  A    between atoms: C3_5  and  C4_6 
REMARK    4  A    between atoms: C5_7  and  C6_8 
REMARK    5  A    between atoms: C6_8  and  N1_9 
REMARK    6  A    between atoms: C9_13  and  C10_14 
ROOT
HETATM    1  N1  UNL     1      37.161  59.555  79.201  1.00  0.00    -0.245 N 
HETATM    2  O2  UNL     1      35.878  59.488  79.033  1.00  0.00    -0.238 OA
HETATM    3  C7  UNL     1      35.255  59.880  80.097  1.00  0.00     0.090 A 
HETATM    4  C8  UNL     1      33.768  59.964  80.338  1.00  0.00     0.080 C 
HETATM    5  C9  UNL     1      36.190  60.230  81.033  1.00  0.00     0.084 A 
HETATM    6  C11 UNL     1      37.414  60.013  80.438  1.00  0.00     0.050 A 
HETATM    7  C12 UNL     1      38.753  60.242  81.044  1.00  0.00     0.071 C 
ENDROOT
BRANCH   1   8
HETATM    8  C6  UNL     1      38.205  59.197  78.225  1.00  0.00     0.250 C 
BRANCH   8   9
HETATM    9  C5  UNL     1      38.406  60.254  77.251  1.00  0.00    -0.084 C 
HETATM   10  C4  UNL     1      38.593  61.127  76.449  1.00  0.00    -0.094 C 
BRANCH  10  11
HETATM   11  C3  UNL     1      38.843  62.177  75.474  1.00  0.00     0.176 C 
BRANCH  11  12
HETATM   12  S1  UNL     1      39.684  61.454  74.061  1.00  0.00    -0.081 SA
BRANCH  12  13
HETATM   13  C2  UNL     1      39.140  62.267  72.562  1.00  0.00     0.182 C 
HETATM   14  C1  UNL     1      38.887  61.530  71.298  1.00  0.00     0.104 C 
HETATM   15  O1  UNL     1      38.959  63.480  72.543  1.00  0.00    -0.286 OA
ENDBRANCH  12  13
ENDBRANCH  11  12
ENDBRANCH  10  11
ENDBRANCH   8   9
ENDBRANCH   1   8
BRANCH   5  16
HETATM   16  C10 UNL     1      35.967  60.732  82.396  1.00  0.00     0.269 C 
HETATM   17  N2  UNL     1      36.058  62.108  82.648  1.00  0.00    -0.057 NA
HETATM   18  O3  UNL     1      35.700  59.913  83.305  1.00  0.00    -0.271 OA
ENDBRANCH   5  16
TORSDOF 6
ENDMDL
