MODEL 1
REMARK VINA RESULT: -5.308722192      0.000      0.000
REMARK  5 active torsions:
REMARK  status: ('A' for Active; 'I' for Inactive)
REMARK    1  A    between atoms: C1_2  and  N1_3 
REMARK    2  A    between atoms: C1_2  and  N3_13 
REMARK    3  A    between atoms: N1_3  and  C2_5 
REMARK    4  A    between atoms: C2_5  and  C3_6 
REMARK    5  A    between atoms: C3_6  and  N2_7 
ROOT
HETATM    1  N1  UNL     1      35.376  62.292  82.344  1.00  0.00    -0.365 N 
ATOM      2  H1  UNL     1      34.589  62.839  81.994  1.00  0.00     0.161 HD
ENDROOT
BRANCH   1   3
HETATM    3  C1  UNL     1      36.650  62.500  81.733  1.00  0.00     0.169 C 
HETATM    4  S1  UNL     1      37.436  63.932  81.973  1.00  0.00    -0.041 SA
BRANCH   3   5
HETATM    5  N3  UNL     1      37.198  61.483  80.930  1.00  0.00    -0.358 N 
HETATM    6  C8  UNL     1      38.112  60.538  81.498  1.00  0.00     0.125 C 
HETATM    7  C9  UNL     1      38.804  59.689  80.467  1.00  0.00     0.020 C 
HETATM    8  C10 UNL     1      37.994  59.320  79.280  1.00  0.00     0.003 C 
HETATM    9  C11 UNL     1      36.643  59.971  79.169  1.00  0.00     0.020 C 
HETATM   10  C12 UNL     1      36.783  61.435  79.535  1.00  0.00     0.125 C 
ENDBRANCH   3   5
ENDBRANCH   1   3
BRANCH   1  11
HETATM   11  C2  UNL     1      35.119  61.367  83.418  1.00  0.00     0.152 C 
BRANCH  11  12
HETATM   12  C3  UNL     1      34.055  60.407  83.025  1.00  0.00     0.292 C 
BRANCH  12  13
HETATM   13  N2  UNL     1      34.484  59.445  82.033  1.00  0.00     0.091 N 
HETATM   14  C4  UNL     1      34.946  58.212  82.618  1.00  0.00     0.282 C 
HETATM   15  C5  UNL     1      35.533  57.354  81.483  1.00  0.00     0.104 C 
HETATM   16  S2  UNL     1      34.024  56.664  80.671  1.00  0.00    -0.166 SA
HETATM   17  C6  UNL     1      32.753  57.925  81.112  1.00  0.00     0.104 C 
HETATM   18  C7  UNL     1      33.496  59.244  80.997  1.00  0.00     0.282 C 
ENDBRANCH  12  13
ENDBRANCH  11  12
ENDBRANCH   1  11
TORSDOF 5
ENDMDL
MODEL 2
REMARK VINA RESULT: -5.271020470      2.119      2.593
REMARK  5 active torsions:
REMARK  status: ('A' for Active; 'I' for Inactive)
REMARK    1  A    between atoms: C1_2  and  N1_3 
REMARK    2  A    between atoms: C1_2  and  N3_13 
REMARK    3  A    between atoms: N1_3  and  C2_5 
REMARK    4  A    between atoms: C2_5  and  C3_6 
REMARK    5  A    between atoms: C3_6  and  N2_7 
ROOT
HETATM    1  N1  UNL     1      35.351  62.337  82.402  1.00  0.00    -0.365 N 
ATOM      2  H1  UNL     1      34.830  63.170  82.677  1.00  0.00     0.161 HD
ENDROOT
BRANCH   1   3
HETATM    3  C1  UNL     1      36.624  62.529  81.780  1.00  0.00     0.169 C 
HETATM    4  S1  UNL     1      37.423  63.956  82.000  1.00  0.00    -0.041 SA
BRANCH   3   5
HETATM    5  N3  UNL     1      37.156  61.499  80.983  1.00  0.00    -0.358 N 
HETATM    6  C8  UNL     1      38.168  60.635  81.514  1.00  0.00     0.125 C 
HETATM    7  C9  UNL     1      38.815  59.768  80.468  1.00  0.00     0.020 C 
HETATM    8  C10 UNL     1      37.928  59.294  79.378  1.00  0.00     0.003 C 
HETATM    9  C11 UNL     1      36.538  59.867  79.356  1.00  0.00     0.020 C 
HETATM   10  C12 UNL     1      36.626  61.354  79.634  1.00  0.00     0.125 C 
ENDBRANCH   3   5
ENDBRANCH   1   3
BRANCH   1  11
HETATM   11  C2  UNL     1      34.750  61.057  82.669  1.00  0.00     0.152 C 
BRANCH  11  12
HETATM   12  C3  UNL     1      34.990  60.662  84.082  1.00  0.00     0.292 C 
BRANCH  12  13
HETATM   13  N2  UNL     1      36.112  59.763  84.245  1.00  0.00     0.091 N 
HETATM   14  C4  UNL     1      36.511  59.617  85.622  1.00  0.00     0.282 C 
HETATM   15  C5  UNL     1      37.807  58.786  85.641  1.00  0.00     0.104 C 
HETATM   16  S2  UNL     1      37.192  57.062  85.403  1.00  0.00    -0.166 SA
HETATM   17  C6  UNL     1      35.594  57.353  84.529  1.00  0.00     0.104 C 
HETATM   18  C7  UNL     1      35.905  58.496  83.579  1.00  0.00     0.282 C 
ENDBRANCH  12  13
ENDBRANCH  11  12
ENDBRANCH   1  11
TORSDOF 5
ENDMDL
MODEL 3
REMARK VINA RESULT: -5.261584423      3.555      5.013
REMARK  5 active torsions:
REMARK  status: ('A' for Active; 'I' for Inactive)
REMARK    1  A    between atoms: C1_2  and  N1_3 
REMARK    2  A    between atoms: C1_2  and  N3_13 
REMARK    3  A    between atoms: N1_3  and  C2_5 
REMARK    4  A    between atoms: C2_5  and  C3_6 
REMARK    5  A    between atoms: C3_6  and  N2_7 
ROOT
HETATM    1  N1  UNL     1      37.231  59.874  82.460  1.00  0.00    -0.365 N 
ATOM      2  H1  UNL     1      37.826  59.984  81.639  1.00  0.00     0.161 HD
ENDROOT
BRANCH   1   3
HETATM    3  C1  UNL     1      35.904  60.399  82.391  1.00  0.00     0.169 C 
HETATM    4  S1  UNL     1      35.647  61.992  82.740  1.00  0.00    -0.041 SA
BRANCH   3   5
HETATM    5  N3  UNL     1      34.847  59.539  82.039  1.00  0.00    -0.358 N 
HETATM    6  C8  UNL     1      33.913  59.110  83.037  1.00  0.00     0.125 C 
HETATM    7  C9  UNL     1      33.013  58.000  82.568  1.00  0.00     0.020 C 
HETATM    8  C10 UNL     1      32.608  58.052  81.142  1.00  0.00     0.003 C 
HETATM    9  C11 UNL     1      33.273  59.106  80.300  1.00  0.00     0.020 C 
HETATM   10  C12 UNL     1      34.748  59.136  80.643  1.00  0.00     0.125 C 
ENDBRANCH   3   5
ENDBRANCH   1   3
BRANCH   1  11
HETATM   11  C2  UNL     1      37.792  59.200  83.603  1.00  0.00     0.152 C 
BRANCH  11  12
HETATM   12  C3  UNL     1      37.708  57.727  83.422  1.00  0.00     0.292 C 
BRANCH  12  13
HETATM   13  N2  UNL     1      37.342  57.018  84.628  1.00  0.00     0.091 N 
HETATM   14  C4  UNL     1      37.947  55.714  84.713  1.00  0.00     0.282 C 
HETATM   15  C5  UNL     1      37.344  55.003  85.939  1.00  0.00     0.104 C 
HETATM   16  S2  UNL     1      38.261  55.768  87.347  1.00  0.00    -0.166 SA
HETATM   17  C6  UNL     1      38.754  57.395  86.633  1.00  0.00     0.104 C 
HETATM   18  C7  UNL     1      37.543  57.815  85.818  1.00  0.00     0.282 C 
ENDBRANCH  12  13
ENDBRANCH  11  12
ENDBRANCH   1  11
TORSDOF 5
ENDMDL
MODEL 4
REMARK VINA RESULT: -5.243578078      3.619      4.972
REMARK  5 active torsions:
REMARK  status: ('A' for Active; 'I' for Inactive)
REMARK    1  A    between atoms: C1_2  and  N1_3 
REMARK    2  A    between atoms: C1_2  and  N3_13 
REMARK    3  A    between atoms: N1_3  and  C2_5 
REMARK    4  A    between atoms: C2_5  and  C3_6 
REMARK    5  A    between atoms: C3_6  and  N2_7 
ROOT
HETATM    1  N1  UNL     1      36.481  59.849  83.959  1.00  0.00    -0.365 N 
ATOM      2  H1  UNL     1      36.263  60.171  84.902  1.00  0.00     0.161 HD
ENDROOT
BRANCH   1   3
HETATM    3  C1  UNL     1      35.662  60.329  82.890  1.00  0.00     0.169 C 
HETATM    4  S1  UNL     1      35.881  61.868  82.335  1.00  0.00    -0.041 SA
BRANCH   3   5
HETATM    5  N3  UNL     1      34.680  59.481  82.348  1.00  0.00    -0.358 N 
HETATM    6  C8  UNL     1      33.642  58.961  83.187  1.00  0.00     0.125 C 
HETATM    7  C9  UNL     1      32.837  57.874  82.528  1.00  0.00     0.020 C 
HETATM    8  C10 UNL     1      32.610  58.026  81.070  1.00  0.00     0.003 C 
HETATM    9  C11 UNL     1      33.346  59.152  80.397  1.00  0.00     0.020 C 
HETATM   10  C12 UNL     1      34.766  59.182  80.925  1.00  0.00     0.125 C 
ENDBRANCH   3   5
ENDBRANCH   1   3
BRANCH   1  11
HETATM   11  C2  UNL     1      37.591  58.945  83.804  1.00  0.00     0.152 C 
BRANCH  11  12
HETATM   12  C3  UNL     1      38.198  58.646  85.127  1.00  0.00     0.292 C 
BRANCH  12  13
HETATM   13  N2  UNL     1      38.311  57.231  85.403  1.00  0.00     0.091 N 
HETATM   14  C4  UNL     1      38.238  56.931  86.810  1.00  0.00     0.282 C 
HETATM   15  C5  UNL     1      38.545  55.431  86.979  1.00  0.00     0.104 C 
HETATM   16  S2  UNL     1      36.953  54.631  86.497  1.00  0.00    -0.166 SA
HETATM   17  C6  UNL     1      36.211  55.908  85.392  1.00  0.00     0.104 C 
HETATM   18  C7  UNL     1      37.398  56.440  84.608  1.00  0.00     0.282 C 
ENDBRANCH  12  13
ENDBRANCH  11  12
ENDBRANCH   1  11
TORSDOF 5
ENDMDL
MODEL 5
REMARK VINA RESULT: -5.234410734      2.584      3.241
REMARK  5 active torsions:
REMARK  status: ('A' for Active; 'I' for Inactive)
REMARK    1  A    between atoms: C1_2  and  N1_3 
REMARK    2  A    between atoms: C1_2  and  N3_13 
REMARK    3  A    between atoms: N1_3  and  C2_5 
REMARK    4  A    between atoms: C2_5  and  C3_6 
REMARK    5  A    between atoms: C3_6  and  N2_7 
ROOT
HETATM    1  N1  UNL     1      34.864  61.417  81.733  1.00  0.00    -0.365 N 
ATOM      2  H1  UNL     1      34.039  61.565  81.152  1.00  0.00     0.161 HD
ENDROOT
BRANCH   1   3
HETATM    3  C1  UNL     1      36.144  61.622  81.131  1.00  0.00     0.169 C 
HETATM    4  S1  UNL     1      37.078  62.887  81.631  1.00  0.00    -0.041 SA
BRANCH   3   5
HETATM    5  N3  UNL     1      36.568  60.746  80.115  1.00  0.00    -0.358 N 
HETATM    6  C8  UNL     1      35.679  59.736  79.623  1.00  0.00     0.125 C 
HETATM    7  C9  UNL     1      36.360  58.726  78.742  1.00  0.00     0.020 C 
HETATM    8  C10 UNL     1      37.447  59.246  77.876  1.00  0.00     0.003 C 
HETATM    9  C11 UNL     1      37.848  60.678  78.102  1.00  0.00     0.020 C 
HETATM   10  C12 UNL     1      37.917  60.928  79.595  1.00  0.00     0.125 C 
ENDBRANCH   3   5
ENDBRANCH   1   3
BRANCH   1  11
HETATM   11  C2  UNL     1      34.652  61.019  83.101  1.00  0.00     0.152 C 
BRANCH  11  12
HETATM   12  C3  UNL     1      35.155  59.637  83.316  1.00  0.00     0.292 C 
BRANCH  12  13
HETATM   13  N2  UNL     1      36.404  59.584  84.043  1.00  0.00     0.091 N 
HETATM   14  C4  UNL     1      36.274  58.945  85.327  1.00  0.00     0.282 C 
HETATM   15  C5  UNL     1      37.616  59.111  86.064  1.00  0.00     0.104 C 
HETATM   16  S2  UNL     1      38.676  57.820  85.278  1.00  0.00    -0.166 SA
HETATM   17  C6  UNL     1      37.869  57.624  83.632  1.00  0.00     0.104 C 
HETATM   18  C7  UNL     1      37.483  59.042  83.247  1.00  0.00     0.282 C 
ENDBRANCH  12  13
ENDBRANCH  11  12
ENDBRANCH   1  11
TORSDOF 5
ENDMDL
