MODEL 1
REMARK VINA RESULT: -5.735044385      0.000      0.000
REMARK  3 active torsions:
REMARK  status: ('A' for Active; 'I' for Inactive)
REMARK    1  A    between atoms: C2_2  and  N1_3 
REMARK    2  A    between atoms: N1_3  and  C5_6 
REMARK    3  A    between atoms: C5_6  and  C6_7 
REMARK       I    between atoms: N3_12  and  C8_13 
ROOT
HETATM    1  C6  UNL     1      36.435  58.577  80.996  1.00  0.00     0.109 C 
HETATM    2  N2  UNL     1      35.299  57.949  81.145  1.00  0.00    -0.321 N 
ATOM      3  H2  UNL     1      35.142  57.069  80.655  1.00  0.00     0.169 HD
HETATM    4  C7  UNL     1      34.271  58.480  81.988  1.00  0.00     0.183 C 
HETATM    5  S1  UNL     1      32.843  57.696  82.175  1.00  0.00    -0.040 SA
HETATM    6  N3  UNL     1      34.525  59.720  82.659  1.00  0.00    -0.273 N 
HETATM    7  C8  UNL     1      33.916  59.999  83.901  1.00  0.00     0.223 C 
HETATM    8  C9  UNL     1      33.018  59.089  84.640  1.00  0.00     0.117 C 
HETATM    9  O1  UNL     1      34.134  61.126  84.470  1.00  0.00    -0.273 OA
HETATM   10  C10 UNL     1      35.434  60.597  81.973  1.00  0.00     0.193 C 
HETATM   11  C11 UNL     1      35.809  61.856  82.689  1.00  0.00     0.056 C 
HETATM   12  N4  UNL     1      36.628  59.792  81.697  1.00  0.00    -0.352 N 
HETATM   13  C12 UNL     1      37.955  60.229  82.140  1.00  0.00     0.153 C 
ENDROOT
BRANCH   1  14
HETATM   14  C5  UNL     1      37.516  58.065  80.140  1.00  0.00     0.312 C 
BRANCH  14  15
HETATM   15  N1  UNL     1      37.441  58.437  78.755  1.00  0.00    -0.069 N 
HETATM   16  C3  UNL     1      36.572  57.500  78.075  1.00  0.00     0.272 C 
HETATM   17  C4  UNL     1      38.691  58.487  78.068  1.00  0.00     0.272 C 
BRANCH  15  18
HETATM   18  C2  UNL     1      36.820  59.751  78.588  1.00  0.00     0.232 C 
HETATM   19  C1  UNL     1      37.804  60.812  78.218  1.00  0.00     0.035 C 
ENDBRANCH  15  18
ENDBRANCH  14  15
ENDBRANCH   1  14
TORSDOF 3
ENDMDL
MODEL 2
REMARK VINA RESULT: -5.700556681      3.981      5.040
REMARK  3 active torsions:
REMARK  status: ('A' for Active; 'I' for Inactive)
REMARK    1  A    between atoms: C2_2  and  N1_3 
REMARK    2  A    between atoms: N1_3  and  C5_6 
REMARK    3  A    between atoms: C5_6  and  C6_7 
REMARK       I    between atoms: N3_12  and  C8_13 
ROOT
HETATM    1  C6  UNL     1      35.885  57.437  83.284  1.00  0.00     0.109 C 
HETATM    2  N2  UNL     1      35.538  56.257  83.725  1.00  0.00    -0.321 N 
ATOM      3  H2  UNL     1      34.843  55.713  83.214  1.00  0.00     0.169 HD
HETATM    4  C7  UNL     1      36.121  55.716  84.915  1.00  0.00     0.183 C 
HETATM    5  S1  UNL     1      35.687  54.235  85.471  1.00  0.00    -0.040 SA
HETATM    6  N3  UNL     1      37.093  56.508  85.607  1.00  0.00    -0.273 N 
HETATM    7  C8  UNL     1      38.119  55.891  86.354  1.00  0.00     0.223 C 
HETATM    8  C9  UNL     1      38.330  54.435  86.482  1.00  0.00     0.117 C 
HETATM    9  O1  UNL     1      38.960  56.618  86.990  1.00  0.00    -0.273 OA
HETATM   10  C10 UNL     1      36.928  57.928  85.454  1.00  0.00     0.193 C 
HETATM   11  C11 UNL     1      37.981  58.790  86.074  1.00  0.00     0.056 C 
HETATM   12  N4  UNL     1      36.859  58.164  84.009  1.00  0.00    -0.352 N 
HETATM   13  C12 UNL     1      37.771  59.105  83.352  1.00  0.00     0.153 C 
ENDROOT
BRANCH   1  14
HETATM   14  C5  UNL     1      35.309  58.028  82.067  1.00  0.00     0.312 C 
BRANCH  14  15
HETATM   15  N1  UNL     1      34.115  58.801  82.256  1.00  0.00    -0.069 N 
HETATM   16  C3  UNL     1      34.469  60.204  82.237  1.00  0.00     0.272 C 
HETATM   17  C4  UNL     1      33.393  58.526  83.456  1.00  0.00     0.272 C 
BRANCH  15  18
HETATM   18  C2  UNL     1      33.175  58.611  81.151  1.00  0.00     0.232 C 
HETATM   19  C1  UNL     1      33.468  59.495  79.984  1.00  0.00     0.035 C 
ENDBRANCH  15  18
ENDBRANCH  14  15
ENDBRANCH   1  14
TORSDOF 3
ENDMDL
MODEL 3
REMARK VINA RESULT: -5.661747892      3.950      5.213
REMARK  3 active torsions:
REMARK  status: ('A' for Active; 'I' for Inactive)
REMARK    1  A    between atoms: C2_2  and  N1_3 
REMARK    2  A    between atoms: N1_3  and  C5_6 
REMARK    3  A    between atoms: C5_6  and  C6_7 
REMARK       I    between atoms: N3_12  and  C8_13 
ROOT
HETATM    1  C6  UNL     1      35.590  57.128  83.334  1.00  0.00     0.109 C 
HETATM    2  N2  UNL     1      35.306  56.036  83.993  1.00  0.00    -0.321 N 
ATOM      3  H2  UNL     1      34.567  55.421  83.653  1.00  0.00     0.169 HD
HETATM    4  C7  UNL     1      36.017  55.691  85.186  1.00  0.00     0.183 C 
HETATM    5  S1  UNL     1      35.661  54.322  86.016  1.00  0.00    -0.040 SA
HETATM    6  N3  UNL     1      37.047  56.579  85.636  1.00  0.00    -0.273 N 
HETATM    7  C8  UNL     1      38.153  56.085  86.360  1.00  0.00     0.223 C 
HETATM    8  C9  UNL     1      38.393  54.667  86.697  1.00  0.00     0.117 C 
HETATM    9  O1  UNL     1      39.047  56.901  86.778  1.00  0.00    -0.273 OA
HETATM   10  C10 UNL     1      36.850  57.956  85.275  1.00  0.00     0.193 C 
HETATM   11  C11 UNL     1      37.953  58.901  85.633  1.00  0.00     0.056 C 
HETATM   12  N4  UNL     1      36.627  57.957  83.826  1.00  0.00    -0.352 N 
HETATM   13  C12 UNL     1      37.454  58.775  82.933  1.00  0.00     0.153 C 
ENDROOT
BRANCH   1  14
HETATM   14  C5  UNL     1      34.883  57.518  82.106  1.00  0.00     0.312 C 
BRANCH  14  15
HETATM   15  N1  UNL     1      33.791  58.433  82.281  1.00  0.00    -0.069 N 
HETATM   16  C3  UNL     1      32.641  57.919  81.568  1.00  0.00     0.272 C 
HETATM   17  C4  UNL     1      34.040  59.770  81.847  1.00  0.00     0.272 C 
BRANCH  15  18
HETATM   18  C2  UNL     1      33.385  58.518  83.684  1.00  0.00     0.232 C 
HETATM   19  C1  UNL     1      33.556  59.888  84.253  1.00  0.00     0.035 C 
ENDBRANCH  15  18
ENDBRANCH  14  15
ENDBRANCH   1  14
TORSDOF 3
ENDMDL
MODEL 4
REMARK VINA RESULT: -5.619816372      2.922      4.125
REMARK  3 active torsions:
REMARK  status: ('A' for Active; 'I' for Inactive)
REMARK    1  A    between atoms: C2_2  and  N1_3 
REMARK    2  A    between atoms: N1_3  and  C5_6 
REMARK    3  A    between atoms: C5_6  and  C6_7 
REMARK       I    between atoms: N3_12  and  C8_13 
ROOT
HETATM    1  C6  UNL     1      36.496  58.892  81.969  1.00  0.00     0.109 C 
HETATM    2  N2  UNL     1      37.286  57.865  82.134  1.00  0.00    -0.321 N 
ATOM      3  H2  UNL     1      37.549  57.298  81.328  1.00  0.00     0.169 HD
HETATM    4  C7  UNL     1      37.790  57.526  83.430  1.00  0.00     0.183 C 
HETATM    5  S1  UNL     1      38.781  56.237  83.641  1.00  0.00    -0.040 SA
HETATM    6  N3  UNL     1      37.398  58.344  84.539  1.00  0.00    -0.273 N 
HETATM    7  C8  UNL     1      38.252  58.497  85.652  1.00  0.00     0.223 C 
HETATM    8  C9  UNL     1      39.593  57.896  85.794  1.00  0.00     0.117 C 
HETATM    9  O1  UNL     1      37.870  59.209  86.646  1.00  0.00    -0.273 OA
HETATM   10  C10 UNL     1      36.114  58.973  84.395  1.00  0.00     0.193 C 
HETATM   11  C11 UNL     1      35.712  59.919  85.482  1.00  0.00     0.056 C 
HETATM   12  N4  UNL     1      36.156  59.667  83.105  1.00  0.00    -0.352 N 
HETATM   13  C12 UNL     1      35.869  61.101  83.006  1.00  0.00     0.153 C 
ENDROOT
BRANCH   1  14
HETATM   14  C5  UNL     1      35.957  59.273  80.655  1.00  0.00     0.312 C 
BRANCH  14  15
HETATM   15  N1  UNL     1      34.725  58.640  80.280  1.00  0.00    -0.069 N 
HETATM   16  C3  UNL     1      34.979  57.770  79.152  1.00  0.00     0.272 C 
HETATM   17  C4  UNL     1      33.660  59.529  79.944  1.00  0.00     0.272 C 
BRANCH  15  18
HETATM   18  C2  UNL     1      34.224  57.773  81.348  1.00  0.00     0.232 C 
HETATM   19  C1  UNL     1      32.801  58.056  81.702  1.00  0.00     0.035 C 
ENDBRANCH  15  18
ENDBRANCH  14  15
ENDBRANCH   1  14
TORSDOF 3
ENDMDL
MODEL 5
REMARK VINA RESULT: -5.596709572      4.028      5.395
REMARK  3 active torsions:
REMARK  status: ('A' for Active; 'I' for Inactive)
REMARK    1  A    between atoms: C2_2  and  N1_3 
REMARK    2  A    between atoms: N1_3  and  C5_6 
REMARK    3  A    between atoms: C5_6  and  C6_7 
REMARK       I    between atoms: N3_12  and  C8_13 
ROOT
HETATM    1  C6  UNL     1      36.146  59.307  84.663  1.00  0.00     0.109 C 
HETATM    2  N2  UNL     1      37.406  59.195  84.988  1.00  0.00    -0.321 N 
ATOM      3  H2  UNL     1      38.013  60.013  84.938  1.00  0.00     0.169 HD
HETATM    4  C7  UNL     1      37.946  57.940  85.413  1.00  0.00     0.183 C 
HETATM    5  S1  UNL     1      39.529  57.796  85.821  1.00  0.00    -0.040 SA
HETATM    6  N3  UNL     1      37.065  56.812  85.470  1.00  0.00    -0.273 N 
HETATM    7  C8  UNL     1      37.290  55.773  86.397  1.00  0.00     0.223 C 
HETATM    8  C9  UNL     1      38.379  55.733  87.394  1.00  0.00     0.117 C 
HETATM    9  O1  UNL     1      36.507  54.759  86.410  1.00  0.00    -0.273 OA
HETATM   10  C10 UNL     1      35.973  56.859  84.536  1.00  0.00     0.193 C 
HETATM   11  C11 UNL     1      34.970  55.753  84.632  1.00  0.00     0.056 C 
HETATM   12  N4  UNL     1      35.325  58.156  84.750  1.00  0.00    -0.352 N 
HETATM   13  C12 UNL     1      33.894  58.247  85.052  1.00  0.00     0.153 C 
ENDROOT
BRANCH   1  14
HETATM   14  C5  UNL     1      35.552  60.577  84.220  1.00  0.00     0.312 C 
BRANCH  14  15
HETATM   15  N1  UNL     1      35.579  60.816  82.805  1.00  0.00    -0.069 N 
HETATM   16  C3  UNL     1      34.266  60.533  82.266  1.00  0.00     0.272 C 
HETATM   17  C4  UNL     1      36.547  60.061  82.076  1.00  0.00     0.272 C 
BRANCH  15  18
HETATM   18  C2  UNL     1      35.838  62.225  82.506  1.00  0.00     0.232 C 
HETATM   19  C1  UNL     1      37.010  62.418  81.602  1.00  0.00     0.035 C 
ENDBRANCH  15  18
ENDBRANCH  14  15
ENDBRANCH   1  14
TORSDOF 3
ENDMDL
