MODEL 1
REMARK VINA RESULT: -7.402686060      0.000      0.000
REMARK  11 active torsions:
REMARK  status: ('A' for Active; 'I' for Inactive)
REMARK    1  A    between atoms: N2_6  and  C4_8 
REMARK    2  A    between atoms: C4_8  and  C5_9 
REMARK    3  A    between atoms: C5_9  and  N3_10 
REMARK    4  A    between atoms: C8_16  and  N4_17 
REMARK    5  A    between atoms: N4_17  and  C9_18 
REMARK    6  A    between atoms: N4_17  and  C12_21 
REMARK    7  A    between atoms: C9_18  and  C10_19 
REMARK    8  A    between atoms: C12_21  and  C13_22 
REMARK    9  A    between atoms: C13_22  and  C14_23 
REMARK   10  A    between atoms: C16_25  and  C17_26 
REMARK   11  A    between atoms: C17_26  and  C18_27 
ROOT
HETATM    1  C1  UNL     1      14.149  17.354  34.728  1.00  0.00     0.044 C 
HETATM    2  C2  UNL     1      14.476  16.122  34.449  1.00  0.00     0.044 C 
HETATM    3  N1  UNL     1      13.921  15.079  35.277  1.00  0.00    -0.342 N 
ATOM      4  H1  UNL     1      12.936  15.142  35.535  1.00  0.00     0.167 HD
HETATM    5  C3  UNL     1      14.672  13.965  35.756  1.00  0.00     0.101 C 
HETATM    6  N2  UNL     1      14.044  13.101  36.444  1.00  0.00    -0.375 N 
ATOM      7  H2  UNL     1      14.578  12.301  36.786  1.00  0.00     0.161 HD
HETATM    8  C6  UNL     1      16.120  13.788  35.505  1.00  0.00     0.050 C 
HETATM    9  C7  UNL     1      16.895  14.279  34.576  1.00  0.00     0.034 C 
HETATM   10  C8  UNL     1      16.508  15.192  33.450  1.00  0.00     0.051 C 
HETATM   11  C16 UNL     1      15.497  15.995  33.311  1.00  0.00     0.063 C 
ENDROOT
BRANCH  11  12
HETATM   12  C17 UNL     1      15.291  16.837  32.248  1.00  0.00    -0.089 C 
BRANCH  12  13
HETATM   13  C18 UNL     1      15.089  17.632  31.261  1.00  0.00     0.146 A 
HETATM   14  C19 UNL     1      15.809  18.871  31.078  1.00  0.00     0.271 A 
HETATM   15  O1  UNL     1      16.700  19.365  31.788  1.00  0.00    -0.266 OA
HETATM   16  N5  UNL     1      15.551  19.761  29.951  1.00  0.00    -0.299 N 
HETATM   17  C20 UNL     1      14.563  19.392  29.011  1.00  0.00     0.181 A 
ATOM     18  H5  UNL     1      16.073  20.632  29.844  1.00  0.00     0.171 HD
HETATM   19  S1  UNL     1      14.331  20.427  27.769  1.00  0.00    -0.040 SA
HETATM   20  N6  UNL     1      13.811  18.210  29.110  1.00  0.00    -0.299 N 
HETATM   21  C21 UNL     1      14.069  17.354  30.202  1.00  0.00     0.271 A 
ATOM     22  H6  UNL     1      13.102  17.977  28.415  1.00  0.00     0.171 HD
HETATM   23  O2  UNL     1      13.351  16.295  30.215  1.00  0.00    -0.266 OA
ENDBRANCH  12  13
ENDBRANCH  11  12
BRANCH  10  24
HETATM   24  N4  UNL     1      17.529  15.129  32.462  1.00  0.00    -0.380 N 
BRANCH  24  25
HETATM   25  C9  UNL     1      17.490  13.916  31.665  1.00  0.00     0.122 C 
BRANCH  25  26
HETATM   26  C10 UNL     1      16.198  13.379  31.223  1.00  0.00     0.015 C 
HETATM   27  C11 UNL     1      15.937  14.049  29.843  1.00  0.00     0.006 C 
ENDBRANCH  25  26
ENDBRANCH  24  25
BRANCH  24  28
HETATM   28  C12 UNL     1      18.423  16.200  32.154  1.00  0.00     0.123 C 
BRANCH  28  29
HETATM   29  C13 UNL     1      19.200  16.055  30.863  1.00  0.00     0.019 C 
BRANCH  29  30
HETATM   30  C14 UNL     1      18.838  17.233  29.969  1.00  0.00    -0.003 C 
HETATM   31  C15 UNL     1      17.982  16.817  28.804  1.00  0.00     0.005 C 
ENDBRANCH  29  30
ENDBRANCH  28  29
ENDBRANCH  24  28
ENDBRANCH  10  24
BRANCH   6  32
HETATM   32  C4  UNL     1      12.660  13.150  36.780  1.00  0.00     0.148 C 
BRANCH  32  33
HETATM   33  C5  UNL     1      12.354  13.189  38.246  1.00  0.00     0.249 C 
BRANCH  33  34
HETATM   34  N3  UNL     1      13.565  13.546  39.008  1.00  0.00    -0.078 N 
ATOM     35  H33 UNL     1      14.328  12.891  38.841  1.00  0.00     0.274 HD
ATOM     36  H32 UNL     1      14.010  14.388  38.644  1.00  0.00     0.274 HD
ATOM     37  H31 UNL     1      13.343  13.630  40.000  1.00  0.00     0.274 HD
ENDBRANCH  33  34
ENDBRANCH  32  33
ENDBRANCH   6  32
TORSDOF 11
ENDMDL
MODEL 2
REMARK VINA RESULT: -7.293569597      0.221      1.530
REMARK  11 active torsions:
REMARK  status: ('A' for Active; 'I' for Inactive)
REMARK    1  A    between atoms: N2_6  and  C4_8 
REMARK    2  A    between atoms: C4_8  and  C5_9 
REMARK    3  A    between atoms: C5_9  and  N3_10 
REMARK    4  A    between atoms: C8_16  and  N4_17 
REMARK    5  A    between atoms: N4_17  and  C9_18 
REMARK    6  A    between atoms: N4_17  and  C12_21 
REMARK    7  A    between atoms: C9_18  and  C10_19 
REMARK    8  A    between atoms: C12_21  and  C13_22 
REMARK    9  A    between atoms: C13_22  and  C14_23 
REMARK   10  A    between atoms: C16_25  and  C17_26 
REMARK   11  A    between atoms: C17_26  and  C18_27 
ROOT
HETATM    1  C1  UNL     1      14.101  17.373  34.737  1.00  0.00     0.044 C 
HETATM    2  C2  UNL     1      14.440  16.145  34.453  1.00  0.00     0.044 C 
HETATM    3  N1  UNL     1      13.874  15.091  35.259  1.00  0.00    -0.342 N 
ATOM      4  H1  UNL     1      12.883  15.146  35.498  1.00  0.00     0.167 HD
HETATM    5  C3  UNL     1      14.621  13.976  35.742  1.00  0.00     0.101 C 
HETATM    6  N2  UNL     1      13.984  13.102  36.409  1.00  0.00    -0.375 N 
ATOM      7  H2  UNL     1      14.514  12.302  36.754  1.00  0.00     0.161 HD
HETATM    8  C6  UNL     1      16.075  13.809  35.521  1.00  0.00     0.050 C 
HETATM    9  C7  UNL     1      16.866  14.314  34.613  1.00  0.00     0.034 C 
HETATM   10  C8  UNL     1      16.498  15.236  33.488  1.00  0.00     0.051 C 
HETATM   11  C16 UNL     1      15.486  16.035  33.335  1.00  0.00     0.063 C 
ENDROOT
BRANCH  11  12
HETATM   12  C17 UNL     1      15.298  16.886  32.277  1.00  0.00    -0.089 C 
BRANCH  12  13
HETATM   13  C18 UNL     1      15.111  17.689  31.294  1.00  0.00     0.146 A 
HETATM   14  C19 UNL     1      14.355  17.339  30.114  1.00  0.00     0.271 A 
HETATM   15  O1  UNL     1      13.778  16.271  29.847  1.00  0.00    -0.266 OA
HETATM   16  N5  UNL     1      14.167  18.269  29.005  1.00  0.00    -0.299 N 
HETATM   17  C20 UNL     1      14.746  19.554  29.097  1.00  0.00     0.181 A 
ATOM     18  H5  UNL     1      13.629  17.998  28.182  1.00  0.00     0.171 HD
HETATM   19  S1  UNL     1      14.489  20.550  27.828  1.00  0.00    -0.040 SA
HETATM   20  N6  UNL     1      15.501  19.981  30.202  1.00  0.00    -0.299 N 
HETATM   21  C21 UNL     1      15.675  19.075  31.270  1.00  0.00     0.271 A 
ATOM     22  H6  UNL     1      15.908  20.915  30.233  1.00  0.00     0.171 HD
HETATM   23  O2  UNL     1      16.363  19.541  32.243  1.00  0.00    -0.266 OA
ENDBRANCH  12  13
ENDBRANCH  11  12
BRANCH  10  24
HETATM   24  N4  UNL     1      17.540  15.188  32.521  1.00  0.00    -0.380 N 
BRANCH  24  25
HETATM   25  C9  UNL     1      17.503  14.000  31.687  1.00  0.00     0.122 C 
BRANCH  25  26
HETATM   26  C10 UNL     1      16.209  13.422  31.305  1.00  0.00     0.015 C 
HETATM   27  C11 UNL     1      15.965  13.914  29.849  1.00  0.00     0.006 C 
ENDBRANCH  25  26
ENDBRANCH  24  25
BRANCH  24  28
HETATM   28  C12 UNL     1      18.455  16.255  32.266  1.00  0.00     0.123 C 
BRANCH  28  29
HETATM   29  C13 UNL     1      19.176  16.197  30.935  1.00  0.00     0.019 C 
BRANCH  29  30
HETATM   30  C14 UNL     1      18.641  17.328  30.069  1.00  0.00    -0.003 C 
HETATM   31  C15 UNL     1      17.905  16.816  28.860  1.00  0.00     0.005 C 
ENDBRANCH  29  30
ENDBRANCH  28  29
ENDBRANCH  24  28
ENDBRANCH  10  24
BRANCH   6  32
HETATM   32  C4  UNL     1      12.593  13.141  36.716  1.00  0.00     0.148 C 
BRANCH  32  33
HETATM   33  C5  UNL     1      12.254  13.100  38.175  1.00  0.00     0.249 C 
BRANCH  33  34
HETATM   34  N3  UNL     1      13.405  13.555  38.976  1.00  0.00    -0.078 N 
ATOM     35  H33 UNL     1      13.332  13.261  39.950  1.00  0.00     0.274 HD
ATOM     36  H32 UNL     1      14.260  13.056  38.733  1.00  0.00     0.274 HD
ATOM     37  H31 UNL     1      13.515  14.566  38.889  1.00  0.00     0.274 HD
ENDBRANCH  33  34
ENDBRANCH  32  33
ENDBRANCH   6  32
TORSDOF 11
ENDMDL
MODEL 3
REMARK VINA RESULT: -7.270453499      3.179      6.648
REMARK  11 active torsions:
REMARK  status: ('A' for Active; 'I' for Inactive)
REMARK    1  A    between atoms: N2_6  and  C4_8 
REMARK    2  A    between atoms: C4_8  and  C5_9 
REMARK    3  A    between atoms: C5_9  and  N3_10 
REMARK    4  A    between atoms: C8_16  and  N4_17 
REMARK    5  A    between atoms: N4_17  and  C9_18 
REMARK    6  A    between atoms: N4_17  and  C12_21 
REMARK    7  A    between atoms: C9_18  and  C10_19 
REMARK    8  A    between atoms: C12_21  and  C13_22 
REMARK    9  A    between atoms: C13_22  and  C14_23 
REMARK   10  A    between atoms: C16_25  and  C17_26 
REMARK   11  A    between atoms: C17_26  and  C18_27 
ROOT
HETATM    1  C1  UNL     1      13.137  17.762  30.493  1.00  0.00     0.044 C 
HETATM    2  C2  UNL     1      14.103  18.101  31.302  1.00  0.00     0.044 C 
HETATM    3  N1  UNL     1      14.493  19.489  31.335  1.00  0.00    -0.342 N 
ATOM      4  H1  UNL     1      13.757  20.196  31.336  1.00  0.00     0.167 HD
HETATM    5  C3  UNL     1      15.849  19.930  31.365  1.00  0.00     0.101 C 
HETATM    6  N2  UNL     1      16.045  21.184  31.432  1.00  0.00    -0.375 N 
ATOM      7  H2  UNL     1      17.013  21.503  31.456  1.00  0.00     0.161 HD
HETATM    8  C6  UNL     1      17.008  19.012  31.304  1.00  0.00     0.050 C 
HETATM    9  C7  UNL     1      17.111  17.743  31.596  1.00  0.00     0.034 C 
HETATM   10  C8  UNL     1      16.035  16.830  32.105  1.00  0.00     0.051 C 
HETATM   11  C16 UNL     1      14.742  16.912  32.034  1.00  0.00     0.063 C 
ENDROOT
BRANCH  11  12
HETATM   12  C17 UNL     1      13.859  15.966  32.486  1.00  0.00    -0.089 C 
BRANCH  12  13
HETATM   13  C18 UNL     1      13.043  15.072  32.913  1.00  0.00     0.146 A 
HETATM   14  C19 UNL     1      12.801  14.820  34.314  1.00  0.00     0.271 A 
HETATM   15  O1  UNL     1      13.297  15.384  35.304  1.00  0.00    -0.266 OA
HETATM   16  N5  UNL     1      11.874  13.789  34.771  1.00  0.00    -0.299 N 
HETATM   17  C20 UNL     1      11.194  13.016  33.803  1.00  0.00     0.181 A 
ATOM     18  H5  UNL     1      11.721  13.630  35.767  1.00  0.00     0.171 HD
HETATM   19  S1  UNL     1      10.164  11.887  34.381  1.00  0.00    -0.040 SA
HETATM   20  N6  UNL     1      11.369  13.187  32.420  1.00  0.00    -0.299 N 
HETATM   21  C21 UNL     1      12.266  14.188  31.989  1.00  0.00     0.271 A 
ATOM     22  H6  UNL     1      10.864  12.608  31.750  1.00  0.00     0.171 HD
HETATM   23  O2  UNL     1      12.361  14.288  30.717  1.00  0.00    -0.266 OA
ENDBRANCH  12  13
ENDBRANCH  11  12
BRANCH  10  24
HETATM   24  N4  UNL     1      16.662  15.691  32.682  1.00  0.00    -0.380 N 
BRANCH  24  25
HETATM   25  C9  UNL     1      17.174  14.751  31.700  1.00  0.00     0.122 C 
BRANCH  25  26
HETATM   26  C10 UNL     1      16.311  13.667  31.216  1.00  0.00     0.015 C 
HETATM   27  C11 UNL     1      15.841  14.129  29.806  1.00  0.00     0.006 C 
ENDBRANCH  25  26
ENDBRANCH  24  25
BRANCH  24  28
HETATM   28  C12 UNL     1      16.917  15.530  34.078  1.00  0.00     0.123 C 
BRANCH  28  29
HETATM   29  C13 UNL     1      17.375  14.152  34.507  1.00  0.00     0.019 C 
BRANCH  29  30
HETATM   30  C14 UNL     1      16.144  13.366  34.936  1.00  0.00    -0.003 C 
HETATM   31  C15 UNL     1      15.669  13.762  36.308  1.00  0.00     0.005 C 
ENDBRANCH  29  30
ENDBRANCH  28  29
ENDBRANCH  24  28
ENDBRANCH  10  24
BRANCH   6  32
HETATM   32  C4  UNL     1      15.030  22.183  31.477  1.00  0.00     0.148 C 
BRANCH  32  33
HETATM   33  C5  UNL     1      14.792  22.919  30.194  1.00  0.00     0.249 C 
BRANCH  33  34
HETATM   34  N3  UNL     1      13.734  22.249  29.414  1.00  0.00    -0.078 N 
ATOM     35  H33 UNL     1      14.087  21.879  28.532  1.00  0.00     0.274 HD
ATOM     36  H32 UNL     1      13.446  21.369  29.841  1.00  0.00     0.274 HD
ATOM     37  H31 UNL     1      12.947  22.882  29.276  1.00  0.00     0.274 HD
ENDBRANCH  33  34
ENDBRANCH  32  33
ENDBRANCH   6  32
TORSDOF 11
ENDMDL
MODEL 4
REMARK VINA RESULT: -7.261957495      3.164      6.748
REMARK  11 active torsions:
REMARK  status: ('A' for Active; 'I' for Inactive)
REMARK    1  A    between atoms: N2_6  and  C4_8 
REMARK    2  A    between atoms: C4_8  and  C5_9 
REMARK    3  A    between atoms: C5_9  and  N3_10 
REMARK    4  A    between atoms: C8_16  and  N4_17 
REMARK    5  A    between atoms: N4_17  and  C9_18 
REMARK    6  A    between atoms: N4_17  and  C12_21 
REMARK    7  A    between atoms: C9_18  and  C10_19 
REMARK    8  A    between atoms: C12_21  and  C13_22 
REMARK    9  A    between atoms: C13_22  and  C14_23 
REMARK   10  A    between atoms: C16_25  and  C17_26 
REMARK   11  A    between atoms: C17_26  and  C18_27 
ROOT
HETATM    1  C1  UNL     1      13.173  17.741  30.467  1.00  0.00     0.044 C 
HETATM    2  C2  UNL     1      14.131  18.083  31.285  1.00  0.00     0.044 C 
HETATM    3  N1  UNL     1      14.512  19.474  31.326  1.00  0.00    -0.342 N 
ATOM      4  H1  UNL     1      13.772  20.176  31.323  1.00  0.00     0.167 HD
HETATM    5  C3  UNL     1      15.866  19.922  31.369  1.00  0.00     0.101 C 
HETATM    6  N2  UNL     1      16.053  21.177  31.442  1.00  0.00    -0.375 N 
ATOM      7  H2  UNL     1      17.020  21.501  31.475  1.00  0.00     0.161 HD
HETATM    8  C6  UNL     1      17.030  19.011  31.315  1.00  0.00     0.050 C 
HETATM    9  C7  UNL     1      17.139  17.742  31.604  1.00  0.00     0.034 C 
HETATM   10  C8  UNL     1      16.063  16.821  32.101  1.00  0.00     0.051 C 
HETATM   11  C16 UNL     1      14.770  16.896  32.019  1.00  0.00     0.063 C 
ENDROOT
BRANCH  11  12
HETATM   12  C17 UNL     1      13.889  15.943  32.461  1.00  0.00    -0.089 C 
BRANCH  12  13
HETATM   13  C18 UNL     1      13.054  15.057  32.866  1.00  0.00     0.146 A 
HETATM   14  C19 UNL     1      12.303  14.204  31.974  1.00  0.00     0.271 A 
HETATM   15  O1  UNL     1      12.325  14.166  30.732  1.00  0.00    -0.266 OA
HETATM   16  N5  UNL     1      11.352  13.211  32.462  1.00  0.00    -0.299 N 
HETATM   17  C20 UNL     1      11.166  13.085  33.857  1.00  0.00     0.181 A 
ATOM     18  H5  UNL     1      10.834  12.621  31.811  1.00  0.00     0.171 HD
HETATM   19  S1  UNL     1      10.095  11.948  34.338  1.00  0.00    -0.040 SA
HETATM   20  N6  UNL     1      11.847  13.872  34.799  1.00  0.00    -0.299 N 
HETATM   21  C21 UNL     1      12.766  14.828  34.317  1.00  0.00     0.271 A 
ATOM     22  H6  UNL     1      11.684  13.757  35.799  1.00  0.00     0.171 HD
HETATM   23  O2  UNL     1      13.353  15.497  35.237  1.00  0.00    -0.266 OA
ENDBRANCH  12  13
ENDBRANCH  11  12
BRANCH  10  24
HETATM   24  N4  UNL     1      16.692  15.684  32.680  1.00  0.00    -0.380 N 
BRANCH  24  25
HETATM   25  C9  UNL     1      17.203  14.742  31.700  1.00  0.00     0.122 C 
BRANCH  25  26
HETATM   26  C10 UNL     1      16.340  13.657  31.218  1.00  0.00     0.015 C 
HETATM   27  C11 UNL     1      15.860  14.122  29.813  1.00  0.00     0.006 C 
ENDBRANCH  25  26
ENDBRANCH  24  25
BRANCH  24  28
HETATM   28  C12 UNL     1      16.949  15.527  34.076  1.00  0.00     0.123 C 
BRANCH  28  29
HETATM   29  C13 UNL     1      17.367  14.139  34.514  1.00  0.00     0.019 C 
BRANCH  29  30
HETATM   30  C14 UNL     1      16.111  13.380  34.916  1.00  0.00    -0.003 C 
HETATM   31  C15 UNL     1      15.652  13.739  36.304  1.00  0.00     0.005 C 
ENDBRANCH  29  30
ENDBRANCH  28  29
ENDBRANCH  24  28
ENDBRANCH  10  24
BRANCH   6  32
HETATM   32  C4  UNL     1      15.033  22.170  31.481  1.00  0.00     0.148 C 
BRANCH  32  33
HETATM   33  C5  UNL     1      14.794  22.900  30.195  1.00  0.00     0.249 C 
BRANCH  33  34
HETATM   34  N3  UNL     1      13.721  22.240  29.428  1.00  0.00    -0.078 N 
ATOM     35  H33 UNL     1      13.698  21.234  29.594  1.00  0.00     0.274 HD
ATOM     36  H32 UNL     1      12.796  22.472  29.789  1.00  0.00     0.274 HD
ATOM     37  H31 UNL     1      13.811  22.461  28.437  1.00  0.00     0.274 HD
ENDBRANCH  33  34
ENDBRANCH  32  33
ENDBRANCH   6  32
TORSDOF 11
ENDMDL
MODEL 5
REMARK VINA RESULT: -7.250366746      1.393      2.388
REMARK  11 active torsions:
REMARK  status: ('A' for Active; 'I' for Inactive)
REMARK    1  A    between atoms: N2_6  and  C4_8 
REMARK    2  A    between atoms: C4_8  and  C5_9 
REMARK    3  A    between atoms: C5_9  and  N3_10 
REMARK    4  A    between atoms: C8_16  and  N4_17 
REMARK    5  A    between atoms: N4_17  and  C9_18 
REMARK    6  A    between atoms: N4_17  and  C12_21 
REMARK    7  A    between atoms: C9_18  and  C10_19 
REMARK    8  A    between atoms: C12_21  and  C13_22 
REMARK    9  A    between atoms: C13_22  and  C14_23 
REMARK   10  A    between atoms: C16_25  and  C17_26 
REMARK   11  A    between atoms: C17_26  and  C18_27 
ROOT
HETATM    1  C1  UNL     1      14.113  17.639  34.556  1.00  0.00     0.044 C 
HETATM    2  C2  UNL     1      14.672  16.496  34.269  1.00  0.00     0.044 C 
HETATM    3  N1  UNL     1      14.380  15.374  35.128  1.00  0.00    -0.342 N 
ATOM      4  H1  UNL     1      13.415  15.238  35.432  1.00  0.00     0.167 HD
HETATM    5  C3  UNL     1      15.364  14.444  35.577  1.00  0.00     0.101 C 
HETATM    6  N2  UNL     1      14.958  13.481  36.299  1.00  0.00    -0.375 N 
ATOM      7  H2  UNL     1      15.658  12.812  36.620  1.00  0.00     0.161 HD
HETATM    8  C6  UNL     1      16.805  14.563  35.260  1.00  0.00     0.050 C 
HETATM    9  C7  UNL     1      17.420  15.189  34.292  1.00  0.00     0.034 C 
HETATM   10  C8  UNL     1      16.804  15.986  33.181  1.00  0.00     0.051 C 
HETATM   11  C16 UNL     1      15.646  16.563  33.085  1.00  0.00     0.063 C 
ENDROOT
BRANCH  11  12
HETATM   12  C17 UNL     1      15.224  17.329  32.028  1.00  0.00    -0.089 C 
BRANCH  12  13
HETATM   13  C18 UNL     1      14.827  18.056  31.048  1.00  0.00     0.146 A 
HETATM   14  C19 UNL     1      15.581  18.227  29.828  1.00  0.00     0.271 A 
HETATM   15  O1  UNL     1      16.678  17.733  29.516  1.00  0.00    -0.266 OA
HETATM   16  N5  UNL     1      15.110  19.068  28.733  1.00  0.00    -0.299 N 
HETATM   17  C20 UNL     1      13.873  19.735  28.878  1.00  0.00     0.181 A 
ATOM     18  H5  UNL     1      15.662  19.173  27.881  1.00  0.00     0.171 HD
HETATM   19  S1  UNL     1      13.399  20.652  27.612  1.00  0.00    -0.040 SA
HETATM   20  N6  UNL     1      13.074  19.632  30.029  1.00  0.00    -0.299 N 
HETATM   21  C21 UNL     1      13.537  18.814  31.081  1.00  0.00     0.271 A 
ATOM     22  H6  UNL     1      12.188  20.131  30.101  1.00  0.00     0.171 HD
HETATM   23  O2  UNL     1      12.749  18.764  32.088  1.00  0.00    -0.266 OA
ENDBRANCH  12  13
ENDBRANCH  11  12
BRANCH  10  24
HETATM   24  N4  UNL     1      17.772  16.118  32.147  1.00  0.00    -0.380 N 
BRANCH  24  25
HETATM   25  C9  UNL     1      18.819  17.078  32.451  1.00  0.00     0.122 C 
BRANCH  25  26
HETATM   26  C10 UNL     1      18.819  18.386  31.787  1.00  0.00     0.015 C 
HETATM   27  C11 UNL     1      18.226  19.369  32.839  1.00  0.00     0.006 C 
ENDBRANCH  25  26
ENDBRANCH  24  25
BRANCH  24  28
HETATM   28  C12 UNL     1      17.825  15.295  30.981  1.00  0.00     0.123 C 
BRANCH  28  29
HETATM   29  C13 UNL     1      17.582  13.818  31.210  1.00  0.00     0.019 C 
BRANCH  29  30
HETATM   30  C14 UNL     1      16.185  13.493  30.700  1.00  0.00    -0.003 C 
HETATM   31  C15 UNL     1      15.797  14.351  29.526  1.00  0.00     0.005 C 
ENDBRANCH  29  30
ENDBRANCH  28  29
ENDBRANCH  24  28
ENDBRANCH  10  24
BRANCH   6  32
HETATM   32  C4  UNL     1      13.610  13.251  36.699  1.00  0.00     0.148 C 
BRANCH  32  33
HETATM   33  C5  UNL     1      13.359  13.296  38.175  1.00  0.00     0.249 C 
BRANCH  33  34
HETATM   34  N3  UNL     1      14.293  14.237  38.819  1.00  0.00    -0.078 N 
ATOM     35  H33 UNL     1      15.222  14.199  38.401  1.00  0.00     0.274 HD
ATOM     36  H32 UNL     1      14.069  15.207  38.599  1.00  0.00     0.274 HD
ATOM     37  H31 UNL     1      14.319  14.071  39.826  1.00  0.00     0.274 HD
ENDBRANCH  33  34
ENDBRANCH  32  33
ENDBRANCH   6  32
TORSDOF 11
ENDMDL
