MODEL 1
REMARK VINA RESULT: -7.785042344      0.000      0.000
REMARK  14 active torsions:
REMARK  status: ('A' for Active; 'I' for Inactive)
REMARK    1  A    between atoms: C2_2  and  C3_3 
REMARK    2  A    between atoms: C3_3  and  N1_4 
REMARK    3  A    between atoms: N1_4  and  C4_6 
REMARK    4  A    between atoms: C4_6  and  O1_7 
REMARK    5  A    between atoms: C4_6  and  N2_9 
REMARK    6  A    between atoms: N2_9  and  C5_10 
REMARK    7  A    between atoms: C6_13  and  N4_14 
REMARK    8  A    between atoms: N4_14  and  C7_16 
REMARK    9  A    between atoms: C9_18  and  O2_19 
REMARK   10  A    between atoms: C12_22  and  O3_23 
REMARK   11  A    between atoms: C16_29  and  C17_30 
REMARK       I    between atoms: C17_30  and  N6_32 
REMARK   12  A    between atoms: N6_32  and  C18_34 
REMARK   13  A    between atoms: C18_34  and  C19_35 
REMARK   14  A    between atoms: C19_35  and  N7_36 
ROOT
HETATM    1  C5  UNL     1      14.724  20.449  30.116  1.00  0.00     0.215 A 
HETATM    2  N3  UNL     1      15.517  19.754  30.950  1.00  0.00    -0.163 N 
ATOM      3  H3  UNL     1      16.247  20.269  31.441  1.00  0.00     0.187 HD
HETATM    4  C6  UNL     1      15.422  18.402  31.194  1.00  0.00     0.684 A 
HETATM    5  N5  UNL     1      14.434  17.744  30.518  1.00  0.00    -0.200 N 
ATOM      6  H5  UNL     1      14.335  16.740  30.672  1.00  0.00     0.183 HD
HETATM    7  C15 UNL     1      13.589  18.334  29.666  1.00  0.00     0.128 A 
HETATM    8  C16 UNL     1      13.721  19.673  29.461  1.00  0.00     0.106 A 
ENDROOT
BRANCH   4   9
HETATM    9  N4  UNL     1      16.202  17.878  31.986  1.00  0.00    -0.191 N 
ATOM     10  H4  UNL     1      17.140  18.240  31.809  1.00  0.00     0.184 HD
BRANCH   9  11
HETATM   11  C7  UNL     1      16.265  16.993  33.007  1.00  0.00     0.054 A 
HETATM   12  C8  UNL     1      17.575  16.455  33.250  1.00  0.00     0.066 A 
HETATM   13  C9  UNL     1      17.824  15.546  34.235  1.00  0.00     0.073 A 
HETATM   14  C11 UNL     1      16.768  15.143  35.010  1.00  0.00     0.073 A 
HETATM   15  C12 UNL     1      15.493  15.625  34.820  1.00  0.00     0.073 A 
HETATM   16  C14 UNL     1      15.271  16.550  33.813  1.00  0.00     0.066 A 
BRANCH  13  17
HETATM   17  O2  UNL     1      19.120  15.066  34.424  1.00  0.00    -0.356 OA
HETATM   18  C10 UNL     1      19.567  13.966  33.634  1.00  0.00     0.210 C 
ENDBRANCH  13  17
BRANCH  15  19
HETATM   19  O3  UNL     1      14.396  15.256  35.566  1.00  0.00    -0.356 OA
HETATM   20  C13 UNL     1      14.339  14.193  36.436  1.00  0.00     0.210 C 
ENDBRANCH  15  19
ENDBRANCH   9  11
ENDBRANCH   4   9
BRANCH   1  21
HETATM   21  N2  UNL     1      14.835  21.611  29.840  1.00  0.00    -0.345 NA
BRANCH  21  22
HETATM   22  C4  UNL     1      14.915  22.841  29.481  1.00  0.00     0.296 C 
BRANCH  22  23
HETATM   23  N1  UNL     1      15.517  23.317  28.262  1.00  0.00    -0.341 N 
ATOM     24  H1  UNL     1      16.287  23.985  28.305  1.00  0.00     0.164 HD
BRANCH  23  25
HETATM   25  C3  UNL     1      15.044  22.859  26.989  1.00  0.00     0.150 C 
BRANCH  25  26
HETATM   26  C2  UNL     1      14.762  24.050  26.162  1.00  0.00    -0.018 C 
HETATM   27  C1  UNL     1      14.995  24.054  24.878  1.00  0.00     0.008 C 
ENDBRANCH  25  26
ENDBRANCH  23  25
ENDBRANCH  22  23
BRANCH  22  28
HETATM   28  O1  UNL     1      14.439  23.819  30.205  1.00  0.00    -0.321 OA
ATOM     29  H1  UNL     1      14.973  23.985  30.974  1.00  0.00     0.222 HD
ENDBRANCH  22  28
ENDBRANCH  21  22
ENDBRANCH   1  21
BRANCH   8  30
HETATM   30  C17 UNL     1      12.768  20.378  28.630  1.00  0.00     0.258 C 
HETATM   31  O4  UNL     1      12.832  20.317  27.352  1.00  0.00    -0.267 OA
HETATM   32  N6  UNL     1      11.721  21.159  29.220  1.00  0.00    -0.352 N 
ATOM     33  H6  UNL     1      11.649  21.202  30.236  1.00  0.00     0.163 HD
BRANCH  32  34
HETATM   34  C18 UNL     1      10.765  21.884  28.421  1.00  0.00     0.167 C 
BRANCH  34  35
HETATM   35  C19 UNL     1       9.466  21.119  28.255  1.00  0.00     0.076 C 
BRANCH  35  36
HETATM   36  N7  UNL     1       8.908  20.681  29.467  1.00  0.00    -0.400 N 
HETATM   37  C20 UNL     1       8.638  19.316  29.608  1.00  0.00     0.148 C 
HETATM   38  C21 UNL     1       8.486  21.618  30.407  1.00  0.00     0.148 C 
ENDBRANCH  35  36
ENDBRANCH  34  35
ENDBRANCH  32  34
ENDBRANCH   8  30
TORSDOF 14
ENDMDL
MODEL 2
REMARK VINA RESULT: -7.761413187      2.383      9.023
REMARK  14 active torsions:
REMARK  status: ('A' for Active; 'I' for Inactive)
REMARK    1  A    between atoms: C2_2  and  C3_3 
REMARK    2  A    between atoms: C3_3  and  N1_4 
REMARK    3  A    between atoms: N1_4  and  C4_6 
REMARK    4  A    between atoms: C4_6  and  O1_7 
REMARK    5  A    between atoms: C4_6  and  N2_9 
REMARK    6  A    between atoms: N2_9  and  C5_10 
REMARK    7  A    between atoms: C6_13  and  N4_14 
REMARK    8  A    between atoms: N4_14  and  C7_16 
REMARK    9  A    between atoms: C9_18  and  O2_19 
REMARK   10  A    between atoms: C12_22  and  O3_23 
REMARK   11  A    between atoms: C16_29  and  C17_30 
REMARK       I    between atoms: C17_30  and  N6_32 
REMARK   12  A    between atoms: N6_32  and  C18_34 
REMARK   13  A    between atoms: C18_34  and  C19_35 
REMARK   14  A    between atoms: C19_35  and  N7_36 
ROOT
HETATM    1  C5  UNL     1      15.893  17.160  33.041  1.00  0.00     0.215 A 
HETATM    2  N3  UNL     1      15.720  18.321  32.388  1.00  0.00    -0.163 N 
ATOM      3  H3  UNL     1      16.534  18.721  31.921  1.00  0.00     0.187 HD
HETATM    4  C6  UNL     1      14.534  19.014  32.298  1.00  0.00     0.684 A 
HETATM    5  N5  UNL     1      13.467  18.451  32.937  1.00  0.00    -0.200 N 
ATOM      6  H5  UNL     1      12.571  18.938  32.894  1.00  0.00     0.183 HD
HETATM    7  C15 UNL     1      13.523  17.300  33.615  1.00  0.00     0.128 A 
HETATM    8  C16 UNL     1      14.718  16.651  33.672  1.00  0.00     0.106 A 
ENDROOT
BRANCH   4   9
HETATM    9  N4  UNL     1      14.500  20.067  31.664  1.00  0.00    -0.191 N 
ATOM     10  H4  UNL     1      15.068  20.761  32.151  1.00  0.00     0.184 HD
BRANCH   9  11
HETATM   11  C7  UNL     1      13.978  20.636  30.553  1.00  0.00     0.054 A 
HETATM   12  C8  UNL     1      14.681  21.802  30.095  1.00  0.00     0.066 A 
HETATM   13  C9  UNL     1      14.294  22.507  28.994  1.00  0.00     0.073 A 
HETATM   14  C11 UNL     1      13.188  22.068  28.315  1.00  0.00     0.073 A 
HETATM   15  C12 UNL     1      12.477  20.958  28.709  1.00  0.00     0.073 A 
HETATM   16  C14 UNL     1      12.896  20.260  29.830  1.00  0.00     0.066 A 
BRANCH  13  17
HETATM   17  O2  UNL     1      15.023  23.629  28.597  1.00  0.00    -0.356 OA
HETATM   18  C10 UNL     1      15.366  23.774  27.221  1.00  0.00     0.210 C 
ENDBRANCH  13  17
BRANCH  15  19
HETATM   19  O3  UNL     1      11.360  20.473  28.068  1.00  0.00    -0.356 OA
HETATM   20  C13 UNL     1      10.057  20.753  28.405  1.00  0.00     0.210 C 
ENDBRANCH  15  19
ENDBRANCH   9  11
ENDBRANCH   4   9
BRANCH   1  21
HETATM   21  N2  UNL     1      16.931  16.578  33.187  1.00  0.00    -0.345 NA
BRANCH  21  22
HETATM   22  C4  UNL     1      18.056  15.963  33.268  1.00  0.00     0.296 C 
BRANCH  22  23
HETATM   23  N1  UNL     1      18.858  15.541  32.149  1.00  0.00    -0.341 N 
ATOM     24  H1  UNL     1      19.872  15.648  32.184  1.00  0.00     0.164 HD
BRANCH  23  25
HETATM   25  C3  UNL     1      18.243  14.972  30.986  1.00  0.00     0.150 C 
BRANCH  25  26
HETATM   26  C2  UNL     1      17.550  13.737  31.406  1.00  0.00    -0.018 C 
HETATM   27  C1  UNL     1      16.363  13.438  30.952  1.00  0.00     0.008 C 
ENDBRANCH  25  26
ENDBRANCH  23  25
ENDBRANCH  22  23
BRANCH  22  28
HETATM   28  O1  UNL     1      18.606  15.649  34.410  1.00  0.00    -0.321 OA
ATOM     29  H1  UNL     1      18.588  16.373  35.025  1.00  0.00     0.222 HD
ENDBRANCH  22  28
ENDBRANCH  21  22
ENDBRANCH   1  21
BRANCH   8  30
HETATM   30  C17 UNL     1      14.808  15.351  34.304  1.00  0.00     0.258 C 
HETATM   31  O4  UNL     1      14.308  14.309  33.749  1.00  0.00    -0.267 OA
HETATM   32  N6  UNL     1      15.466  15.196  35.567  1.00  0.00    -0.352 N 
ATOM     33  H6  UNL     1      15.882  16.014  36.012  1.00  0.00     0.163 HD
BRANCH  32  34
HETATM   34  C18 UNL     1      15.559  13.919  36.229  1.00  0.00     0.167 C 
BRANCH  34  35
HETATM   35  C19 UNL     1      14.616  13.822  37.413  1.00  0.00     0.076 C 
BRANCH  35  36
HETATM   36  N7  UNL     1      13.562  12.914  37.224  1.00  0.00    -0.400 N 
HETATM   37  C20 UNL     1      12.412  13.372  36.573  1.00  0.00     0.148 C 
HETATM   38  C21 UNL     1      13.617  11.662  37.832  1.00  0.00     0.148 C 
ENDBRANCH  35  36
ENDBRANCH  34  35
ENDBRANCH  32  34
ENDBRANCH   8  30
TORSDOF 14
ENDMDL
MODEL 3
REMARK VINA RESULT: -7.623388378      3.297      9.643
REMARK  14 active torsions:
REMARK  status: ('A' for Active; 'I' for Inactive)
REMARK    1  A    between atoms: C2_2  and  C3_3 
REMARK    2  A    between atoms: C3_3  and  N1_4 
REMARK    3  A    between atoms: N1_4  and  C4_6 
REMARK    4  A    between atoms: C4_6  and  O1_7 
REMARK    5  A    between atoms: C4_6  and  N2_9 
REMARK    6  A    between atoms: N2_9  and  C5_10 
REMARK    7  A    between atoms: C6_13  and  N4_14 
REMARK    8  A    between atoms: N4_14  and  C7_16 
REMARK    9  A    between atoms: C9_18  and  O2_19 
REMARK   10  A    between atoms: C12_22  and  O3_23 
REMARK   11  A    between atoms: C16_29  and  C17_30 
REMARK       I    between atoms: C17_30  and  N6_32 
REMARK   12  A    between atoms: N6_32  and  C18_34 
REMARK   13  A    between atoms: C18_34  and  C19_35 
REMARK   14  A    between atoms: C19_35  and  N7_36 
ROOT
HETATM    1  C5  UNL     1      13.259  17.442  30.930  1.00  0.00     0.215 A 
HETATM    2  N3  UNL     1      12.263  18.340  30.853  1.00  0.00    -0.163 N 
ATOM      3  H3  UNL     1      11.311  17.998  30.982  1.00  0.00     0.187 HD
HETATM    4  C6  UNL     1      12.424  19.687  30.613  1.00  0.00     0.684 A 
HETATM    5  N5  UNL     1      13.711  20.110  30.443  1.00  0.00    -0.200 N 
ATOM      6  H5  UNL     1      13.869  21.101  30.261  1.00  0.00     0.183 HD
HETATM    7  C15 UNL     1      14.778  19.305  30.501  1.00  0.00     0.128 A 
HETATM    8  C16 UNL     1      14.567  17.983  30.744  1.00  0.00     0.106 A 
ENDROOT
BRANCH   4   9
HETATM    9  N4  UNL     1      11.433  20.412  30.571  1.00  0.00    -0.191 N 
ATOM     10  H4  UNL     1      11.509  21.113  31.309  1.00  0.00     0.184 HD
BRANCH   9  11
HETATM   11  C7  UNL     1      10.278  20.616  29.897  1.00  0.00     0.054 A 
HETATM   12  C8  UNL     1       9.154  20.950  30.727  1.00  0.00     0.066 A 
HETATM   13  C9  UNL     1       7.910  21.182  30.221  1.00  0.00     0.073 A 
HETATM   14  C11 UNL     1       7.749  21.087  28.863  1.00  0.00     0.073 A 
HETATM   15  C12 UNL     1       8.790  20.770  28.021  1.00  0.00     0.073 A 
HETATM   16  C14 UNL     1      10.044  20.542  28.565  1.00  0.00     0.066 A 
BRANCH  13  17
HETATM   17  O2  UNL     1       6.861  21.508  31.080  1.00  0.00    -0.356 OA
HETATM   18  C10 UNL     1       7.160  22.155  32.315  1.00  0.00     0.210 C 
ENDBRANCH  13  17
BRANCH  15  19
HETATM   19  O3  UNL     1       8.687  20.660  26.652  1.00  0.00    -0.356 OA
HETATM   20  C13 UNL     1       7.873  19.780  25.979  1.00  0.00     0.210 C 
ENDBRANCH  15  19
ENDBRANCH   9  11
ENDBRANCH   4   9
BRANCH   1  21
HETATM   21  N2  UNL     1      13.134  16.257  31.071  1.00  0.00    -0.345 NA
BRANCH  21  22
HETATM   22  C4  UNL     1      13.029  14.996  31.291  1.00  0.00     0.296 C 
BRANCH  22  23
HETATM   23  N1  UNL     1      14.003  14.185  31.974  1.00  0.00    -0.341 N 
ATOM     24  H1  UNL     1      14.493  13.448  31.467  1.00  0.00     0.164 HD
BRANCH  23  25
HETATM   25  C3  UNL     1      14.290  14.405  33.361  1.00  0.00     0.150 C 
BRANCH  25  26
HETATM   26  C2  UNL     1      15.677  13.961  33.606  1.00  0.00    -0.018 C 
HETATM   27  C1  UNL     1      16.109  13.724  34.816  1.00  0.00     0.008 C 
ENDBRANCH  25  26
ENDBRANCH  23  25
ENDBRANCH  22  23
BRANCH  22  28
HETATM   28  O1  UNL     1      11.993  14.298  30.908  1.00  0.00    -0.321 OA
ATOM     29  H1  UNL     1      11.347  14.212  31.599  1.00  0.00     0.222 HD
ENDBRANCH  22  28
ENDBRANCH  21  22
ENDBRANCH   1  21
BRANCH   8  30
HETATM   30  C17 UNL     1      15.692  17.089  30.919  1.00  0.00     0.258 C 
HETATM   31  O4  UNL     1      16.308  17.013  32.040  1.00  0.00    -0.267 OA
HETATM   32  N6  UNL     1      16.143  16.260  29.840  1.00  0.00    -0.352 N 
ATOM     33  H6  UNL     1      15.651  16.300  28.947  1.00  0.00     0.163 HD
BRANCH  32  34
HETATM   34  C18 UNL     1      17.269  15.371  29.978  1.00  0.00     0.167 C 
BRANCH  34  35
HETATM   35  C19 UNL     1      18.582  16.066  29.677  1.00  0.00     0.076 C 
BRANCH  35  36
HETATM   36  N7  UNL     1      19.358  16.329  30.817  1.00  0.00    -0.400 N 
HETATM   37  C20 UNL     1      19.741  15.245  31.612  1.00  0.00     0.148 C 
HETATM   38  C21 UNL     1      19.571  17.647  31.214  1.00  0.00     0.148 C 
ENDBRANCH  35  36
ENDBRANCH  34  35
ENDBRANCH  32  34
ENDBRANCH   8  30
TORSDOF 14
ENDMDL
MODEL 4
REMARK VINA RESULT: -7.609426263      2.362      9.142
REMARK  14 active torsions:
REMARK  status: ('A' for Active; 'I' for Inactive)
REMARK    1  A    between atoms: C2_2  and  C3_3 
REMARK    2  A    between atoms: C3_3  and  N1_4 
REMARK    3  A    between atoms: N1_4  and  C4_6 
REMARK    4  A    between atoms: C4_6  and  O1_7 
REMARK    5  A    between atoms: C4_6  and  N2_9 
REMARK    6  A    between atoms: N2_9  and  C5_10 
REMARK    7  A    between atoms: C6_13  and  N4_14 
REMARK    8  A    between atoms: N4_14  and  C7_16 
REMARK    9  A    between atoms: C9_18  and  O2_19 
REMARK   10  A    between atoms: C12_22  and  O3_23 
REMARK   11  A    between atoms: C16_29  and  C17_30 
REMARK       I    between atoms: C17_30  and  N6_32 
REMARK   12  A    between atoms: N6_32  and  C18_34 
REMARK   13  A    between atoms: C18_34  and  C19_35 
REMARK   14  A    between atoms: C19_35  and  N7_36 
ROOT
HETATM    1  C5  UNL     1      16.022  17.306  32.908  1.00  0.00     0.215 A 
HETATM    2  N3  UNL     1      15.915  18.505  32.309  1.00  0.00    -0.163 N 
ATOM      3  H3  UNL     1      16.748  18.877  31.853  1.00  0.00     0.187 HD
HETATM    4  C6  UNL     1      14.771  19.270  32.260  1.00  0.00     0.684 A 
HETATM    5  N5  UNL     1      13.676  18.741  32.883  1.00  0.00    -0.200 N 
ATOM      6  H5  UNL     1      12.811  19.281  32.870  1.00  0.00     0.183 HD
HETATM    7  C15 UNL     1      13.669  17.559  33.508  1.00  0.00     0.128 A 
HETATM    8  C16 UNL     1      14.823  16.839  33.525  1.00  0.00     0.106 A 
ENDROOT
BRANCH   4   9
HETATM    9  N4  UNL     1      14.795  20.350  31.675  1.00  0.00    -0.191 N 
ATOM     10  H4  UNL     1      15.292  21.026  32.256  1.00  0.00     0.184 HD
BRANCH   9  11
HETATM   11  C7  UNL     1      14.397  20.965  30.537  1.00  0.00     0.054 A 
HETATM   12  C8  UNL     1      13.229  20.392  29.928  1.00  0.00     0.066 A 
HETATM   13  C9  UNL     1      12.690  20.878  28.773  1.00  0.00     0.073 A 
HETATM   14  C11 UNL     1      13.305  21.955  28.190  1.00  0.00     0.073 A 
HETATM   15  C12 UNL     1      14.426  22.542  28.730  1.00  0.00     0.073 A 
HETATM   16  C14 UNL     1      14.949  22.028  29.905  1.00  0.00     0.066 A 
BRANCH  13  17
HETATM   17  O2  UNL     1      11.551  20.280  28.234  1.00  0.00    -0.356 OA
HETATM   18  C10 UNL     1      10.292  20.930  28.396  1.00  0.00     0.210 C 
ENDBRANCH  13  17
BRANCH  15  19
HETATM   19  O3  UNL     1      15.085  23.623  28.187  1.00  0.00    -0.356 OA
HETATM   20  C13 UNL     1      15.126  23.948  26.853  1.00  0.00     0.210 C 
ENDBRANCH  15  19
ENDBRANCH   9  11
ENDBRANCH   4   9
BRANCH   1  21
HETATM   21  N2  UNL     1      17.025  16.659  33.017  1.00  0.00    -0.345 NA
BRANCH  21  22
HETATM   22  C4  UNL     1      18.113  16.000  33.201  1.00  0.00     0.296 C 
BRANCH  22  23
HETATM   23  N1  UNL     1      18.909  15.399  32.163  1.00  0.00    -0.341 N 
ATOM     24  H1  UNL     1      19.922  15.344  32.269  1.00  0.00     0.164 HD
BRANCH  23  25
HETATM   25  C3  UNL     1      18.289  14.876  30.981  1.00  0.00     0.150 C 
BRANCH  25  26
HETATM   26  C2  UNL     1      17.466  13.717  31.383  1.00  0.00    -0.018 C 
HETATM   27  C1  UNL     1      16.320  13.469  30.810  1.00  0.00     0.008 C 
ENDBRANCH  25  26
ENDBRANCH  23  25
ENDBRANCH  22  23
BRANCH  22  28
HETATM   28  O1  UNL     1      18.625  15.804  34.387  1.00  0.00    -0.321 OA
ATOM     29  H1  UNL     1      19.516  16.130  34.448  1.00  0.00     0.222 HD
ENDBRANCH  22  28
ENDBRANCH  21  22
ENDBRANCH   1  21
BRANCH   8  30
HETATM   30  C17 UNL     1      14.841  15.509  34.097  1.00  0.00     0.258 C 
HETATM   31  O4  UNL     1      14.291  14.521  33.492  1.00  0.00    -0.267 OA
HETATM   32  N6  UNL     1      15.480  15.262  35.355  1.00  0.00    -0.352 N 
ATOM     33  H6  UNL     1      15.934  16.036  35.839  1.00  0.00     0.163 HD
BRANCH  32  34
HETATM   34  C18 UNL     1      15.501  13.953  35.958  1.00  0.00     0.167 C 
BRANCH  34  35
HETATM   35  C19 UNL     1      14.669  13.897  37.225  1.00  0.00     0.076 C 
BRANCH  35  36
HETATM   36  N7  UNL     1      13.553  13.050  37.132  1.00  0.00    -0.400 N 
HETATM   37  C20 UNL     1      13.644  11.781  37.712  1.00  0.00     0.148 C 
HETATM   38  C21 UNL     1      12.476  13.420  36.330  1.00  0.00     0.148 C 
ENDBRANCH  35  36
ENDBRANCH  34  35
ENDBRANCH  32  34
ENDBRANCH   8  30
TORSDOF 14
ENDMDL
MODEL 5
REMARK VINA RESULT: -7.597318962      1.080      2.386
REMARK  14 active torsions:
REMARK  status: ('A' for Active; 'I' for Inactive)
REMARK    1  A    between atoms: C2_2  and  C3_3 
REMARK    2  A    between atoms: C3_3  and  N1_4 
REMARK    3  A    between atoms: N1_4  and  C4_6 
REMARK    4  A    between atoms: C4_6  and  O1_7 
REMARK    5  A    between atoms: C4_6  and  N2_9 
REMARK    6  A    between atoms: N2_9  and  C5_10 
REMARK    7  A    between atoms: C6_13  and  N4_14 
REMARK    8  A    between atoms: N4_14  and  C7_16 
REMARK    9  A    between atoms: C9_18  and  O2_19 
REMARK   10  A    between atoms: C12_22  and  O3_23 
REMARK   11  A    between atoms: C16_29  and  C17_30 
REMARK       I    between atoms: C17_30  and  N6_32 
REMARK   12  A    between atoms: N6_32  and  C18_34 
REMARK   13  A    between atoms: C18_34  and  C19_35 
REMARK   14  A    between atoms: C19_35  and  N7_36 
ROOT
HETATM    1  C5  UNL     1      14.122  20.429  30.636  1.00  0.00     0.215 A 
HETATM    2  N3  UNL     1      14.739  19.803  31.652  1.00  0.00    -0.163 N 
ATOM      3  H3  UNL     1      15.522  20.286  32.093  1.00  0.00     0.187 HD
HETATM    4  C6  UNL     1      14.399  18.564  32.147  1.00  0.00     0.684 A 
HETATM    5  N5  UNL     1      13.348  17.947  31.532  1.00  0.00    -0.200 N 
ATOM      6  H5  UNL     1      13.069  17.025  31.869  1.00  0.00     0.183 HD
HETATM    7  C15 UNL     1      12.661  18.476  30.513  1.00  0.00     0.128 A 
HETATM    8  C16 UNL     1      13.033  19.704  30.063  1.00  0.00     0.106 A 
ENDROOT
BRANCH   4   9
HETATM    9  N4  UNL     1      15.037  18.097  33.088  1.00  0.00    -0.191 N 
ATOM     10  H4  UNL     1      14.842  18.651  33.922  1.00  0.00     0.184 HD
BRANCH   9  11
HETATM   11  C7  UNL     1      15.905  17.111  33.414  1.00  0.00     0.054 A 
HETATM   12  C8  UNL     1      15.426  16.206  34.422  1.00  0.00     0.066 A 
HETATM   13  C9  UNL     1      16.168  15.157  34.879  1.00  0.00     0.073 A 
HETATM   14  C11 UNL     1      17.416  14.980  34.341  1.00  0.00     0.073 A 
HETATM   15  C12 UNL     1      17.924  15.817  33.374  1.00  0.00     0.073 A 
HETATM   16  C14 UNL     1      17.145  16.872  32.928  1.00  0.00     0.066 A 
BRANCH  13  17
HETATM   17  O2  UNL     1      15.644  14.310  35.856  1.00  0.00    -0.356 OA
HETATM   18  C10 UNL     1      14.230  14.266  36.040  1.00  0.00     0.210 C 
ENDBRANCH  13  17
BRANCH  15  19
HETATM   19  O3  UNL     1      19.169  15.688  32.800  1.00  0.00    -0.356 OA
HETATM   20  C13 UNL     1      19.418  15.287  31.509  1.00  0.00     0.210 C 
ENDBRANCH  15  19
ENDBRANCH   9  11
ENDBRANCH   4   9
BRANCH   1  21
HETATM   21  N2  UNL     1      14.446  21.476  30.149  1.00  0.00    -0.345 NA
BRANCH  21  22
HETATM   22  C4  UNL     1      14.811  22.621  29.697  1.00  0.00     0.296 C 
BRANCH  22  23
HETATM   23  N1  UNL     1      15.689  22.834  28.576  1.00  0.00    -0.341 N 
ATOM     24  H1  UNL     1      16.653  22.503  28.617  1.00  0.00     0.164 HD
BRANCH  23  25
HETATM   25  C3  UNL     1      15.220  23.509  27.401  1.00  0.00     0.150 C 
BRANCH  25  26
HETATM   26  C2  UNL     1      14.779  22.478  26.440  1.00  0.00    -0.018 C 
HETATM   27  C1  UNL     1      15.389  21.327  26.354  1.00  0.00     0.008 C 
ENDBRANCH  25  26
ENDBRANCH  23  25
ENDBRANCH  22  23
BRANCH  22  28
HETATM   28  O1  UNL     1      14.408  23.747  30.224  1.00  0.00    -0.321 OA
ATOM     29  H1  UNL     1      13.522  23.967  29.960  1.00  0.00     0.222 HD
ENDBRANCH  22  28
ENDBRANCH  21  22
ENDBRANCH   1  21
BRANCH   8  30
HETATM   30  C17 UNL     1      12.259  20.365  29.034  1.00  0.00     0.258 C 
HETATM   31  O4  UNL     1      12.504  20.169  27.791  1.00  0.00    -0.267 OA
HETATM   32  N6  UNL     1      11.190  21.255  29.380  1.00  0.00    -0.352 N 
ATOM     33  H6  UNL     1      10.974  21.408  30.365  1.00  0.00     0.163 HD
BRANCH  32  34
HETATM   34  C18 UNL     1      10.410  21.940  28.380  1.00  0.00     0.167 C 
BRANCH  34  35
HETATM   35  C19 UNL     1       9.236  21.106  27.905  1.00  0.00     0.076 C 
BRANCH  35  36
HETATM   36  N7  UNL     1       8.429  20.620  28.946  1.00  0.00    -0.400 N 
HETATM   37  C20 UNL     1       8.310  19.235  29.091  1.00  0.00     0.148 C 
HETATM   38  C21 UNL     1       7.646  21.509  29.679  1.00  0.00     0.148 C 
ENDBRANCH  35  36
ENDBRANCH  34  35
ENDBRANCH  32  34
ENDBRANCH   8  30
TORSDOF 14
ENDMDL
