MODEL 1
REMARK VINA RESULT: -6.718004868      0.000      0.000
REMARK  14 active torsions:
REMARK  status: ('A' for Active; 'I' for Inactive)
REMARK    1  A    between atoms: C2_2  and  C3_3 
REMARK    2  A    between atoms: C3_3  and  N1_4 
REMARK    3  A    between atoms: N1_4  and  C4_6 
REMARK    4  A    between atoms: C5_9  and  N3_10 
REMARK    5  A    between atoms: N3_10  and  C6_12 
REMARK    6  A    between atoms: C6_12  and  C7_13 
REMARK    7  A    between atoms: C7_13  and  C8_14 
REMARK    8  A    between atoms: C8_14  and  O1_15 
REMARK    9  A    between atoms: C10_19  and  N5_20 
REMARK   10  A    between atoms: N5_20  and  C11_22 
REMARK   11  A    between atoms: N6_25  and  C14_26 
REMARK   12  A    between atoms: N7_27  and  C15_29 
REMARK   13  A    between atoms: C15_29  and  N8_31 
REMARK   14  A    between atoms: N8_31  and  C16_33 
ROOT
HETATM    1  C4  UNL     1      14.394  18.224  32.267  1.00  0.00     0.707 A 
HETATM    2  N2  UNL     1      15.591  18.405  31.688  1.00  0.00    -0.022 N 
ATOM      3  H2  UNL     1      15.872  19.346  31.414  1.00  0.00     0.203 HD
HETATM    4  C5  UNL     1      16.426  17.380  31.460  1.00  0.00     0.707 A 
HETATM    5  N4  UNL     1      16.057  16.139  31.820  1.00  0.00    -0.022 N 
ATOM      6  H4  UNL     1      16.691  15.360  31.646  1.00  0.00     0.203 HD
HETATM    7  C10 UNL     1      14.843  15.898  32.418  1.00  0.00     0.707 A 
HETATM    8  N9  UNL     1      14.049  16.951  32.622  1.00  0.00    -0.021 N 
ATOM      9  H9  UNL     1      13.142  16.797  33.065  1.00  0.00     0.203 HD
ENDROOT
BRANCH   7  10
HETATM   10  N5  UNL     1      14.511  14.736  32.748  1.00  0.00    -0.220 N 
ATOM     11  H5  UNL     1      14.243  14.158  31.952  1.00  0.00     0.178 HD
BRANCH  10  12
HETATM   12  C11 UNL     1      14.426  14.048  33.980  1.00  0.00     0.102 C 
HETATM   13  C12 UNL     1      15.379  14.603  35.008  1.00  0.00     0.045 C 
HETATM   14  C13 UNL     1      15.379  13.808  36.279  1.00  0.00     0.125 C 
HETATM   15  N6  UNL     1      14.014  13.743  36.761  1.00  0.00    -0.377 N 
HETATM   16  C18 UNL     1      12.865  14.010  35.954  1.00  0.00     0.125 C 
HETATM   17  C19 UNL     1      13.046  13.777  34.491  1.00  0.00     0.045 C 
BRANCH  15  18
HETATM   18  C14 UNL     1      13.853  13.385  38.136  1.00  0.00     0.180 C 
HETATM   19  N7  UNL     1      14.340  14.185  39.016  1.00  0.00    -0.330 N 
ATOM     20  H7  UNL     1      14.810  15.025  38.679  1.00  0.00     0.169 HD
BRANCH  19  21
HETATM   21  C15 UNL     1      14.275  13.994  40.408  1.00  0.00     0.172 C 
HETATM   22  S1  UNL     1      12.796  13.957  41.105  1.00  0.00    -0.041 SA
BRANCH  21  23
HETATM   23  N8  UNL     1      15.453  13.841  41.157  1.00  0.00    -0.367 N 
ATOM     24  H8  UNL     1      16.282  14.380  40.901  1.00  0.00     0.161 HD
BRANCH  23  25
HETATM   25  C16 UNL     1      15.516  12.943  42.273  1.00  0.00     0.117 C 
HETATM   26  C17 UNL     1      15.440  11.501  41.856  1.00  0.00     0.026 C 
ENDBRANCH  23  25
ENDBRANCH  21  23
ENDBRANCH  19  21
ENDBRANCH  15  18
ENDBRANCH  10  12
ENDBRANCH   7  10
BRANCH   4  27
HETATM   27  N3  UNL     1      17.567  17.543  30.909  1.00  0.00    -0.225 N 
ATOM     28  H3  UNL     1      18.103  18.389  31.103  1.00  0.00     0.177 HD
BRANCH  27  29
HETATM   29  C6  UNL     1      18.106  16.549  30.021  1.00  0.00     0.140 C 
BRANCH  29  30
HETATM   30  C7  UNL     1      19.508  16.204  30.506  1.00  0.00     0.046 C 
BRANCH  30  31
HETATM   31  C8  UNL     1      19.507  15.043  31.437  1.00  0.00     0.168 C 
BRANCH  31  32
HETATM   32  O1  UNL     1      19.072  15.424  32.687  1.00  0.00    -0.396 OA
HETATM   33  C9  UNL     1      18.858  14.406  33.586  1.00  0.00     0.201 C 
ENDBRANCH  31  32
ENDBRANCH  30  31
ENDBRANCH  29  30
ENDBRANCH  27  29
ENDBRANCH   4  27
BRANCH   1  34
HETATM   34  N1  UNL     1      13.572  19.191  32.499  1.00  0.00    -0.222 N 
ATOM     35  H1  UNL     1      13.638  19.750  33.349  1.00  0.00     0.178 HD
BRANCH  34  36
HETATM   36  C3  UNL     1      12.547  19.451  31.496  1.00  0.00     0.164 C 
BRANCH  36  37
HETATM   37  C2  UNL     1      11.308  19.971  32.109  1.00  0.00    -0.017 C 
HETATM   38  C1  UNL     1      10.225  20.120  31.384  1.00  0.00     0.008 C 
ENDBRANCH  36  37
ENDBRANCH  34  36
ENDBRANCH   1  34
TORSDOF 14
ENDMDL
MODEL 2
REMARK VINA RESULT: -6.638703847      4.453      8.751
REMARK  14 active torsions:
REMARK  status: ('A' for Active; 'I' for Inactive)
REMARK    1  A    between atoms: C2_2  and  C3_3 
REMARK    2  A    between atoms: C3_3  and  N1_4 
REMARK    3  A    between atoms: N1_4  and  C4_6 
REMARK    4  A    between atoms: C5_9  and  N3_10 
REMARK    5  A    between atoms: N3_10  and  C6_12 
REMARK    6  A    between atoms: C6_12  and  C7_13 
REMARK    7  A    between atoms: C7_13  and  C8_14 
REMARK    8  A    between atoms: C8_14  and  O1_15 
REMARK    9  A    between atoms: C10_19  and  N5_20 
REMARK   10  A    between atoms: N5_20  and  C11_22 
REMARK   11  A    between atoms: N6_25  and  C14_26 
REMARK   12  A    between atoms: N7_27  and  C15_29 
REMARK   13  A    between atoms: C15_29  and  N8_31 
REMARK   14  A    between atoms: N8_31  and  C16_33 
ROOT
HETATM    1  C4  UNL     1      14.621  16.216  32.917  1.00  0.00     0.707 A 
HETATM    2  N2  UNL     1      15.832  15.665  33.090  1.00  0.00    -0.022 N 
ATOM      3  H2  UNL     1      15.900  14.739  33.513  1.00  0.00     0.203 HD
HETATM    4  C5  UNL     1      16.955  16.300  32.723  1.00  0.00     0.707 A 
HETATM    5  N4  UNL     1      16.867  17.520  32.166  1.00  0.00    -0.022 N 
ATOM      6  H4  UNL     1      17.721  18.004  31.888  1.00  0.00     0.203 HD
HETATM    7  C10 UNL     1      15.653  18.130  31.965  1.00  0.00     0.707 A 
HETATM    8  N9  UNL     1      14.566  17.457  32.348  1.00  0.00    -0.021 N 
ATOM      9  H9  UNL     1      13.652  17.888  32.208  1.00  0.00     0.203 HD
ENDROOT
BRANCH   7  10
HETATM   10  N5  UNL     1      15.585  19.268  31.445  1.00  0.00    -0.220 N 
ATOM     11  H5  UNL     1      16.435  19.816  31.580  1.00  0.00     0.178 HD
BRANCH  10  12
HETATM   12  C11 UNL     1      14.594  19.960  30.713  1.00  0.00     0.102 C 
HETATM   13  C12 UNL     1      14.289  19.292  29.396  1.00  0.00     0.045 C 
HETATM   14  C13 UNL     1      13.325  20.079  28.562  1.00  0.00     0.125 C 
HETATM   15  N6  UNL     1      12.136  20.311  29.359  1.00  0.00    -0.377 N 
HETATM   16  C18 UNL     1      12.088  20.187  30.782  1.00  0.00     0.125 C 
HETATM   17  C19 UNL     1      13.388  20.397  31.484  1.00  0.00     0.045 C 
BRANCH  15  18
HETATM   18  C14 UNL     1      10.961  20.684  28.635  1.00  0.00     0.180 C 
HETATM   19  N7  UNL     1       9.825  20.446  29.187  1.00  0.00    -0.330 N 
ATOM     20  H7  UNL     1       9.833  20.006  30.107  1.00  0.00     0.169 HD
BRANCH  19  21
HETATM   21  C15 UNL     1       8.572  20.744  28.622  1.00  0.00     0.172 C 
HETATM   22  S1  UNL     1       7.947  19.683  27.547  1.00  0.00    -0.041 SA
BRANCH  21  23
HETATM   23  N8  UNL     1       7.897  21.922  28.982  1.00  0.00    -0.367 N 
ATOM     24  H8  UNL     1       8.150  22.802  28.532  1.00  0.00     0.161 HD
BRANCH  23  25
HETATM   25  C16 UNL     1       6.858  21.912  29.971  1.00  0.00     0.117 C 
HETATM   26  C17 UNL     1       7.386  22.133  31.361  1.00  0.00     0.026 C 
ENDBRANCH  23  25
ENDBRANCH  21  23
ENDBRANCH  19  21
ENDBRANCH  15  18
ENDBRANCH  10  12
ENDBRANCH   7  10
BRANCH   4  27
HETATM   27  N3  UNL     1      18.112  15.783  32.884  1.00  0.00    -0.225 N 
ATOM     28  H3  UNL     1      18.827  16.301  33.396  1.00  0.00     0.177 HD
BRANCH  27  29
HETATM   29  C6  UNL     1      18.420  14.482  32.354  1.00  0.00     0.140 C 
BRANCH  29  30
HETATM   30  C7  UNL     1      18.506  14.607  30.839  1.00  0.00     0.046 C 
BRANCH  30  31
HETATM   31  C8  UNL     1      19.618  15.502  30.415  1.00  0.00     0.168 C 
BRANCH  31  32
HETATM   32  O1  UNL     1      19.126  16.701  29.953  1.00  0.00    -0.396 OA
HETATM   33  C9  UNL     1      18.141  16.620  28.997  1.00  0.00     0.201 C 
ENDBRANCH  31  32
ENDBRANCH  30  31
ENDBRANCH  29  30
ENDBRANCH  27  29
ENDBRANCH   4  27
BRANCH   1  34
HETATM   34  N1  UNL     1      13.526  15.628  33.260  1.00  0.00    -0.222 N 
ATOM     35  H1  UNL     1      12.847  15.323  32.562  1.00  0.00     0.178 HD
BRANCH  34  36
HETATM   36  C3  UNL     1      13.298  15.416  34.684  1.00  0.00     0.164 C 
BRANCH  36  37
HETATM   37  C2  UNL     1      12.384  14.281  34.925  1.00  0.00    -0.017 C 
HETATM   38  C1  UNL     1      12.077  13.462  33.947  1.00  0.00     0.008 C 
ENDBRANCH  36  37
ENDBRANCH  34  36
ENDBRANCH   1  34
TORSDOF 14
ENDMDL
MODEL 3
REMARK VINA RESULT: -6.566980558      3.511      8.360
REMARK  14 active torsions:
REMARK  status: ('A' for Active; 'I' for Inactive)
REMARK    1  A    between atoms: C2_2  and  C3_3 
REMARK    2  A    between atoms: C3_3  and  N1_4 
REMARK    3  A    between atoms: N1_4  and  C4_6 
REMARK    4  A    between atoms: C5_9  and  N3_10 
REMARK    5  A    between atoms: N3_10  and  C6_12 
REMARK    6  A    between atoms: C6_12  and  C7_13 
REMARK    7  A    between atoms: C7_13  and  C8_14 
REMARK    8  A    between atoms: C8_14  and  O1_15 
REMARK    9  A    between atoms: C10_19  and  N5_20 
REMARK   10  A    between atoms: N5_20  and  C11_22 
REMARK   11  A    between atoms: N6_25  and  C14_26 
REMARK   12  A    between atoms: N7_27  and  C15_29 
REMARK   13  A    between atoms: C15_29  and  N8_31 
REMARK   14  A    between atoms: N8_31  and  C16_33 
ROOT
HETATM    1  C4  UNL     1      16.018  14.193  35.120  1.00  0.00     0.707 A 
HETATM    2  N2  UNL     1      16.970  13.694  34.318  1.00  0.00    -0.022 N 
ATOM      3  H2  UNL     1      17.342  12.763  34.507  1.00  0.00     0.203 HD
HETATM    4  C5  UNL     1      17.447  14.387  33.273  1.00  0.00     0.707 A 
HETATM    5  N4  UNL     1      16.960  15.614  33.022  1.00  0.00    -0.022 N 
ATOM      6  H4  UNL     1      17.323  16.142  32.228  1.00  0.00     0.203 HD
HETATM    7  C10 UNL     1      15.983  16.172  33.811  1.00  0.00     0.707 A 
HETATM    8  N9  UNL     1      15.543  15.442  34.837  1.00  0.00    -0.021 N 
ATOM      9  H9  UNL     1      14.817  15.835  35.438  1.00  0.00     0.203 HD
ENDROOT
BRANCH   7  10
HETATM   10  N5  UNL     1      15.537  17.317  33.565  1.00  0.00    -0.220 N 
ATOM     11  H5  UNL     1      16.163  18.061  33.875  1.00  0.00     0.178 HD
BRANCH  10  12
HETATM   12  C11 UNL     1      14.361  17.807  32.954  1.00  0.00     0.102 C 
HETATM   13  C12 UNL     1      14.557  19.182  32.366  1.00  0.00     0.045 C 
HETATM   14  C13 UNL     1      13.286  19.758  31.817  1.00  0.00     0.125 C 
HETATM   15  N6  UNL     1      12.749  18.812  30.858  1.00  0.00    -0.377 N 
HETATM   16  C18 UNL     1      13.129  17.436  30.790  1.00  0.00     0.125 C 
HETATM   17  C19 UNL     1      13.629  16.849  32.068  1.00  0.00     0.045 C 
BRANCH  15  18
HETATM   18  C14 UNL     1      11.780  19.331  29.944  1.00  0.00     0.180 C 
HETATM   19  N7  UNL     1      10.850  20.075  30.427  1.00  0.00    -0.330 N 
ATOM     20  H7  UNL     1      10.861  20.248  31.432  1.00  0.00     0.169 HD
BRANCH  19  21
HETATM   21  C15 UNL     1       9.818  20.669  29.678  1.00  0.00     0.172 C 
HETATM   22  S1  UNL     1      10.240  21.623  28.420  1.00  0.00    -0.041 SA
BRANCH  21  23
HETATM   23  N8  UNL     1       8.475  20.436  30.017  1.00  0.00    -0.367 N 
ATOM     24  H8  UNL     1       8.162  19.481  30.194  1.00  0.00     0.161 HD
BRANCH  23  25
HETATM   25  C16 UNL     1       7.534  21.515  30.118  1.00  0.00     0.117 C 
HETATM   26  C17 UNL     1       7.526  22.145  31.483  1.00  0.00     0.026 C 
ENDBRANCH  23  25
ENDBRANCH  21  23
ENDBRANCH  19  21
ENDBRANCH  15  18
ENDBRANCH  10  12
ENDBRANCH   7  10
BRANCH   4  27
HETATM   27  N3  UNL     1      18.354  13.921  32.504  1.00  0.00    -0.225 N 
ATOM     28  H3  UNL     1      18.202  13.031  32.028  1.00  0.00     0.177 HD
BRANCH  27  29
HETATM   29  C6  UNL     1      19.587  14.633  32.299  1.00  0.00     0.140 C 
BRANCH  29  30
HETATM   30  C7  UNL     1      19.615  15.105  30.851  1.00  0.00     0.046 C 
BRANCH  30  31
HETATM   31  C8  UNL     1      19.421  16.577  30.740  1.00  0.00     0.168 C 
BRANCH  31  32
HETATM   32  O1  UNL     1      19.317  17.148  31.988  1.00  0.00    -0.396 OA
HETATM   33  C9  UNL     1      18.807  18.424  32.026  1.00  0.00     0.201 C 
ENDBRANCH  31  32
ENDBRANCH  30  31
ENDBRANCH  29  30
ENDBRANCH  27  29
ENDBRANCH   4  27
BRANCH   1  34
HETATM   34  N1  UNL     1      15.541  13.548  36.130  1.00  0.00    -0.222 N 
ATOM     35  H1  UNL     1      16.066  12.794  36.573  1.00  0.00     0.178 HD
BRANCH  34  36
HETATM   36  C3  UNL     1      14.222  13.939  36.611  1.00  0.00     0.164 C 
BRANCH  36  37
HETATM   37  C2  UNL     1      14.122  13.817  38.079  1.00  0.00    -0.017 C 
HETATM   38  C1  UNL     1      13.799  12.669  38.626  1.00  0.00     0.008 C 
ENDBRANCH  36  37
ENDBRANCH  34  36
ENDBRANCH   1  34
TORSDOF 14
ENDMDL
MODEL 4
REMARK VINA RESULT: -6.560114949      2.304      2.617
REMARK  14 active torsions:
REMARK  status: ('A' for Active; 'I' for Inactive)
REMARK    1  A    between atoms: C2_2  and  C3_3 
REMARK    2  A    between atoms: C3_3  and  N1_4 
REMARK    3  A    between atoms: N1_4  and  C4_6 
REMARK    4  A    between atoms: C5_9  and  N3_10 
REMARK    5  A    between atoms: N3_10  and  C6_12 
REMARK    6  A    between atoms: C6_12  and  C7_13 
REMARK    7  A    between atoms: C7_13  and  C8_14 
REMARK    8  A    between atoms: C8_14  and  O1_15 
REMARK    9  A    between atoms: C10_19  and  N5_20 
REMARK   10  A    between atoms: N5_20  and  C11_22 
REMARK   11  A    between atoms: N6_25  and  C14_26 
REMARK   12  A    between atoms: N7_27  and  C15_29 
REMARK   13  A    between atoms: C15_29  and  N8_31 
REMARK   14  A    between atoms: N8_31  and  C16_33 
ROOT
HETATM    1  C4  UNL     1      14.286  16.863  30.222  1.00  0.00     0.707 A 
HETATM    2  N2  UNL     1      15.477  16.290  29.990  1.00  0.00    -0.022 N 
ATOM      3  H2  UNL     1      16.176  16.800  29.450  1.00  0.00     0.203 HD
HETATM    4  C5  UNL     1      15.772  15.064  30.449  1.00  0.00     0.707 A 
HETATM    5  N4  UNL     1      14.851  14.391  31.160  1.00  0.00    -0.022 N 
ATOM      6  H4  UNL     1      15.074  13.458  31.508  1.00  0.00     0.203 HD
HETATM    7  C10 UNL     1      13.616  14.931  31.427  1.00  0.00     0.707 A 
HETATM    8  N9  UNL     1      13.373  16.152  30.948  1.00  0.00    -0.021 N 
ATOM      9  H9  UNL     1      12.462  16.575  31.133  1.00  0.00     0.203 HD
ENDROOT
BRANCH   7  10
HETATM   10  N5  UNL     1      12.767  14.292  32.091  1.00  0.00    -0.220 N 
ATOM     11  H5  UNL     1      11.897  14.139  31.580  1.00  0.00     0.178 HD
BRANCH  10  12
HETATM   12  C11 UNL     1      12.746  13.736  33.390  1.00  0.00     0.102 C 
HETATM   13  C12 UNL     1      13.239  14.707  34.432  1.00  0.00     0.045 C 
HETATM   14  C13 UNL     1      13.330  14.091  35.795  1.00  0.00     0.125 C 
HETATM   15  N6  UNL     1      12.029  13.538  36.119  1.00  0.00    -0.377 N 
HETATM   16  C18 UNL     1      11.013  13.262  35.153  1.00  0.00     0.125 C 
HETATM   17  C19 UNL     1      11.504  12.992  33.770  1.00  0.00     0.045 C 
BRANCH  15  18
HETATM   18  C14 UNL     1      11.792  13.268  37.502  1.00  0.00     0.180 C 
HETATM   19  N7  UNL     1      12.777  13.423  38.313  1.00  0.00    -0.330 N 
ATOM     20  H7  UNL     1      13.666  13.729  37.919  1.00  0.00     0.169 HD
BRANCH  19  21
HETATM   21  C15 UNL     1      12.725  13.203  39.702  1.00  0.00     0.172 C 
HETATM   22  S1  UNL     1      11.616  12.143  40.265  1.00  0.00    -0.041 SA
BRANCH  21  23
HETATM   23  N8  UNL     1      13.606  13.884  40.558  1.00  0.00    -0.367 N 
ATOM     24  H8  UNL     1      13.916  14.824  40.312  1.00  0.00     0.161 HD
BRANCH  23  25
HETATM   25  C16 UNL     1      14.079  13.282  41.771  1.00  0.00     0.117 C 
HETATM   26  C17 UNL     1      15.580  13.229  41.840  1.00  0.00     0.026 C 
ENDBRANCH  23  25
ENDBRANCH  21  23
ENDBRANCH  19  21
ENDBRANCH  15  18
ENDBRANCH  10  12
ENDBRANCH   7  10
BRANCH   4  27
HETATM   27  N3  UNL     1      16.902  14.511  30.234  1.00  0.00    -0.225 N 
ATOM     28  H3  UNL     1      17.251  14.436  29.278  1.00  0.00     0.177 HD
BRANCH  27  29
HETATM   29  C6  UNL     1      17.690  13.993  31.320  1.00  0.00     0.140 C 
BRANCH  29  30
HETATM   30  C7  UNL     1      18.815  14.983  31.590  1.00  0.00     0.046 C 
BRANCH  30  31
HETATM   31  C8  UNL     1      19.559  15.335  30.349  1.00  0.00     0.168 C 
BRANCH  31  32
HETATM   32  O1  UNL     1      19.214  16.597  29.919  1.00  0.00    -0.396 OA
HETATM   33  C9  UNL     1      18.955  17.519  30.906  1.00  0.00     0.201 C 
ENDBRANCH  31  32
ENDBRANCH  30  31
ENDBRANCH  29  30
ENDBRANCH  27  29
ENDBRANCH   4  27
BRANCH   1  34
HETATM   34  N1  UNL     1      13.977  18.039  29.793  1.00  0.00    -0.222 N 
ATOM     35  H1  UNL     1      13.005  18.340  29.725  1.00  0.00     0.178 HD
BRANCH  34  36
HETATM   36  C3  UNL     1      15.072  18.921  29.410  1.00  0.00     0.164 C 
BRANCH  36  37
HETATM   37  C2  UNL     1      14.710  19.768  28.257  1.00  0.00    -0.017 C 
HETATM   38  C1  UNL     1      13.453  19.898  27.901  1.00  0.00     0.008 C 
ENDBRANCH  36  37
ENDBRANCH  34  36
ENDBRANCH   1  34
TORSDOF 14
ENDMDL
MODEL 5
REMARK VINA RESULT: -6.499751953      3.827      8.808
REMARK  14 active torsions:
REMARK  status: ('A' for Active; 'I' for Inactive)
REMARK    1  A    between atoms: C2_2  and  C3_3 
REMARK    2  A    between atoms: C3_3  and  N1_4 
REMARK    3  A    between atoms: N1_4  and  C4_6 
REMARK    4  A    between atoms: C5_9  and  N3_10 
REMARK    5  A    between atoms: N3_10  and  C6_12 
REMARK    6  A    between atoms: C6_12  and  C7_13 
REMARK    7  A    between atoms: C7_13  and  C8_14 
REMARK    8  A    between atoms: C8_14  and  O1_15 
REMARK    9  A    between atoms: C10_19  and  N5_20 
REMARK   10  A    between atoms: N5_20  and  C11_22 
REMARK   11  A    between atoms: N6_25  and  C14_26 
REMARK   12  A    between atoms: N7_27  and  C15_29 
REMARK   13  A    between atoms: C15_29  and  N8_31 
REMARK   14  A    between atoms: N8_31  and  C16_33 
ROOT
HETATM    1  C4  UNL     1      15.797  14.127  35.322  1.00  0.00     0.707 A 
HETATM    2  N2  UNL     1      16.752  13.733  34.466  1.00  0.00    -0.022 N 
ATOM      3  H2  UNL     1      17.139  12.793  34.552  1.00  0.00     0.203 HD
HETATM    4  C5  UNL     1      17.211  14.542  33.499  1.00  0.00     0.707 A 
HETATM    5  N4  UNL     1      16.703  15.781  33.384  1.00  0.00    -0.022 N 
ATOM      6  H4  UNL     1      17.052  16.397  32.650  1.00  0.00     0.203 HD
HETATM    7  C10 UNL     1      15.723  16.236  34.233  1.00  0.00     0.707 A 
HETATM    8  N9  UNL     1      15.301  15.392  35.177  1.00  0.00    -0.021 N 
ATOM      9  H9  UNL     1      14.574  15.706  35.821  1.00  0.00     0.203 HD
ENDROOT
BRANCH   7  10
HETATM   10  N5  UNL     1      15.258  17.393  34.115  1.00  0.00    -0.220 N 
ATOM     11  H5  UNL     1      15.546  18.015  34.870  1.00  0.00     0.178 HD
BRANCH  10  12
HETATM   12  C11 UNL     1      14.424  18.028  33.167  1.00  0.00     0.102 C 
HETATM   13  C12 UNL     1      15.095  19.216  32.525  1.00  0.00     0.045 C 
HETATM   14  C13 UNL     1      14.179  19.964  31.604  1.00  0.00     0.125 C 
HETATM   15  N6  UNL     1      13.662  19.022  30.631  1.00  0.00    -0.377 N 
HETATM   16  C18 UNL     1      13.687  17.602  30.798  1.00  0.00     0.125 C 
HETATM   17  C19 UNL     1      13.704  17.127  32.213  1.00  0.00     0.045 C 
BRANCH  15  18
HETATM   18  C14 UNL     1      13.101  19.591  29.446  1.00  0.00     0.180 C 
HETATM   19  N7  UNL     1      12.892  20.860  29.441  1.00  0.00    -0.330 N 
ATOM     20  H7  UNL     1      13.140  21.380  30.282  1.00  0.00     0.169 HD
BRANCH  19  21
HETATM   21  C15 UNL     1      12.350  21.586  28.365  1.00  0.00     0.172 C 
HETATM   22  S1  UNL     1      10.732  21.819  28.341  1.00  0.00    -0.041 SA
BRANCH  21  23
HETATM   23  N8  UNL     1      13.188  22.087  27.356  1.00  0.00    -0.367 N 
ATOM     24  H8  UNL     1      12.819  22.203  26.411  1.00  0.00     0.161 HD
BRANCH  23  25
HETATM   25  C16 UNL     1      14.552  22.437  27.625  1.00  0.00     0.117 C 
HETATM   26  C17 UNL     1      15.002  23.640  26.844  1.00  0.00     0.026 C 
ENDBRANCH  23  25
ENDBRANCH  21  23
ENDBRANCH  19  21
ENDBRANCH  15  18
ENDBRANCH  10  12
ENDBRANCH   7  10
BRANCH   4  27
HETATM   27  N3  UNL     1      18.120  14.175  32.680  1.00  0.00    -0.225 N 
ATOM     28  H3  UNL     1      18.918  13.640  33.021  1.00  0.00     0.177 HD
BRANCH  27  29
HETATM   29  C6  UNL     1      18.032  14.507  31.283  1.00  0.00     0.140 C 
BRANCH  29  30
HETATM   30  C7  UNL     1      19.365  15.113  30.865  1.00  0.00     0.046 C 
BRANCH  30  31
HETATM   31  C8  UNL     1      19.308  16.599  30.804  1.00  0.00     0.168 C 
BRANCH  31  32
HETATM   32  O1  UNL     1      19.149  17.131  32.064  1.00  0.00    -0.396 OA
HETATM   33  C9  UNL     1      18.844  18.470  32.118  1.00  0.00     0.201 C 
ENDBRANCH  31  32
ENDBRANCH  30  31
ENDBRANCH  29  30
ENDBRANCH  27  29
ENDBRANCH   4  27
BRANCH   1  34
HETATM   34  N1  UNL     1      15.338  13.370  36.259  1.00  0.00    -0.222 N 
ATOM     35  H1  UNL     1      15.788  12.486  36.495  1.00  0.00     0.178 HD
BRANCH  34  36
HETATM   36  C3  UNL     1      14.150  13.829  36.967  1.00  0.00     0.164 C 
BRANCH  36  37
HETATM   37  C2  UNL     1      14.023  13.185  38.290  1.00  0.00    -0.017 C 
HETATM   38  C1  UNL     1      14.019  13.914  39.382  1.00  0.00     0.008 C 
ENDBRANCH  36  37
ENDBRANCH  34  36
ENDBRANCH   1  34
TORSDOF 14
ENDMDL
