MODEL 1
REMARK VINA RESULT: -8.275240371      0.000      0.000
REMARK  13 active torsions:
REMARK  status: ('A' for Active; 'I' for Inactive)
REMARK    1  A    between atoms: C2_2  and  C3_3 
REMARK    2  A    between atoms: C3_3  and  C4_4 
REMARK    3  A    between atoms: C4_4  and  N1_5 
REMARK       I    between atoms: N1_5  and  C5_7 
REMARK    4  A    between atoms: N3_9  and  C6_11 
REMARK    5  A    between atoms: C6_11  and  C7_12 
REMARK    6  A    between atoms: C7_12  and  C8_13 
REMARK    7  A    between atoms: C8_13  and  C9_14 
REMARK    8  A    between atoms: N4_16  and  S1_17 
REMARK    9  A    between atoms: S1_17  and  N5_20 
REMARK   10  A    between atoms: C17_31  and  C18_32 
REMARK   11  A    between atoms: C18_32  and  C19_33 
REMARK   12  A    between atoms: C19_33  and  C20_34 
REMARK   13  A    between atoms: C20_34  and  N7_35 
ROOT
HETATM    1  C9  UNL     1      14.421  18.301  31.614  1.00  0.00     0.098 C 
HETATM    2  C10 UNL     1      15.391  17.918  30.583  1.00  0.00     0.167 C 
HETATM    3  N4  UNL     1      16.703  18.605  30.576  1.00  0.00    -0.221 N 
HETATM    4  C15 UNL     1      16.513  19.919  30.781  1.00  0.00    -0.001 C 
HETATM    5  C16 UNL     1      16.181  21.234  31.087  1.00  0.00     0.090 C 
HETATM    6  N6  UNL     1      17.133  22.033  31.356  1.00  0.00    -0.393 N 
ATOM      7  H61 UNL     1      16.889  22.998  31.581  1.00  0.00     0.156 HD
ATOM      8  H62 UNL     1      18.038  21.568  31.289  1.00  0.00     0.156 HD
HETATM    9  C17 UNL     1      14.815  21.937  31.188  1.00  0.00     0.144 C 
HETATM   10  N8  UNL     1      13.818  20.934  31.621  1.00  0.00    -0.350 N 
ATOM     11  H8  UNL     1      13.016  21.396  32.049  1.00  0.00     0.163 HD
HETATM   12  C21 UNL     1      13.630  19.509  31.623  1.00  0.00     0.224 C 
HETATM   13  O4  UNL     1      12.357  19.360  31.643  1.00  0.00    -0.273 OA
ENDROOT
BRANCH   1  14
HETATM   14  C8  UNL     1      13.415  17.120  31.612  1.00  0.00     0.017 C 
BRANCH  14  15
HETATM   15  C7  UNL     1      13.949  15.952  30.828  1.00  0.00     0.020 C 
BRANCH  15  16
HETATM   16  C6  UNL     1      13.472  14.693  31.553  1.00  0.00     0.122 C 
BRANCH  16  17
HETATM   17  N3  UNL     1      14.263  14.438  32.745  1.00  0.00    -0.365 N 
HETATM   18  C5  UNL     1      13.781  13.770  33.746  1.00  0.00     0.183 C 
HETATM   19  N1  UNL     1      14.594  13.550  34.882  1.00  0.00    -0.365 N 
HETATM   20  N2  UNL     1      12.461  13.255  33.727  1.00  0.00    -0.064 NA
ATOM     21  H1  UNL     1      15.328  12.841  34.863  1.00  0.00     0.162 HD
ATOM     22  H3  UNL     1      15.219  14.793  32.794  1.00  0.00     0.162 HD
BRANCH  19  23
HETATM   23  C4  UNL     1      14.371  14.345  36.071  1.00  0.00     0.122 C 
BRANCH  23  24
HETATM   24  C3  UNL     1      14.532  13.535  37.344  1.00  0.00     0.019 C 
BRANCH  24  25
HETATM   25  C2  UNL     1      13.546  12.368  37.220  1.00  0.00    -0.003 C 
HETATM   26  C1  UNL     1      12.178  12.889  37.525  1.00  0.00     0.005 C 
ENDBRANCH  24  25
ENDBRANCH  23  24
ENDBRANCH  19  23
ENDBRANCH  16  17
ENDBRANCH  15  16
ENDBRANCH  14  15
ENDBRANCH   1  14
BRANCH   3  27
HETATM   27  S1  UNL     1      18.007  17.735  31.124  1.00  0.00     0.333 S 
HETATM   28  O1  UNL     1      19.058  17.545  30.017  1.00  0.00    -0.181 OA
HETATM   29  O2  UNL     1      18.747  18.657  32.118  1.00  0.00    -0.181 OA
BRANCH  27  30
HETATM   30  N5  UNL     1      17.751  16.291  31.942  1.00  0.00    -0.269 N 
HETATM   31  C11 UNL     1      18.268  15.162  31.268  1.00  0.00     0.168 C 
HETATM   32  C12 UNL     1      17.643  13.861  31.751  1.00  0.00     0.189 C 
HETATM   33  O3  UNL     1      17.134  13.956  33.018  1.00  0.00    -0.385 OA
HETATM   34  C13 UNL     1      17.811  14.812  33.874  1.00  0.00     0.213 C 
HETATM   35  C14 UNL     1      17.828  16.240  33.342  1.00  0.00     0.103 C 
ENDBRANCH  27  30
ENDBRANCH   3  27
BRANCH   9  36
HETATM   36  C18 UNL     1      14.432  22.530  29.877  1.00  0.00     0.034 C 
BRANCH  36  37
HETATM   37  C19 UNL     1      14.470  21.521  28.766  1.00  0.00     0.029 C 
BRANCH  37  38
HETATM   38  C20 UNL     1      14.584  22.206  27.403  1.00  0.00     0.230 C 
BRANCH  38  39
HETATM   39  N7  UNL     1      15.614  23.220  27.535  1.00  0.00    -0.079 N 
ATOM     40  H73 UNL     1      15.287  24.071  27.993  1.00  0.00     0.274 HD
ATOM     41  H72 UNL     1      16.334  22.977  28.216  1.00  0.00     0.274 HD
ATOM     42  H71 UNL     1      15.983  23.383  26.599  1.00  0.00     0.274 HD
ENDBRANCH  38  39
ENDBRANCH  37  38
ENDBRANCH  36  37
ENDBRANCH   9  36
TORSDOF 13
ENDMDL
MODEL 2
REMARK VINA RESULT: -8.255928217      0.888      1.037
REMARK  13 active torsions:
REMARK  status: ('A' for Active; 'I' for Inactive)
REMARK    1  A    between atoms: C2_2  and  C3_3 
REMARK    2  A    between atoms: C3_3  and  C4_4 
REMARK    3  A    between atoms: C4_4  and  N1_5 
REMARK       I    between atoms: N1_5  and  C5_7 
REMARK    4  A    between atoms: N3_9  and  C6_11 
REMARK    5  A    between atoms: C6_11  and  C7_12 
REMARK    6  A    between atoms: C7_12  and  C8_13 
REMARK    7  A    between atoms: C8_13  and  C9_14 
REMARK    8  A    between atoms: N4_16  and  S1_17 
REMARK    9  A    between atoms: S1_17  and  N5_20 
REMARK   10  A    between atoms: C17_31  and  C18_32 
REMARK   11  A    between atoms: C18_32  and  C19_33 
REMARK   12  A    between atoms: C19_33  and  C20_34 
REMARK   13  A    between atoms: C20_34  and  N7_35 
ROOT
HETATM    1  C9  UNL     1      14.397  18.387  31.913  1.00  0.00     0.098 C 
HETATM    2  C10 UNL     1      15.369  17.874  30.943  1.00  0.00     0.167 C 
HETATM    3  N4  UNL     1      16.686  18.547  30.861  1.00  0.00    -0.221 N 
HETATM    4  C15 UNL     1      16.506  19.877  30.905  1.00  0.00    -0.001 C 
HETATM    5  C16 UNL     1      16.183  21.221  31.048  1.00  0.00     0.090 C 
HETATM    6  N6  UNL     1      17.140  22.041  31.224  1.00  0.00    -0.393 N 
ATOM      7  H61 UNL     1      16.903  23.027  31.329  1.00  0.00     0.156 HD
ATOM      8  H62 UNL     1      18.042  21.563  31.219  1.00  0.00     0.156 HD
HETATM    9  C17 UNL     1      14.823  21.942  31.054  1.00  0.00     0.144 C 
HETATM   10  N8  UNL     1      13.815  21.006  31.598  1.00  0.00    -0.350 N 
ATOM     11  H8  UNL     1      13.014  21.522  31.963  1.00  0.00     0.163 HD
HETATM   12  C21 UNL     1      13.615  19.593  31.771  1.00  0.00     0.224 C 
HETATM   13  O4  UNL     1      12.341  19.457  31.801  1.00  0.00    -0.273 OA
ENDROOT
BRANCH   1  14
HETATM   14  C8  UNL     1      13.381  17.221  32.048  1.00  0.00     0.017 C 
BRANCH  14  15
HETATM   15  C7  UNL     1      13.484  16.273  30.884  1.00  0.00     0.020 C 
BRANCH  15  16
HETATM   16  C6  UNL     1      13.200  14.877  31.440  1.00  0.00     0.122 C 
BRANCH  16  17
HETATM   17  N3  UNL     1      14.099  14.553  32.535  1.00  0.00    -0.365 N 
HETATM   18  C5  UNL     1      13.690  13.891  33.572  1.00  0.00     0.183 C 
HETATM   19  N1  UNL     1      14.606  13.601  34.609  1.00  0.00    -0.365 N 
HETATM   20  N2  UNL     1      12.348  13.451  33.688  1.00  0.00    -0.064 NA
ATOM     21  H1  UNL     1      15.291  12.853  34.500  1.00  0.00     0.162 HD
ATOM     22  H3  UNL     1      15.073  14.853  32.487  1.00  0.00     0.162 HD
BRANCH  19  23
HETATM   23  C4  UNL     1      14.558  14.380  35.828  1.00  0.00     0.122 C 
BRANCH  23  24
HETATM   24  C3  UNL     1      14.933  13.564  37.050  1.00  0.00     0.019 C 
BRANCH  24  25
HETATM   25  C2  UNL     1      13.609  13.077  37.647  1.00  0.00    -0.003 C 
HETATM   26  C1  UNL     1      13.754  13.063  39.135  1.00  0.00     0.005 C 
ENDBRANCH  24  25
ENDBRANCH  23  24
ENDBRANCH  19  23
ENDBRANCH  16  17
ENDBRANCH  15  16
ENDBRANCH  14  15
ENDBRANCH   1  14
BRANCH   3  27
HETATM   27  S1  UNL     1      17.980  17.740  31.518  1.00  0.00     0.333 S 
HETATM   28  O1  UNL     1      19.185  17.740  30.562  1.00  0.00    -0.181 OA
HETATM   29  O2  UNL     1      18.489  18.623  32.679  1.00  0.00    -0.181 OA
BRANCH  27  30
HETATM   30  N5  UNL     1      17.754  16.209  32.172  1.00  0.00    -0.269 N 
HETATM   31  C11 UNL     1      18.167  15.164  31.316  1.00  0.00     0.168 C 
HETATM   32  C12 UNL     1      17.545  13.826  31.693  1.00  0.00     0.189 C 
HETATM   33  O3  UNL     1      17.162  13.771  33.006  1.00  0.00    -0.385 OA
HETATM   34  C13 UNL     1      17.944  14.497  33.891  1.00  0.00     0.213 C 
HETATM   35  C14 UNL     1      17.959  15.980  33.540  1.00  0.00     0.103 C 
ENDBRANCH  27  30
ENDBRANCH   3  27
BRANCH   9  36
HETATM   36  C18 UNL     1      14.451  22.374  29.679  1.00  0.00     0.034 C 
BRANCH  36  37
HETATM   37  C19 UNL     1      13.983  21.228  28.831  1.00  0.00     0.029 C 
BRANCH  37  38
HETATM   38  C20 UNL     1      12.648  21.550  28.156  1.00  0.00     0.230 C 
BRANCH  38  39
HETATM   39  N7  UNL     1      11.609  21.171  29.095  1.00  0.00    -0.079 N 
ATOM     40  H73 UNL     1      11.385  20.176  29.071  1.00  0.00     0.274 HD
ATOM     41  H72 UNL     1      11.911  21.210  30.069  1.00  0.00     0.274 HD
ATOM     42  H71 UNL     1      10.807  21.769  28.897  1.00  0.00     0.274 HD
ENDBRANCH  38  39
ENDBRANCH  37  38
ENDBRANCH  36  37
ENDBRANCH   9  36
TORSDOF 13
ENDMDL
MODEL 3
REMARK VINA RESULT: -8.013236212      3.255      5.692
REMARK  13 active torsions:
REMARK  status: ('A' for Active; 'I' for Inactive)
REMARK    1  A    between atoms: C2_2  and  C3_3 
REMARK    2  A    between atoms: C3_3  and  C4_4 
REMARK    3  A    between atoms: C4_4  and  N1_5 
REMARK       I    between atoms: N1_5  and  C5_7 
REMARK    4  A    between atoms: N3_9  and  C6_11 
REMARK    5  A    between atoms: C6_11  and  C7_12 
REMARK    6  A    between atoms: C7_12  and  C8_13 
REMARK    7  A    between atoms: C8_13  and  C9_14 
REMARK    8  A    between atoms: N4_16  and  S1_17 
REMARK    9  A    between atoms: S1_17  and  N5_20 
REMARK   10  A    between atoms: C17_31  and  C18_32 
REMARK   11  A    between atoms: C18_32  and  C19_33 
REMARK   12  A    between atoms: C19_33  and  C20_34 
REMARK   13  A    between atoms: C20_34  and  N7_35 
ROOT
HETATM    1  C9  UNL     1      14.078  20.040  30.108  1.00  0.00     0.098 C 
HETATM    2  C10 UNL     1      13.962  19.375  31.409  1.00  0.00     0.167 C 
HETATM    3  N4  UNL     1      13.062  18.204  31.511  1.00  0.00    -0.221 N 
HETATM    4  C15 UNL     1      11.921  18.466  30.853  1.00  0.00    -0.001 C 
HETATM    5  C16 UNL     1      10.835  18.834  30.066  1.00  0.00     0.090 C 
HETATM    6  N6  UNL     1       9.976  17.937  29.793  1.00  0.00    -0.393 N 
ATOM      7  H61 UNL     1       9.180  18.207  29.216  1.00  0.00     0.156 HD
ATOM      8  H62 UNL     1      10.221  17.046  30.224  1.00  0.00     0.156 HD
HETATM    9  C17 UNL     1      10.465  20.179  29.415  1.00  0.00     0.144 C 
HETATM   10  N8  UNL     1      11.721  20.894  29.103  1.00  0.00    -0.350 N 
ATOM     11  H8  UNL     1      11.562  21.582  28.367  1.00  0.00     0.163 HD
HETATM   12  C21 UNL     1      13.097  20.919  29.516  1.00  0.00     0.224 C 
HETATM   13  O4  UNL     1      13.488  22.108  29.237  1.00  0.00    -0.273 OA
ENDROOT
BRANCH   1  14
HETATM   14  C8  UNL     1      15.382  20.870  30.248  1.00  0.00     0.017 C 
BRANCH  14  15
HETATM   15  C7  UNL     1      15.862  20.893  31.673  1.00  0.00     0.020 C 
BRANCH  15  16
HETATM   16  C6  UNL     1      17.273  20.305  31.661  1.00  0.00     0.122 C 
BRANCH  16  17
HETATM   17  N3  UNL     1      17.241  18.853  31.702  1.00  0.00    -0.365 N 
HETATM   18  C5  UNL     1      18.319  18.158  31.887  1.00  0.00     0.183 C 
HETATM   19  N1  UNL     1      18.232  16.747  31.919  1.00  0.00    -0.365 N 
HETATM   20  N2  UNL     1      19.581  18.779  32.061  1.00  0.00    -0.064 NA
ATOM     21  H1  UNL     1      17.875  16.269  32.747  1.00  0.00     0.162 HD
ATOM     22  H3  UNL     1      16.350  18.370  31.581  1.00  0.00     0.162 HD
BRANCH  19  23
HETATM   23  C4  UNL     1      18.655  15.990  30.760  1.00  0.00     0.122 C 
BRANCH  23  24
HETATM   24  C3  UNL     1      18.658  14.495  31.017  1.00  0.00     0.019 C 
BRANCH  24  25
HETATM   25  C2  UNL     1      17.401  14.215  31.848  1.00  0.00    -0.003 C 
HETATM   26  C1  UNL     1      16.416  13.515  30.968  1.00  0.00     0.005 C 
ENDBRANCH  24  25
ENDBRANCH  23  24
ENDBRANCH  19  23
ENDBRANCH  16  17
ENDBRANCH  15  16
ENDBRANCH  14  15
ENDBRANCH   1  14
BRANCH   3  27
HETATM   27  S1  UNL     1      13.783  16.711  31.608  1.00  0.00     0.333 S 
HETATM   28  O1  UNL     1      13.129  15.708  30.642  1.00  0.00    -0.181 OA
HETATM   29  O2  UNL     1      15.191  16.878  30.995  1.00  0.00    -0.181 OA
BRANCH  27  30
HETATM   30  N5  UNL     1      14.019  16.004  33.113  1.00  0.00    -0.269 N 
HETATM   31  C11 UNL     1      13.547  14.675  33.191  1.00  0.00     0.168 C 
HETATM   32  C12 UNL     1      13.333  14.219  34.628  1.00  0.00     0.189 C 
HETATM   33  O3  UNL     1      14.087  14.925  35.526  1.00  0.00    -0.385 OA
HETATM   34  C13 UNL     1      15.321  15.358  35.064  1.00  0.00     0.213 C 
HETATM   35  C14 UNL     1      15.179  16.272  33.854  1.00  0.00     0.103 C 
ENDBRANCH  27  30
ENDBRANCH   3  27
BRANCH   9  36
HETATM   36  C18 UNL     1       9.612  20.988  30.330  1.00  0.00     0.034 C 
BRANCH  36  37
HETATM   37  C19 UNL     1       8.149  20.726  30.121  1.00  0.00     0.029 C 
BRANCH  37  38
HETATM   38  C20 UNL     1       7.298  21.860  30.694  1.00  0.00     0.230 C 
BRANCH  38  39
HETATM   39  N7  UNL     1       6.716  22.553  29.560  1.00  0.00    -0.079 N 
ATOM     40  H73 UNL     1       6.232  23.413  29.817  1.00  0.00     0.274 HD
ATOM     41  H72 UNL     1       7.411  22.977  28.946  1.00  0.00     0.274 HD
ATOM     42  H71 UNL     1       6.115  21.879  29.085  1.00  0.00     0.274 HD
ENDBRANCH  38  39
ENDBRANCH  37  38
ENDBRANCH  36  37
ENDBRANCH   9  36
TORSDOF 13
ENDMDL
MODEL 4
REMARK VINA RESULT: -7.996858908      1.297      1.598
REMARK  13 active torsions:
REMARK  status: ('A' for Active; 'I' for Inactive)
REMARK    1  A    between atoms: C2_2  and  C3_3 
REMARK    2  A    between atoms: C3_3  and  C4_4 
REMARK    3  A    between atoms: C4_4  and  N1_5 
REMARK       I    between atoms: N1_5  and  C5_7 
REMARK    4  A    between atoms: N3_9  and  C6_11 
REMARK    5  A    between atoms: C6_11  and  C7_12 
REMARK    6  A    between atoms: C7_12  and  C8_13 
REMARK    7  A    between atoms: C8_13  and  C9_14 
REMARK    8  A    between atoms: N4_16  and  S1_17 
REMARK    9  A    between atoms: S1_17  and  N5_20 
REMARK   10  A    between atoms: C17_31  and  C18_32 
REMARK   11  A    between atoms: C18_32  and  C19_33 
REMARK   12  A    between atoms: C19_33  and  C20_34 
REMARK   13  A    between atoms: C20_34  and  N7_35 
ROOT
HETATM    1  C9  UNL     1      14.989  17.349  31.234  1.00  0.00     0.098 C 
HETATM    2  C10 UNL     1      16.128  17.126  30.339  1.00  0.00     0.167 C 
HETATM    3  N4  UNL     1      17.376  17.879  30.604  1.00  0.00    -0.221 N 
HETATM    4  C15 UNL     1      17.068  19.153  30.900  1.00  0.00    -0.001 C 
HETATM    5  C16 UNL     1      16.605  20.409  31.273  1.00  0.00     0.090 C 
HETATM    6  N6  UNL     1      17.448  21.225  31.763  1.00  0.00    -0.393 N 
ATOM      7  H61 UNL     1      17.107  22.147  32.037  1.00  0.00     0.156 HD
ATOM      8  H62 UNL     1      18.382  20.817  31.796  1.00  0.00     0.156 HD
HETATM    9  C17 UNL     1      15.195  21.025  31.223  1.00  0.00     0.144 C 
HETATM   10  N8  UNL     1      14.214  19.932  31.395  1.00  0.00    -0.350 N 
ATOM     11  H8  UNL     1      13.327  20.304  31.733  1.00  0.00     0.163 HD
HETATM   12  C21 UNL     1      14.125  18.507  31.233  1.00  0.00     0.224 C 
HETATM   13  O4  UNL     1      12.877  18.289  31.037  1.00  0.00    -0.273 OA
ENDROOT
BRANCH   1  14
HETATM   14  C8  UNL     1      14.078  16.123  30.961  1.00  0.00     0.017 C 
BRANCH  14  15
HETATM   15  C7  UNL     1      14.893  14.892  30.675  1.00  0.00     0.020 C 
BRANCH  15  16
HETATM   16  C6  UNL     1      15.067  14.170  32.011  1.00  0.00     0.122 C 
BRANCH  16  17
HETATM   17  N3  UNL     1      13.791  13.717  32.536  1.00  0.00    -0.365 N 
HETATM   18  C5  UNL     1      13.374  14.082  33.708  1.00  0.00     0.183 C 
HETATM   19  N1  UNL     1      12.123  13.612  34.171  1.00  0.00    -0.365 N 
HETATM   20  N2  UNL     1      14.141  14.941  34.533  1.00  0.00    -0.064 NA
ATOM     21  H1  UNL     1      11.256  14.021  33.822  1.00  0.00     0.162 HD
ATOM     22  H3  UNL     1      13.210  13.098  31.970  1.00  0.00     0.162 HD
BRANCH  19  23
HETATM   23  C4  UNL     1      12.091  12.544  35.148  1.00  0.00     0.122 C 
BRANCH  23  24
HETATM   24  C3  UNL     1      12.116  13.064  36.572  1.00  0.00     0.019 C 
BRANCH  24  25
HETATM   25  C2  UNL     1      13.315  12.384  37.241  1.00  0.00    -0.003 C 
HETATM   26  C1  UNL     1      14.200  13.453  37.795  1.00  0.00     0.005 C 
ENDBRANCH  24  25
ENDBRANCH  23  24
ENDBRANCH  19  23
ENDBRANCH  16  17
ENDBRANCH  15  16
ENDBRANCH  14  15
ENDBRANCH   1  14
BRANCH   3  27
HETATM   27  S1  UNL     1      18.638  17.027  31.267  1.00  0.00     0.333 S 
HETATM   28  O1  UNL     1      19.547  16.434  30.176  1.00  0.00    -0.181 OA
HETATM   29  O2  UNL     1      19.562  18.075  31.924  1.00  0.00    -0.181 OA
BRANCH  27  30
HETATM   30  N5  UNL     1      18.327  15.881  32.454  1.00  0.00    -0.269 N 
HETATM   31  C11 UNL     1      19.331  14.893  32.561  1.00  0.00     0.168 C 
HETATM   32  C12 UNL     1      18.839  13.641  33.274  1.00  0.00     0.189 C 
HETATM   33  O3  UNL     1      17.771  13.883  34.095  1.00  0.00    -0.385 OA
HETATM   34  C13 UNL     1      17.747  15.132  34.696  1.00  0.00     0.213 C 
HETATM   35  C14 UNL     1      17.720  16.252  33.664  1.00  0.00     0.103 C 
ENDBRANCH  27  30
ENDBRANCH   3  27
BRANCH   9  36
HETATM   36  C18 UNL     1      14.976  21.730  29.929  1.00  0.00     0.034 C 
BRANCH  36  37
HETATM   37  C19 UNL     1      14.553  20.792  28.837  1.00  0.00     0.029 C 
BRANCH  37  38
HETATM   38  C20 UNL     1      13.402  21.380  28.019  1.00  0.00     0.230 C 
BRANCH  38  39
HETATM   39  N7  UNL     1      12.246  21.410  28.894  1.00  0.00    -0.079 N 
ATOM     40  H73 UNL     1      12.014  22.346  29.226  1.00  0.00     0.274 HD
ATOM     41  H72 UNL     1      11.367  21.226  28.409  1.00  0.00     0.274 HD
ATOM     42  H71 UNL     1      12.435  20.750  29.649  1.00  0.00     0.274 HD
ENDBRANCH  38  39
ENDBRANCH  37  38
ENDBRANCH  36  37
ENDBRANCH   9  36
TORSDOF 13
ENDMDL
MODEL 5
REMARK VINA RESULT: -7.976986205      1.173      1.741
REMARK  13 active torsions:
REMARK  status: ('A' for Active; 'I' for Inactive)
REMARK    1  A    between atoms: C2_2  and  C3_3 
REMARK    2  A    between atoms: C3_3  and  C4_4 
REMARK    3  A    between atoms: C4_4  and  N1_5 
REMARK       I    between atoms: N1_5  and  C5_7 
REMARK    4  A    between atoms: N3_9  and  C6_11 
REMARK    5  A    between atoms: C6_11  and  C7_12 
REMARK    6  A    between atoms: C7_12  and  C8_13 
REMARK    7  A    between atoms: C8_13  and  C9_14 
REMARK    8  A    between atoms: N4_16  and  S1_17 
REMARK    9  A    between atoms: S1_17  and  N5_20 
REMARK   10  A    between atoms: C17_31  and  C18_32 
REMARK   11  A    between atoms: C18_32  and  C19_33 
REMARK   12  A    between atoms: C19_33  and  C20_34 
REMARK   13  A    between atoms: C20_34  and  N7_35 
ROOT
HETATM    1  C9  UNL     1      14.509  18.243  32.071  1.00  0.00     0.098 C 
HETATM    2  C10 UNL     1      15.588  17.760  31.205  1.00  0.00     0.167 C 
HETATM    3  N4  UNL     1      16.844  18.544  31.161  1.00  0.00    -0.221 N 
HETATM    4  C15 UNL     1      16.546  19.852  31.098  1.00  0.00    -0.001 C 
HETATM    5  C16 UNL     1      16.098  21.167  31.125  1.00  0.00     0.090 C 
HETATM    6  N6  UNL     1      16.965  22.081  31.304  1.00  0.00    -0.393 N 
ATOM      7  H61 UNL     1      16.635  23.046  31.323  1.00  0.00     0.156 HD
ATOM      8  H62 UNL     1      17.903  21.689  31.391  1.00  0.00     0.156 HD
HETATM    9  C17 UNL     1      14.683  21.759  30.993  1.00  0.00     0.144 C 
HETATM   10  N8  UNL     1      13.725  20.771  31.535  1.00  0.00    -0.350 N 
ATOM     11  H8  UNL     1      12.858  21.234  31.810  1.00  0.00     0.163 HD
HETATM   12  C21 UNL     1      13.637  19.360  31.795  1.00  0.00     0.224 C 
HETATM   13  O4  UNL     1      12.381  19.110  31.752  1.00  0.00    -0.273 OA
ENDROOT
BRANCH   1  14
HETATM   14  C8  UNL     1      13.592  17.000  32.222  1.00  0.00     0.017 C 
BRANCH  14  15
HETATM   15  C7  UNL     1      14.142  15.823  31.465  1.00  0.00     0.020 C 
BRANCH  15  16
HETATM   16  C6  UNL     1      13.105  14.706  31.591  1.00  0.00     0.122 C 
BRANCH  16  17
HETATM   17  N3  UNL     1      13.296  13.946  32.815  1.00  0.00    -0.365 N 
HETATM   18  C5  UNL     1      12.317  13.303  33.370  1.00  0.00     0.183 C 
HETATM   19  N1  UNL     1      12.556  12.579  34.561  1.00  0.00    -0.365 N 
HETATM   20  N2  UNL     1      11.015  13.309  32.811  1.00  0.00    -0.064 NA
ATOM     21  H1  UNL     1      13.028  11.675  34.530  1.00  0.00     0.162 HD
ATOM     22  H3  UNL     1      14.220  13.918  33.247  1.00  0.00     0.162 HD
BRANCH  19  23
HETATM   23  C4  UNL     1      12.121  13.137  35.824  1.00  0.00     0.122 C 
BRANCH  23  24
HETATM   24  C3  UNL     1      13.216  13.110  36.873  1.00  0.00     0.019 C 
BRANCH  24  25
HETATM   25  C2  UNL     1      14.283  14.095  36.384  1.00  0.00    -0.003 C 
HETATM   26  C1  UNL     1      15.536  13.323  36.126  1.00  0.00     0.005 C 
ENDBRANCH  24  25
ENDBRANCH  23  24
ENDBRANCH  19  23
ENDBRANCH  16  17
ENDBRANCH  15  16
ENDBRANCH  14  15
ENDBRANCH   1  14
BRANCH   3  27
HETATM   27  S1  UNL     1      18.154  17.903  31.955  1.00  0.00     0.333 S 
HETATM   28  O1  UNL     1      19.477  18.367  31.320  1.00  0.00    -0.181 OA
HETATM   29  O2  UNL     1      18.198  18.597  33.334  1.00  0.00    -0.181 OA
BRANCH  27  30
HETATM   30  N5  UNL     1      18.204  16.254  32.270  1.00  0.00    -0.269 N 
HETATM   31  C11 UNL     1      17.710  15.909  33.548  1.00  0.00     0.168 C 
HETATM   32  C12 UNL     1      18.180  14.533  33.998  1.00  0.00     0.189 C 
HETATM   33  O3  UNL     1      18.519  13.719  32.951  1.00  0.00    -0.385 OA
HETATM   34  C13 UNL     1      17.791  13.905  31.786  1.00  0.00     0.213 C 
HETATM   35  C14 UNL     1      17.938  15.325  31.253  1.00  0.00     0.103 C 
ENDBRANCH  27  30
ENDBRANCH   3  27
BRANCH   9  36
HETATM   36  C18 UNL     1      14.372  22.066  29.569  1.00  0.00     0.034 C 
BRANCH  36  37
HETATM   37  C19 UNL     1      13.760  20.895  28.857  1.00  0.00     0.029 C 
BRANCH  37  38
HETATM   38  C20 UNL     1      12.420  21.273  28.224  1.00  0.00     0.230 C 
BRANCH  38  39
HETATM   39  N7  UNL     1      11.405  21.032  29.232  1.00  0.00    -0.079 N 
ATOM     40  H73 UNL     1      11.612  20.233  29.831  1.00  0.00     0.274 HD
ATOM     41  H72 UNL     1      11.388  21.741  29.965  1.00  0.00     0.274 HD
ATOM     42  H71 UNL     1      10.518  20.944  28.736  1.00  0.00     0.274 HD
ENDBRANCH  38  39
ENDBRANCH  37  38
ENDBRANCH  36  37
ENDBRANCH   9  36
TORSDOF 13
ENDMDL
