MODEL 1
REMARK VINA RESULT: -9.782950645      0.000      0.000
REMARK  16 active torsions:
REMARK  status: ('A' for Active; 'I' for Inactive)
REMARK    1  A    between atoms: C2_2  and  C3_3 
REMARK    2  A    between atoms: C6_6  and  C7_7 
REMARK    3  A    between atoms: C7_7  and  C8_8 
REMARK    4  A    between atoms: C8_8  and  N1_9 
REMARK    5  A    between atoms: C8_8  and  C14_27 
REMARK       I    between atoms: N1_9  and  C9_11 
REMARK    6  A    between atoms: C9_11  and  C10_13 
REMARK    7  A    between atoms: C10_13  and  N2_14 
REMARK    8  A    between atoms: C10_13  and  C11_18 
REMARK    9  A    between atoms: C11_18  and  C12_19 
REMARK       I    between atoms: C14_27  and  N6_29 
REMARK   10  A    between atoms: N6_29  and  C16_31 
REMARK   11  A    between atoms: C16_31  and  C17_32 
REMARK   12  A    between atoms: C23_38  and  C24_39 
REMARK   13  A    between atoms: C24_39  and  C25_40 
REMARK   14  A    between atoms: C25_40  and  C26_41 
REMARK   15  A    between atoms: C26_41  and  O3_42 
REMARK   16  A    between atoms: C26_41  and  O4_44 
ROOT
HETATM    1  C8  UNL     1      14.619  17.568  32.098  1.00  0.00     0.201 C 
ENDROOT
BRANCH   1   2
HETATM    2  C7  UNL     1      14.038  18.871  32.391  1.00  0.00     0.021 C 
BRANCH   2   3
HETATM    3  C6  UNL     1      13.004  19.514  31.615  1.00  0.00    -0.011 A 
HETATM    4  C5  UNL     1      11.735  19.416  32.131  1.00  0.00     0.015 A 
HETATM    5  C4  UNL     1      10.571  19.982  31.500  1.00  0.00     0.026 A 
HETATM    6  C3  UNL     1      10.611  20.641  30.361  1.00  0.00     0.009 A 
HETATM    7  N7  UNL     1      11.878  20.779  29.747  1.00  0.00    -0.359 N 
HETATM    8  C23 UNL     1      13.056  20.218  30.367  1.00  0.00     0.038 A 
ATOM      9  H7  UNL     1      11.960  21.279  28.861  1.00  0.00     0.166 HD
BRANCH   6  10
HETATM   10  C2  UNL     1       9.368  21.217  29.740  1.00  0.00     0.052 C 
HETATM   11  C1  UNL     1       8.347  21.535  30.822  1.00  0.00     0.011 C 
ENDBRANCH   6  10
BRANCH   8  12
HETATM   12  C24 UNL     1      14.182  20.240  29.664  1.00  0.00     0.008 C 
BRANCH  12  13
HETATM   13  C25 UNL     1      15.293  21.162  29.909  1.00  0.00     0.089 C 
BRANCH  13  14
HETATM   14  C26 UNL     1      15.030  22.333  30.789  1.00  0.00     0.257 C 
BRANCH  14  15
HETATM   15  O3  UNL     1      14.505  23.428  30.118  1.00  0.00    -0.371 OA
ATOM     16  H3  UNL     1      14.540  24.235  30.619  1.00  0.00     0.212 HD
ENDBRANCH  14  15
BRANCH  14  17
HETATM   17  O4  UNL     1      16.101  22.650  31.623  1.00  0.00    -0.371 OA
ATOM     18  H4  UNL     1      16.072  23.541  31.954  1.00  0.00     0.212 HD
ENDBRANCH  14  17
ENDBRANCH  13  14
ENDBRANCH  12  13
ENDBRANCH   8  12
ENDBRANCH   2   3
ENDBRANCH   1   2
BRANCH   1  19
HETATM   19  N1  UNL     1      16.026  17.378  32.233  1.00  0.00    -0.343 N 
HETATM   20  C9  UNL     1      16.763  17.256  31.003  1.00  0.00     0.249 C 
HETATM   21  O1  UNL     1      16.163  17.343  29.884  1.00  0.00    -0.271 OA
ATOM     22  H1  UNL     1      16.482  17.332  33.144  1.00  0.00     0.163 HD
BRANCH  20  23
HETATM   23  C10 UNL     1      18.207  17.028  30.995  1.00  0.00     0.281 C 
BRANCH  23  24
HETATM   24  N2  UNL     1      18.755  17.757  29.878  1.00  0.00    -0.066 N 
ATOM     25  H23 UNL     1      19.085  17.148  29.128  1.00  0.00     0.275 HD
ATOM     26  H22 UNL     1      18.044  18.256  29.342  1.00  0.00     0.275 HD
ATOM     27  H21 UNL     1      19.484  18.371  30.240  1.00  0.00     0.275 HD
ENDBRANCH  23  24
BRANCH  23  28
HETATM   28  C11 UNL     1      18.475  15.560  30.810  1.00  0.00     0.120 C 
BRANCH  28  29
HETATM   29  C12 UNL     1      18.889  14.842  32.033  1.00  0.00     0.099 A 
HETATM   30  N3  UNL     1      18.064  14.532  33.076  1.00  0.00    -0.340 N 
HETATM   31  C13 UNL     1      18.757  13.879  33.997  1.00  0.00     0.198 A 
ATOM     32  H3  UNL     1      17.073  14.767  33.136  1.00  0.00     0.168 HD
HETATM   33  N4  UNL     1      20.022  13.759  33.571  1.00  0.00    -0.295 N 
HETATM   34  N5  UNL     1      20.077  14.336  32.405  1.00  0.00    -0.288 N 
ATOM     35  H4  UNL     1      20.790  13.303  34.063  1.00  0.00     0.187 HD
ATOM     36  H5  UNL     1      20.924  14.397  31.840  1.00  0.00     0.188 HD
ENDBRANCH  28  29
ENDBRANCH  23  28
ENDBRANCH  20  23
ENDBRANCH   1  19
BRANCH   1  37
HETATM   37  C14 UNL     1      13.903  16.456  32.849  1.00  0.00     0.246 C 
HETATM   38  O2  UNL     1      13.359  16.792  33.924  1.00  0.00    -0.271 OA
HETATM   39  N6  UNL     1      13.821  15.133  32.428  1.00  0.00    -0.350 N 
HETATM   40  C15 UNL     1      14.430  14.528  31.267  1.00  0.00     0.153 C 
BRANCH  39  41
HETATM   41  C16 UNL     1      12.998  14.184  33.209  1.00  0.00     0.164 C 
BRANCH  41  42
HETATM   42  C17 UNL     1      13.673  13.853  34.495  1.00  0.00    -0.040 A 
HETATM   43  C18 UNL     1      12.881  13.686  35.638  1.00  0.00     0.009 A 
HETATM   44  C19 UNL     1      13.446  13.384  36.853  1.00  0.00     0.001 A 
HETATM   45  C20 UNL     1      14.826  13.229  37.004  1.00  0.00     0.000 A 
HETATM   46  C21 UNL     1      15.594  13.395  35.874  1.00  0.00     0.001 A 
HETATM   47  C22 UNL     1      15.022  13.703  34.638  1.00  0.00     0.009 A 
ENDBRANCH  41  42
ENDBRANCH  39  41
ENDBRANCH   1  37
TORSDOF 16
ENDMDL
MODEL 2
REMARK VINA RESULT: -9.569101453      2.591      6.635
REMARK  16 active torsions:
REMARK  status: ('A' for Active; 'I' for Inactive)
REMARK    1  A    between atoms: C2_2  and  C3_3 
REMARK    2  A    between atoms: C6_6  and  C7_7 
REMARK    3  A    between atoms: C7_7  and  C8_8 
REMARK    4  A    between atoms: C8_8  and  N1_9 
REMARK    5  A    between atoms: C8_8  and  C14_27 
REMARK       I    between atoms: N1_9  and  C9_11 
REMARK    6  A    between atoms: C9_11  and  C10_13 
REMARK    7  A    between atoms: C10_13  and  N2_14 
REMARK    8  A    between atoms: C10_13  and  C11_18 
REMARK    9  A    between atoms: C11_18  and  C12_19 
REMARK       I    between atoms: C14_27  and  N6_29 
REMARK   10  A    between atoms: N6_29  and  C16_31 
REMARK   11  A    between atoms: C16_31  and  C17_32 
REMARK   12  A    between atoms: C23_38  and  C24_39 
REMARK   13  A    between atoms: C24_39  and  C25_40 
REMARK   14  A    between atoms: C25_40  and  C26_41 
REMARK   15  A    between atoms: C26_41  and  O3_42 
REMARK   16  A    between atoms: C26_41  and  O4_44 
ROOT
HETATM    1  C8  UNL     1      13.817  17.786  31.196  1.00  0.00     0.201 C 
ENDROOT
BRANCH   1   2
HETATM    2  C7  UNL     1      14.951  18.343  30.471  1.00  0.00     0.021 C 
BRANCH   2   3
HETATM    3  C6  UNL     1      15.017  19.679  29.928  1.00  0.00    -0.011 A 
HETATM    4  C5  UNL     1      14.568  19.812  28.637  1.00  0.00     0.015 A 
HETATM    5  C4  UNL     1      14.562  21.060  27.919  1.00  0.00     0.026 A 
HETATM    6  C3  UNL     1      14.996  22.193  28.430  1.00  0.00     0.009 A 
HETATM    7  N7  UNL     1      15.493  22.148  29.753  1.00  0.00    -0.359 N 
HETATM    8  C23 UNL     1      15.506  20.905  30.489  1.00  0.00     0.038 A 
ATOM      9  H7  UNL     1      15.845  23.000  30.191  1.00  0.00     0.166 HD
BRANCH   6  10
HETATM   10  C2  UNL     1      14.969  23.474  27.641  1.00  0.00     0.052 C 
HETATM   11  C1  UNL     1      14.970  23.166  26.151  1.00  0.00     0.011 C 
ENDBRANCH   6  10
BRANCH   8  12
HETATM   12  C24 UNL     1      16.132  20.897  31.658  1.00  0.00     0.008 C 
BRANCH  12  13
HETATM   13  C25 UNL     1      17.583  20.777  31.819  1.00  0.00     0.089 C 
BRANCH  13  14
HETATM   14  C26 UNL     1      18.081  19.877  32.894  1.00  0.00     0.257 C 
BRANCH  14  15
HETATM   15  O3  UNL     1      18.307  20.520  34.102  1.00  0.00    -0.371 OA
ATOM     16  H3  UNL     1      19.022  20.148  34.605  1.00  0.00     0.212 HD
ENDBRANCH  14  15
BRANCH  14  17
HETATM   17  O4  UNL     1      19.139  19.063  32.489  1.00  0.00    -0.371 OA
ATOM     18  H4  UNL     1      19.983  19.499  32.517  1.00  0.00     0.212 HD
ENDBRANCH  14  17
ENDBRANCH  13  14
ENDBRANCH  12  13
ENDBRANCH   8  12
ENDBRANCH   2   3
ENDBRANCH   1   2
BRANCH   1  19
HETATM   19  N1  UNL     1      12.504  17.915  30.655  1.00  0.00    -0.343 N 
HETATM   20  C9  UNL     1      11.731  19.026  31.144  1.00  0.00     0.249 C 
HETATM   21  O1  UNL     1      12.234  19.836  31.988  1.00  0.00    -0.271 OA
ATOM     22  H1  UNL     1      12.136  17.261  29.965  1.00  0.00     0.163 HD
BRANCH  20  23
HETATM   23  C10 UNL     1      10.359  19.259  30.697  1.00  0.00     0.281 C 
BRANCH  23  24
HETATM   24  N2  UNL     1      10.025  18.217  29.758  1.00  0.00    -0.066 N 
ATOM     25  H23 UNL     1       9.907  17.305  30.202  1.00  0.00     0.275 HD
ATOM     26  H22 UNL     1       9.079  18.306  29.385  1.00  0.00     0.275 HD
ATOM     27  H21 UNL     1      10.741  18.216  29.032  1.00  0.00     0.275 HD
ENDBRANCH  23  24
BRANCH  23  28
HETATM   28  C11 UNL     1      10.284  20.592  30.007  1.00  0.00     0.120 C 
BRANCH  28  29
HETATM   29  C12 UNL     1       8.960  21.248  30.057  1.00  0.00     0.099 A 
HETATM   30  N3  UNL     1       8.235  21.461  31.194  1.00  0.00    -0.340 N 
HETATM   31  C13 UNL     1       7.108  22.081  30.880  1.00  0.00     0.198 A 
ATOM     32  H3  UNL     1       8.516  21.185  32.135  1.00  0.00     0.168 HD
HETATM   33  N4  UNL     1       7.086  22.275  29.553  1.00  0.00    -0.295 N 
HETATM   34  N5  UNL     1       8.194  21.774  29.087  1.00  0.00    -0.288 N 
ATOM     35  H4  UNL     1       6.348  22.728  29.015  1.00  0.00     0.187 HD
ATOM     36  H5  UNL     1       8.450  21.780  28.100  1.00  0.00     0.188 HD
ENDBRANCH  28  29
ENDBRANCH  23  28
ENDBRANCH  20  23
ENDBRANCH   1  19
BRANCH   1  37
HETATM   37  C14 UNL     1      14.052  16.330  31.566  1.00  0.00     0.246 C 
HETATM   38  O2  UNL     1      13.311  15.499  30.996  1.00  0.00    -0.271 OA
HETATM   39  N6  UNL     1      15.008  15.880  32.472  1.00  0.00    -0.350 N 
HETATM   40  C15 UNL     1      15.908  16.668  33.281  1.00  0.00     0.153 C 
BRANCH  39  41
HETATM   41  C16 UNL     1      15.194  14.424  32.651  1.00  0.00     0.164 C 
BRANCH  41  42
HETATM   42  C17 UNL     1      14.851  14.028  34.046  1.00  0.00    -0.040 A 
HETATM   43  C18 UNL     1      13.508  14.086  34.442  1.00  0.00     0.009 A 
HETATM   44  C19 UNL     1      13.130  13.737  35.715  1.00  0.00     0.001 A 
HETATM   45  C20 UNL     1      14.059  13.310  36.668  1.00  0.00     0.000 A 
HETATM   46  C21 UNL     1      15.374  13.256  36.266  1.00  0.00     0.001 A 
HETATM   47  C22 UNL     1      15.762  13.612  34.973  1.00  0.00     0.009 A 
ENDBRANCH  41  42
ENDBRANCH  39  41
ENDBRANCH   1  37
TORSDOF 16
ENDMDL
MODEL 3
REMARK VINA RESULT: -9.479167900      2.849      6.889
REMARK  16 active torsions:
REMARK  status: ('A' for Active; 'I' for Inactive)
REMARK    1  A    between atoms: C2_2  and  C3_3 
REMARK    2  A    between atoms: C6_6  and  C7_7 
REMARK    3  A    between atoms: C7_7  and  C8_8 
REMARK    4  A    between atoms: C8_8  and  N1_9 
REMARK    5  A    between atoms: C8_8  and  C14_27 
REMARK       I    between atoms: N1_9  and  C9_11 
REMARK    6  A    between atoms: C9_11  and  C10_13 
REMARK    7  A    between atoms: C10_13  and  N2_14 
REMARK    8  A    between atoms: C10_13  and  C11_18 
REMARK    9  A    between atoms: C11_18  and  C12_19 
REMARK       I    between atoms: C14_27  and  N6_29 
REMARK   10  A    between atoms: N6_29  and  C16_31 
REMARK   11  A    between atoms: C16_31  and  C17_32 
REMARK   12  A    between atoms: C23_38  and  C24_39 
REMARK   13  A    between atoms: C24_39  and  C25_40 
REMARK   14  A    between atoms: C25_40  and  C26_41 
REMARK   15  A    between atoms: C26_41  and  O3_42 
REMARK   16  A    between atoms: C26_41  and  O4_44 
ROOT
HETATM    1  C8  UNL     1      13.608  17.791  31.208  1.00  0.00     0.201 C 
ENDROOT
BRANCH   1   2
HETATM    2  C7  UNL     1      14.779  18.307  30.512  1.00  0.00     0.021 C 
BRANCH   2   3
HETATM    3  C6  UNL     1      14.901  19.637  29.963  1.00  0.00    -0.011 A 
HETATM    4  C5  UNL     1      14.444  19.785  28.676  1.00  0.00     0.015 A 
HETATM    5  C4  UNL     1      14.490  21.030  27.952  1.00  0.00     0.026 A 
HETATM    6  C3  UNL     1      14.981  22.144  28.454  1.00  0.00     0.009 A 
HETATM    7  N7  UNL     1      15.489  22.081  29.772  1.00  0.00    -0.359 N 
HETATM    8  C23 UNL     1      15.452  20.841  30.513  1.00  0.00     0.038 A 
ATOM      9  H7  UNL     1      15.885  22.917  30.203  1.00  0.00     0.166 HD
BRANCH   6  10
HETATM   10  C2  UNL     1      15.005  23.421  27.660  1.00  0.00     0.052 C 
HETATM   11  C1  UNL     1      14.963  23.108  26.172  1.00  0.00     0.011 C 
ENDBRANCH   6  10
BRANCH   8  12
HETATM   12  C24 UNL     1      16.089  20.809  31.676  1.00  0.00     0.008 C 
BRANCH  12  13
HETATM   13  C25 UNL     1      17.546  20.758  31.820  1.00  0.00     0.089 C 
BRANCH  13  14
HETATM   14  C26 UNL     1      18.101  19.859  32.868  1.00  0.00     0.257 C 
BRANCH  14  15
HETATM   15  O3  UNL     1      18.280  20.478  34.097  1.00  0.00    -0.371 OA
ATOM     16  H3  UNL     1      19.185  20.500  34.385  1.00  0.00     0.212 HD
ENDBRANCH  14  15
BRANCH  14  17
HETATM   17  O4  UNL     1      19.211  19.131  32.443  1.00  0.00    -0.371 OA
ATOM     18  H4  UNL     1      20.025  19.619  32.494  1.00  0.00     0.212 HD
ENDBRANCH  14  17
ENDBRANCH  13  14
ENDBRANCH  12  13
ENDBRANCH   8  12
ENDBRANCH   2   3
ENDBRANCH   1   2
BRANCH   1  19
HETATM   19  N1  UNL     1      12.329  17.855  30.578  1.00  0.00    -0.343 N 
HETATM   20  C9  UNL     1      11.474  18.931  31.004  1.00  0.00     0.249 C 
HETATM   21  O1  UNL     1      11.880  19.768  31.874  1.00  0.00    -0.271 OA
ATOM     22  H1  UNL     1      12.040  17.181  29.871  1.00  0.00     0.163 HD
BRANCH  20  23
HETATM   23  C10 UNL     1      10.126  19.097  30.464  1.00  0.00     0.281 C 
BRANCH  23  24
HETATM   24  N2  UNL     1       9.882  17.999  29.561  1.00  0.00    -0.066 N 
ATOM     25  H23 UNL     1      10.126  18.217  28.594  1.00  0.00     0.275 HD
ATOM     26  H22 UNL     1      10.533  17.225  29.692  1.00  0.00     0.275 HD
ATOM     27  H21 UNL     1       8.906  17.722  29.672  1.00  0.00     0.275 HD
ENDBRANCH  23  24
BRANCH  23  28
HETATM   28  C11 UNL     1      10.055  20.392  29.703  1.00  0.00     0.120 C 
BRANCH  28  29
HETATM   29  C12 UNL     1       8.811  21.165  29.901  1.00  0.00     0.099 A 
HETATM   30  N3  UNL     1       8.255  21.455  31.114  1.00  0.00    -0.340 N 
HETATM   31  C13 UNL     1       7.157  22.172  30.927  1.00  0.00     0.198 A 
ATOM     32  H3  UNL     1       8.626  21.166  32.019  1.00  0.00     0.168 HD
HETATM   33  N4  UNL     1       6.988  22.352  29.609  1.00  0.00    -0.295 N 
HETATM   34  N5  UNL     1       7.980  21.748  29.022  1.00  0.00    -0.288 N 
ATOM     35  H4  UNL     1       6.230  22.864  29.157  1.00  0.00     0.187 HD
ATOM     36  H5  UNL     1       8.110  21.720  28.011  1.00  0.00     0.188 HD
ENDBRANCH  28  29
ENDBRANCH  23  28
ENDBRANCH  20  23
ENDBRANCH   1  19
BRANCH   1  37
HETATM   37  C14 UNL     1      13.835  16.372  31.706  1.00  0.00     0.246 C 
HETATM   38  O2  UNL     1      13.710  15.470  30.849  1.00  0.00    -0.271 OA
HETATM   39  N6  UNL     1      14.161  16.029  33.015  1.00  0.00    -0.350 N 
HETATM   40  C15 UNL     1      14.284  16.899  34.160  1.00  0.00     0.153 C 
BRANCH  39  41
HETATM   41  C16 UNL     1      14.459  14.614  33.329  1.00  0.00     0.164 C 
BRANCH  41  42
HETATM   42  C17 UNL     1      15.921  14.357  33.209  1.00  0.00    -0.040 A 
HETATM   43  C18 UNL     1      16.702  14.402  34.372  1.00  0.00     0.009 A 
HETATM   44  C19 UNL     1      18.056  14.177  34.325  1.00  0.00     0.001 A 
HETATM   45  C20 UNL     1      18.713  13.892  33.125  1.00  0.00     0.000 A 
HETATM   46  C21 UNL     1      17.936  13.849  31.990  1.00  0.00     0.001 A 
HETATM   47  C22 UNL     1      16.559  14.079  32.035  1.00  0.00     0.009 A 
ENDBRANCH  41  42
ENDBRANCH  39  41
ENDBRANCH   1  37
TORSDOF 16
ENDMDL
MODEL 4
REMARK VINA RESULT: -9.438768735      1.492      1.935
REMARK  16 active torsions:
REMARK  status: ('A' for Active; 'I' for Inactive)
REMARK    1  A    between atoms: C2_2  and  C3_3 
REMARK    2  A    between atoms: C6_6  and  C7_7 
REMARK    3  A    between atoms: C7_7  and  C8_8 
REMARK    4  A    between atoms: C8_8  and  N1_9 
REMARK    5  A    between atoms: C8_8  and  C14_27 
REMARK       I    between atoms: N1_9  and  C9_11 
REMARK    6  A    between atoms: C9_11  and  C10_13 
REMARK    7  A    between atoms: C10_13  and  N2_14 
REMARK    8  A    between atoms: C10_13  and  C11_18 
REMARK    9  A    between atoms: C11_18  and  C12_19 
REMARK       I    between atoms: C14_27  and  N6_29 
REMARK   10  A    between atoms: N6_29  and  C16_31 
REMARK   11  A    between atoms: C16_31  and  C17_32 
REMARK   12  A    between atoms: C23_38  and  C24_39 
REMARK   13  A    between atoms: C24_39  and  C25_40 
REMARK   14  A    between atoms: C25_40  and  C26_41 
REMARK   15  A    between atoms: C26_41  and  O3_42 
REMARK   16  A    between atoms: C26_41  and  O4_44 
ROOT
HETATM    1  C8  UNL     1      14.464  18.561  32.086  1.00  0.00     0.201 C 
ENDROOT
BRANCH   1   2
HETATM    2  C7  UNL     1      13.401  19.556  32.046  1.00  0.00     0.021 C 
BRANCH   2   3
HETATM    3  C6  UNL     1      12.506  19.773  30.934  1.00  0.00    -0.011 A 
HETATM    4  C5  UNL     1      11.176  19.561  31.202  1.00  0.00     0.015 A 
HETATM    5  C4  UNL     1      10.130  19.715  30.222  1.00  0.00     0.026 A 
HETATM    6  C3  UNL     1      10.353  20.067  28.973  1.00  0.00     0.009 A 
HETATM    7  N7  UNL     1      11.699  20.292  28.603  1.00  0.00    -0.359 N 
HETATM    8  C23 UNL     1      12.760  20.142  29.572  1.00  0.00     0.038 A 
ATOM      9  H7  UNL     1      11.922  20.562  27.645  1.00  0.00     0.166 HD
BRANCH   6  10
HETATM   10  C2  UNL     1       9.228  20.216  27.986  1.00  0.00     0.052 C 
HETATM   11  C1  UNL     1       8.785  18.847  27.492  1.00  0.00     0.011 C 
ENDBRANCH   6  10
BRANCH   8  12
HETATM   12  C24 UNL     1      14.007  20.207  29.124  1.00  0.00     0.008 C 
BRANCH  12  13
HETATM   13  C25 UNL     1      14.780  21.446  29.005  1.00  0.00     0.089 C 
BRANCH  13  14
HETATM   14  C26 UNL     1      15.011  22.231  30.248  1.00  0.00     0.257 C 
BRANCH  14  15
HETATM   15  O3  UNL     1      14.525  23.529  30.187  1.00  0.00    -0.371 OA
ATOM     16  H3  UNL     1      13.922  23.743  30.890  1.00  0.00     0.212 HD
ENDBRANCH  14  15
BRANCH  14  17
HETATM   17  O4  UNL     1      16.321  22.148  30.719  1.00  0.00    -0.371 OA
ATOM     18  H4  UNL     1      16.435  22.516  31.587  1.00  0.00     0.212 HD
ENDBRANCH  14  17
ENDBRANCH  13  14
ENDBRANCH  12  13
ENDBRANCH   8  12
ENDBRANCH   2   3
ENDBRANCH   1   2
BRANCH   1  19
HETATM   19  N1  UNL     1      15.688  18.864  32.753  1.00  0.00    -0.343 N 
HETATM   20  C9  UNL     1      16.836  19.046  31.905  1.00  0.00     0.249 C 
HETATM   21  O1  UNL     1      16.720  18.960  30.640  1.00  0.00    -0.271 OA
ATOM     22  H1  UNL     1      15.745  18.946  33.767  1.00  0.00     0.163 HD
BRANCH  20  23
HETATM   23  C10 UNL     1      18.159  19.331  32.458  1.00  0.00     0.281 C 
BRANCH  23  24
HETATM   24  N2  UNL     1      18.368  20.755  32.372  1.00  0.00    -0.066 N 
ATOM     25  H23 UNL     1      17.607  21.295  32.785  1.00  0.00     0.275 HD
ATOM     26  H22 UNL     1      19.114  21.085  32.985  1.00  0.00     0.275 HD
ATOM     27  H21 UNL     1      18.530  20.983  31.390  1.00  0.00     0.275 HD
ENDBRANCH  23  24
BRANCH  23  28
HETATM   28  C11 UNL     1      19.200  18.625  31.636  1.00  0.00     0.120 C 
BRANCH  28  29
HETATM   29  C12 UNL     1      18.969  17.178  31.443  1.00  0.00     0.099 A 
HETATM   30  N3  UNL     1      19.052  16.525  30.246  1.00  0.00    -0.340 N 
HETATM   31  C13 UNL     1      18.798  15.239  30.436  1.00  0.00     0.198 A 
ATOM     32  H3  UNL     1      19.275  16.959  29.350  1.00  0.00     0.168 HD
HETATM   33  N4  UNL     1      18.549  15.043  31.739  1.00  0.00    -0.295 N 
HETATM   34  N5  UNL     1      18.656  16.206  32.315  1.00  0.00    -0.288 N 
ATOM     35  H4  UNL     1      18.321  14.157  32.189  1.00  0.00     0.187 HD
ATOM     36  H5  UNL     1      18.518  16.360  33.314  1.00  0.00     0.188 HD
ENDBRANCH  28  29
ENDBRANCH  23  28
ENDBRANCH  20  23
ENDBRANCH   1  19
BRANCH   1  37
HETATM   37  C14 UNL     1      13.953  17.219  32.588  1.00  0.00     0.246 C 
HETATM   38  O2  UNL     1      13.261  17.258  33.628  1.00  0.00    -0.271 OA
HETATM   39  N6  UNL     1      14.204  15.992  31.981  1.00  0.00    -0.350 N 
HETATM   40  C15 UNL     1      15.026  15.721  30.826  1.00  0.00     0.153 C 
BRANCH  39  41
HETATM   41  C16 UNL     1      13.551  14.781  32.523  1.00  0.00     0.164 C 
BRANCH  41  42
HETATM   42  C17 UNL     1      14.292  14.286  33.717  1.00  0.00    -0.040 A 
HETATM   43  C18 UNL     1      13.586  14.111  34.913  1.00  0.00     0.009 A 
HETATM   44  C19 UNL     1      14.215  13.661  36.049  1.00  0.00     0.001 A 
HETATM   45  C20 UNL     1      15.578  13.357  36.062  1.00  0.00     0.000 A 
HETATM   46  C21 UNL     1      16.262  13.531  34.880  1.00  0.00     0.001 A 
HETATM   47  C22 UNL     1      15.625  13.990  33.726  1.00  0.00     0.009 A 
ENDBRANCH  41  42
ENDBRANCH  39  41
ENDBRANCH   1  37
TORSDOF 16
ENDMDL
MODEL 5
REMARK VINA RESULT: -9.435634995      1.953      6.656
REMARK  16 active torsions:
REMARK  status: ('A' for Active; 'I' for Inactive)
REMARK    1  A    between atoms: C2_2  and  C3_3 
REMARK    2  A    between atoms: C6_6  and  C7_7 
REMARK    3  A    between atoms: C7_7  and  C8_8 
REMARK    4  A    between atoms: C8_8  and  N1_9 
REMARK    5  A    between atoms: C8_8  and  C14_27 
REMARK       I    between atoms: N1_9  and  C9_11 
REMARK    6  A    between atoms: C9_11  and  C10_13 
REMARK    7  A    between atoms: C10_13  and  N2_14 
REMARK    8  A    between atoms: C10_13  and  C11_18 
REMARK    9  A    between atoms: C11_18  and  C12_19 
REMARK       I    between atoms: C14_27  and  N6_29 
REMARK   10  A    between atoms: N6_29  and  C16_31 
REMARK   11  A    between atoms: C16_31  and  C17_32 
REMARK   12  A    between atoms: C23_38  and  C24_39 
REMARK   13  A    between atoms: C24_39  and  C25_40 
REMARK   14  A    between atoms: C25_40  and  C26_41 
REMARK   15  A    between atoms: C26_41  and  O3_42 
REMARK   16  A    between atoms: C26_41  and  O4_44 
ROOT
HETATM    1  C8  UNL     1      14.019  17.738  30.805  1.00  0.00     0.201 C 
ENDROOT
BRANCH   1   2
HETATM    2  C7  UNL     1      15.275  17.411  30.144  1.00  0.00     0.021 C 
BRANCH   2   3
HETATM    3  C6  UNL     1      16.439  16.861  30.796  1.00  0.00    -0.011 A 
HETATM    4  C5  UNL     1      16.773  15.582  30.422  1.00  0.00     0.015 A 
HETATM    5  C4  UNL     1      17.894  14.859  30.966  1.00  0.00     0.026 A 
HETATM    6  C3  UNL     1      18.702  15.353  31.881  1.00  0.00     0.009 A 
HETATM    7  N7  UNL     1      18.424  16.663  32.338  1.00  0.00    -0.359 N 
HETATM    8  C23 UNL     1      17.305  17.403  31.803  1.00  0.00     0.038 A 
ATOM      9  H7  UNL     1      19.020  17.087  33.050  1.00  0.00     0.166 HD
BRANCH   6  10
HETATM   10  C2  UNL     1      19.861  14.560  32.419  1.00  0.00     0.052 C 
HETATM   11  C1  UNL     1      19.498  13.958  33.768  1.00  0.00     0.011 C 
ENDBRANCH   6  10
BRANCH   8  12
HETATM   12  C24 UNL     1      17.003  18.555  32.388  1.00  0.00     0.008 C 
BRANCH  12  13
HETATM   13  C25 UNL     1      17.532  19.857  31.973  1.00  0.00     0.089 C 
BRANCH  13  14
HETATM   14  C26 UNL     1      16.549  20.903  31.581  1.00  0.00     0.257 C 
BRANCH  14  15
HETATM   15  O3  UNL     1      15.857  20.610  30.415  1.00  0.00    -0.371 OA
ATOM     16  H3  UNL     1      15.198  19.934  30.523  1.00  0.00     0.212 HD
ENDBRANCH  14  15
BRANCH  14  17
HETATM   17  O4  UNL     1      17.075  22.194  31.609  1.00  0.00    -0.371 OA
ATOM     18  H4  UNL     1      17.516  22.440  30.803  1.00  0.00     0.212 HD
ENDBRANCH  14  17
ENDBRANCH  13  14
ENDBRANCH  12  13
ENDBRANCH   8  12
ENDBRANCH   2   3
ENDBRANCH   1   2
BRANCH   1  19
HETATM   19  N1  UNL     1      12.982  18.382  30.068  1.00  0.00    -0.343 N 
HETATM   20  C9  UNL     1      12.544  19.654  30.580  1.00  0.00     0.249 C 
HETATM   21  O1  UNL     1      13.092  20.151  31.617  1.00  0.00    -0.271 OA
ATOM     22  H1  UNL     1      12.576  17.968  29.230  1.00  0.00     0.163 HD
BRANCH  20  23
HETATM   23  C10 UNL     1      11.468  20.408  29.941  1.00  0.00     0.281 C 
BRANCH  23  24
HETATM   24  N2  UNL     1      10.308  19.552  29.891  1.00  0.00    -0.066 N 
ATOM     25  H23 UNL     1      10.000  19.354  28.939  1.00  0.00     0.275 HD
ATOM     26  H22 UNL     1      10.511  18.591  30.169  1.00  0.00     0.275 HD
ATOM     27  H21 UNL     1       9.582  19.986  30.462  1.00  0.00     0.275 HD
ENDBRANCH  23  24
BRANCH  23  28
HETATM   28  C11 UNL     1      11.881  20.767  28.541  1.00  0.00     0.120 C 
BRANCH  28  29
HETATM   29  C12 UNL     1      13.118  21.568  28.440  1.00  0.00     0.099 A 
HETATM   30  N3  UNL     1      13.814  21.792  27.287  1.00  0.00    -0.340 N 
HETATM   31  C13 UNL     1      14.860  22.559  27.555  1.00  0.00     0.198 A 
ATOM     32  H3  UNL     1      13.567  21.427  26.367  1.00  0.00     0.168 HD
HETATM   33  N4  UNL     1      14.858  22.838  28.866  1.00  0.00    -0.295 N 
HETATM   34  N5  UNL     1      13.816  22.241  29.370  1.00  0.00    -0.288 N 
ATOM     35  H4  UNL     1      15.538  23.407  29.370  1.00  0.00     0.187 HD
ATOM     36  H5  UNL     1      13.560  22.280  30.357  1.00  0.00     0.188 HD
ENDBRANCH  28  29
ENDBRANCH  23  28
ENDBRANCH  20  23
ENDBRANCH   1  19
BRANCH   1  37
HETATM   37  C14 UNL     1      13.432  16.530  31.519  1.00  0.00     0.246 C 
HETATM   38  O2  UNL     1      12.990  15.625  30.778  1.00  0.00    -0.271 OA
HETATM   39  N6  UNL     1      13.358  16.377  32.900  1.00  0.00    -0.350 N 
HETATM   40  C15 UNL     1      13.743  17.321  33.923  1.00  0.00     0.153 C 
BRANCH  39  41
HETATM   41  C16 UNL     1      12.859  15.099  33.452  1.00  0.00     0.164 C 
BRANCH  41  42
HETATM   42  C17 UNL     1      13.905  14.459  34.298  1.00  0.00    -0.040 A 
HETATM   43  C18 UNL     1      15.152  14.186  33.720  1.00  0.00     0.009 A 
HETATM   44  C19 UNL     1      16.155  13.595  34.448  1.00  0.00     0.001 A 
HETATM   45  C20 UNL     1      15.982  13.242  35.789  1.00  0.00     0.000 A 
HETATM   46  C21 UNL     1      14.753  13.517  36.346  1.00  0.00     0.001 A 
HETATM   47  C22 UNL     1      13.731  14.116  35.607  1.00  0.00     0.009 A 
ENDBRANCH  41  42
ENDBRANCH  39  41
ENDBRANCH   1  37
TORSDOF 16
ENDMDL
