MODEL 1
REMARK VINA RESULT: -6.445710019      0.000      0.000
REMARK  5 active torsions:
REMARK  status: ('A' for Active; 'I' for Inactive)
REMARK    1  A    between atoms: C1_2  and  C2_4 
REMARK    2  A    between atoms: C2_4  and  N2_5 
REMARK    3  A    between atoms: N2_5  and  S1_7 
REMARK    4  A    between atoms: S1_7  and  C3_10 
REMARK    5  A    between atoms: C6_13  and  C7_14 
ROOT
HETATM    1  C3  UNL     1      -9.922 -22.820  17.647  1.00  0.00     0.081 A 
HETATM    2  C4  UNL     1     -11.058 -23.129  18.372  1.00  0.00     0.026 A 
HETATM    3  C5  UNL     1     -12.282 -22.938  17.784  1.00  0.00     0.019 A 
HETATM    4  C6  UNL     1     -12.428 -22.455  16.513  1.00  0.00     0.035 A 
HETATM    5  C8  UNL     1     -11.307 -22.150  15.798  1.00  0.00     0.061 A 
HETATM    6  N7  UNL     1     -11.373 -21.647  14.480  1.00  0.00    -0.101 NA
HETATM    7  C9  UNL     1     -10.058 -22.331  16.362  1.00  0.00     0.052 A 
ENDROOT
BRANCH   1   8
HETATM    8  S1  UNL     1      -8.351 -23.055  18.376  1.00  0.00     0.259 S 
HETATM    9  O2  UNL     1      -8.338 -22.315  19.704  1.00  0.00    -0.201 OA
HETATM   10  O3  UNL     1      -8.068 -24.500  18.561  1.00  0.00    -0.201 OA
BRANCH   8  11
HETATM   11  N2  UNL     1      -7.179 -22.280  17.377  1.00  0.00    -0.307 N 
ATOM     12  H2  UNL     1      -6.805 -22.678  16.515  1.00  0.00     0.172 HD
BRANCH  11  13
HETATM   13  C2  UNL     1      -6.794 -21.001  17.910  1.00  0.00     0.231 C 
BRANCH  13  14
HETATM   14  C1  UNL     1      -7.443 -19.937  17.133  1.00  0.00     0.249 C 
HETATM   15  N1  UNL     1      -8.590 -19.302  17.637  1.00  0.00    -0.061 NA
HETATM   16  O1  UNL     1      -6.976 -19.603  16.029  1.00  0.00    -0.275 OA
ENDBRANCH  13  14
ENDBRANCH  11  13
ENDBRANCH   8  11
ENDBRANCH   1   8
BRANCH   4  17
HETATM   17  C7  UNL     1     -13.741 -22.254  15.894  1.00  0.00     0.149 A 
HETATM   18  N3  UNL     1     -14.715 -21.521  16.448  1.00  0.00    -0.268 N 
HETATM   19  N4  UNL     1     -15.731 -21.569  15.617  1.00  0.00    -0.227 N 
ATOM     20  H3  UNL     1     -14.677 -21.025  17.339  1.00  0.00     0.190 HD
HETATM   21  N5  UNL     1     -15.432 -22.297  14.572  1.00  0.00    -0.227 N 
ATOM     22  H4  UNL     1     -16.626 -21.103  15.765  1.00  0.00     0.210 HD
HETATM   23  N6  UNL     1     -14.195 -22.733  14.727  1.00  0.00    -0.268 N 
ATOM     24  H5  UNL     1     -16.045 -22.494  13.780  1.00  0.00     0.210 HD
ATOM     25  H6  UNL     1     -13.680 -23.326  14.077  1.00  0.00     0.190 HD
ENDBRANCH   4  17
TORSDOF 5
ENDMDL
MODEL 2
REMARK VINA RESULT: -6.102159860      2.217      3.140
REMARK  5 active torsions:
REMARK  status: ('A' for Active; 'I' for Inactive)
REMARK    1  A    between atoms: C1_2  and  C2_4 
REMARK    2  A    between atoms: C2_4  and  N2_5 
REMARK    3  A    between atoms: N2_5  and  S1_7 
REMARK    4  A    between atoms: S1_7  and  C3_10 
REMARK    5  A    between atoms: C6_13  and  C7_14 
ROOT
HETATM    1  C3  UNL     1     -11.909 -21.972  16.025  1.00  0.00     0.081 A 
HETATM    2  C4  UNL     1     -12.592 -21.554  14.898  1.00  0.00     0.026 A 
HETATM    3  C5  UNL     1     -13.928 -21.846  14.796  1.00  0.00     0.019 A 
HETATM    4  C6  UNL     1     -14.614 -22.532  15.760  1.00  0.00     0.035 A 
HETATM    5  C8  UNL     1     -13.940 -22.945  16.872  1.00  0.00     0.061 A 
HETATM    6  N7  UNL     1     -14.576 -23.659  17.911  1.00  0.00    -0.101 NA
HETATM    7  C9  UNL     1     -12.593 -22.667  17.005  1.00  0.00     0.052 A 
ENDROOT
BRANCH   1   8
HETATM    8  S1  UNL     1     -10.206 -21.612  16.177  1.00  0.00     0.259 S 
HETATM    9  O2  UNL     1      -9.436 -22.910  15.990  1.00  0.00    -0.201 OA
HETATM   10  O3  UNL     1      -9.793 -20.592  15.182  1.00  0.00    -0.201 OA
BRANCH   8  11
HETATM   11  N2  UNL     1      -9.912 -21.103  17.799  1.00  0.00    -0.307 N 
ATOM     12  H2  UNL     1     -10.152 -21.651  18.625  1.00  0.00     0.172 HD
BRANCH  11  13
HETATM   13  C2  UNL     1      -9.285 -19.810  17.840  1.00  0.00     0.231 C 
BRANCH  13  14
HETATM   14  C1  UNL     1      -7.834 -19.970  17.687  1.00  0.00     0.249 C 
HETATM   15  N1  UNL     1      -7.159 -20.965  18.415  1.00  0.00    -0.061 NA
HETATM   16  O1  UNL     1      -7.205 -19.224  16.915  1.00  0.00    -0.275 OA
ENDBRANCH  13  14
ENDBRANCH  11  13
ENDBRANCH   8  11
ENDBRANCH   1   8
BRANCH   4  17
HETATM   17  C7  UNL     1     -16.042 -22.839  15.641  1.00  0.00     0.149 A 
HETATM   18  N3  UNL     1     -16.958 -22.454  16.539  1.00  0.00    -0.268 N 
HETATM   19  N4  UNL     1     -18.113 -22.905  16.104  1.00  0.00    -0.227 N 
ATOM     20  H3  UNL     1     -16.793 -21.917  17.390  1.00  0.00     0.190 HD
HETATM   21  N5  UNL     1     -17.955 -23.553  14.979  1.00  0.00    -0.227 N 
ATOM     22  H4  UNL     1     -19.006 -22.769  16.578  1.00  0.00     0.210 HD
HETATM   23  N6  UNL     1     -16.671 -23.523  14.675  1.00  0.00    -0.268 N 
ATOM     24  H5  UNL     1     -18.692 -24.002  14.435  1.00  0.00     0.210 HD
ATOM     25  H6  UNL     1     -16.236 -23.943  13.853  1.00  0.00     0.190 HD
ENDBRANCH   4  17
TORSDOF 5
ENDMDL
MODEL 3
REMARK VINA RESULT: -6.071463682      1.919      2.727
REMARK  5 active torsions:
REMARK  status: ('A' for Active; 'I' for Inactive)
REMARK    1  A    between atoms: C1_2  and  C2_4 
REMARK    2  A    between atoms: C2_4  and  N2_5 
REMARK    3  A    between atoms: N2_5  and  S1_7 
REMARK    4  A    between atoms: S1_7  and  C3_10 
REMARK    5  A    between atoms: C6_13  and  C7_14 
ROOT
HETATM    1  C3  UNL     1     -11.594 -22.023  16.210  1.00  0.00     0.081 A 
HETATM    2  C4  UNL     1     -12.233 -22.840  17.126  1.00  0.00     0.026 A 
HETATM    3  C5  UNL     1     -13.579 -23.060  16.980  1.00  0.00     0.019 A 
HETATM    4  C6  UNL     1     -14.316 -22.508  15.969  1.00  0.00     0.035 A 
HETATM    5  C8  UNL     1     -13.686 -21.703  15.066  1.00  0.00     0.061 A 
HETATM    6  N7  UNL     1     -14.377 -21.096  13.995  1.00  0.00    -0.101 NA
HETATM    7  C9  UNL     1     -12.330 -21.461  15.185  1.00  0.00     0.052 A 
ENDROOT
BRANCH   1   8
HETATM    8  S1  UNL     1      -9.880 -21.728  16.376  1.00  0.00     0.259 S 
HETATM    9  O2  UNL     1      -9.151 -23.025  16.065  1.00  0.00    -0.201 OA
HETATM   10  O3  UNL     1      -9.444 -20.634  15.473  1.00  0.00    -0.201 OA
BRANCH   8  11
HETATM   11  N2  UNL     1      -9.559 -21.377  18.034  1.00  0.00    -0.307 N 
ATOM     12  H2  UNL     1     -10.016 -21.841  18.819  1.00  0.00     0.172 HD
BRANCH  11  13
HETATM   13  C2  UNL     1      -8.564 -20.347  18.172  1.00  0.00     0.231 C 
BRANCH  13  14
HETATM   14  C1  UNL     1      -7.236 -20.966  18.265  1.00  0.00     0.249 C 
HETATM   15  N1  UNL     1      -6.265 -20.689  17.289  1.00  0.00    -0.061 NA
HETATM   16  O1  UNL     1      -6.976 -21.734  19.208  1.00  0.00    -0.275 OA
ENDBRANCH  13  14
ENDBRANCH  11  13
ENDBRANCH   8  11
ENDBRANCH   1   8
BRANCH   4  17
HETATM   17  C7  UNL     1     -15.754 -22.750  15.822  1.00  0.00     0.149 A 
HETATM   18  N3  UNL     1     -16.667 -22.339  16.712  1.00  0.00    -0.268 N 
HETATM   19  N4  UNL     1     -17.833 -22.731  16.251  1.00  0.00    -0.227 N 
ATOM     20  H3  UNL     1     -16.493 -21.824  17.575  1.00  0.00     0.190 HD
HETATM   21  N5  UNL     1     -17.686 -23.367  15.117  1.00  0.00    -0.227 N 
ATOM     22  H4  UNL     1     -18.727 -22.564  16.712  1.00  0.00     0.210 HD
HETATM   23  N6  UNL     1     -16.396 -23.388  14.834  1.00  0.00    -0.268 N 
ATOM     24  H5  UNL     1     -18.433 -23.773  14.553  1.00  0.00     0.210 HD
ATOM     25  H6  UNL     1     -15.967 -23.814  14.012  1.00  0.00     0.190 HD
ENDBRANCH   4  17
TORSDOF 5
ENDMDL
MODEL 4
REMARK VINA RESULT: -6.053818623      0.715      1.481
REMARK  5 active torsions:
REMARK  status: ('A' for Active; 'I' for Inactive)
REMARK    1  A    between atoms: C1_2  and  C2_4 
REMARK    2  A    between atoms: C2_4  and  N2_5 
REMARK    3  A    between atoms: N2_5  and  S1_7 
REMARK    4  A    between atoms: S1_7  and  C3_10 
REMARK    5  A    between atoms: C6_13  and  C7_14 
ROOT
HETATM    1  C3  UNL     1      -9.842 -22.852  17.596  1.00  0.00     0.081 A 
HETATM    2  C4  UNL     1      -9.866 -22.658  16.227  1.00  0.00     0.026 A 
HETATM    3  C5  UNL     1     -11.078 -22.480  15.611  1.00  0.00     0.019 A 
HETATM    4  C6  UNL     1     -12.264 -22.486  16.292  1.00  0.00     0.035 A 
HETATM    5  C8  UNL     1     -12.241 -22.679  17.643  1.00  0.00     0.061 A 
HETATM    6  N7  UNL     1     -13.422 -22.699  18.416  1.00  0.00    -0.101 NA
HETATM    7  C9  UNL     1     -11.035 -22.860  18.293  1.00  0.00     0.052 A 
ENDROOT
BRANCH   1   8
HETATM    8  S1  UNL     1      -8.309 -23.081  18.402  1.00  0.00     0.259 S 
HETATM    9  O2  UNL     1      -8.364 -22.339  19.728  1.00  0.00    -0.201 OA
HETATM   10  O3  UNL     1      -8.030 -24.525  18.602  1.00  0.00    -0.201 OA
BRANCH   8  11
HETATM   11  N2  UNL     1      -7.091 -22.302  17.461  1.00  0.00    -0.307 N 
ATOM     12  H2  UNL     1      -6.641 -22.719  16.646  1.00  0.00     0.172 HD
BRANCH  11  13
HETATM   13  C2  UNL     1      -6.790 -20.991  17.968  1.00  0.00     0.231 C 
BRANCH  13  14
HETATM   14  C1  UNL     1      -7.471 -19.985  17.144  1.00  0.00     0.249 C 
HETATM   15  N1  UNL     1      -8.645 -19.373  17.613  1.00  0.00    -0.061 NA
HETATM   16  O1  UNL     1      -7.006 -19.678  16.031  1.00  0.00    -0.275 OA
ENDBRANCH  13  14
ENDBRANCH  11  13
ENDBRANCH   8  11
ENDBRANCH   1   8
BRANCH   4  17
HETATM   17  C7  UNL     1     -13.555 -22.296  15.625  1.00  0.00     0.149 A 
HETATM   18  N3  UNL     1     -14.474 -21.409  16.031  1.00  0.00    -0.268 N 
HETATM   19  N4  UNL     1     -15.486 -21.521  15.202  1.00  0.00    -0.227 N 
ATOM     20  H3  UNL     1     -14.401 -20.773  16.825  1.00  0.00     0.190 HD
HETATM   21  N5  UNL     1     -15.239 -22.436  14.300  1.00  0.00    -0.227 N 
ATOM     22  H4  UNL     1     -16.344 -20.972  15.254  1.00  0.00     0.210 HD
HETATM   23  N6  UNL     1     -14.040 -22.930  14.548  1.00  0.00    -0.268 N 
ATOM     24  H5  UNL     1     -15.861 -22.718  13.543  1.00  0.00     0.210 HD
ATOM     25  H6  UNL     1     -13.568 -23.662  14.017  1.00  0.00     0.190 HD
ENDBRANCH   4  17
TORSDOF 5
ENDMDL
MODEL 5
REMARK VINA RESULT: -5.971393457      1.968      2.514
REMARK  5 active torsions:
REMARK  status: ('A' for Active; 'I' for Inactive)
REMARK    1  A    between atoms: C1_2  and  C2_4 
REMARK    2  A    between atoms: C2_4  and  N2_5 
REMARK    3  A    between atoms: N2_5  and  S1_7 
REMARK    4  A    between atoms: S1_7  and  C3_10 
REMARK    5  A    between atoms: C6_13  and  C7_14 
ROOT
HETATM    1  C3  UNL     1     -11.931 -22.460  16.536  1.00  0.00     0.081 A 
HETATM    2  C4  UNL     1     -12.664 -23.310  17.343  1.00  0.00     0.026 A 
HETATM    3  C5  UNL     1     -14.014 -23.417  17.127  1.00  0.00     0.019 A 
HETATM    4  C6  UNL     1     -14.666 -22.720  16.148  1.00  0.00     0.035 A 
HETATM    5  C8  UNL     1     -13.943 -21.880  15.352  1.00  0.00     0.061 A 
HETATM    6  N7  UNL     1     -14.543 -21.126  14.320  1.00  0.00    -0.101 NA
HETATM    7  C9  UNL     1     -12.581 -21.750  15.543  1.00  0.00     0.052 A 
ENDROOT
BRANCH   1   8
HETATM    8  S1  UNL     1     -10.210 -22.307  16.793  1.00  0.00     0.259 S 
HETATM    9  O2  UNL     1      -9.916 -22.710  18.230  1.00  0.00    -0.201 OA
HETATM   10  O3  UNL     1      -9.457 -23.151  15.832  1.00  0.00    -0.201 OA
BRANCH   8  11
HETATM   11  N2  UNL     1      -9.798 -20.638  16.663  1.00  0.00    -0.307 N 
ATOM     12  H2  UNL     1     -10.049 -20.044  15.873  1.00  0.00     0.172 HD
BRANCH  11  13
HETATM   13  C2  UNL     1      -9.054 -20.187  17.809  1.00  0.00     0.231 C 
BRANCH  13  14
HETATM   14  C1  UNL     1      -7.623 -20.171  17.480  1.00  0.00     0.249 C 
HETATM   15  N1  UNL     1      -7.178 -19.511  16.322  1.00  0.00    -0.061 NA
HETATM   16  O1  UNL     1      -6.809 -20.741  18.228  1.00  0.00    -0.275 OA
ENDBRANCH  13  14
ENDBRANCH  11  13
ENDBRANCH   8  11
ENDBRANCH   1   8
BRANCH   4  17
HETATM   17  C7  UNL     1     -16.110 -22.840  15.925  1.00  0.00     0.149 A 
HETATM   18  N3  UNL     1     -17.031 -22.366  16.774  1.00  0.00    -0.268 N 
HETATM   19  N4  UNL     1     -18.200 -22.656  16.249  1.00  0.00    -0.227 N 
ATOM     20  H3  UNL     1     -16.860 -21.877  17.652  1.00  0.00     0.190 HD
HETATM   21  N5  UNL     1     -18.047 -23.289  15.114  1.00  0.00    -0.227 N 
ATOM     22  H4  UNL     1     -19.100 -22.421  16.667  1.00  0.00     0.210 HD
HETATM   23  N6  UNL     1     -16.751 -23.413  14.896  1.00  0.00    -0.268 N 
ATOM     24  H5  UNL     1     -18.794 -23.626  14.507  1.00  0.00     0.210 HD
ATOM     25  H6  UNL     1     -16.315 -23.863  14.090  1.00  0.00     0.190 HD
ENDBRANCH   4  17
TORSDOF 5
ENDMDL
