MODEL 1
REMARK VINA RESULT: -5.619461200      0.000      0.000
REMARK  8 active torsions:
REMARK  status: ('A' for Active; 'I' for Inactive)
REMARK    1  A    between atoms: C3_3  and  O1_4 
REMARK    2  A    between atoms: O1_4  and  N1_5 
REMARK    3  A    between atoms: N2_9  and  C5_10 
REMARK    4  A    between atoms: C5_10  and  C6_11 
REMARK    5  A    between atoms: N3_15  and  C9_16 
REMARK    6  A    between atoms: C9_16  and  C10_17 
REMARK    7  A    between atoms: C10_17  and  N4_18 
REMARK    8  A    between atoms: N4_18  and  C11_20 
ROOT
HETATM    1  C1  UNL     1      -9.657 -25.178  15.674  1.00  0.00     0.102 C 
HETATM    2  C2  UNL     1      -9.751 -24.031  16.098  1.00  0.00    -0.124 C 
HETATM    3  C3  UNL     1      -9.834 -22.643  16.613  1.00  0.00     0.241 C 
HETATM    4  C4  UNL     1      -8.440 -22.096  16.690  1.00  0.00     0.350 C 
HETATM    5  N2  UNL     1      -7.894 -21.973  17.989  1.00  0.00     0.105 N 
HETATM    6  C7  UNL     1      -8.813 -21.408  18.952  1.00  0.00     0.317 C 
HETATM    7  C8  UNL     1     -10.026 -22.276  19.003  1.00  0.00     0.092 C 
HETATM    8  N3  UNL     1     -10.590 -22.654  17.787  1.00  0.00    -0.347 N 
ENDROOT
BRANCH   3   9
HETATM    9  O1  UNL     1     -10.490 -21.917  15.616  1.00  0.00    -0.239 OA
BRANCH   9  10
HETATM   10  N1  UNL     1     -10.434 -20.586  15.840  1.00  0.00    -0.307 N 
ATOM     11  H12 UNL     1      -9.682 -20.140  16.366  1.00  0.00     0.184 HD
ATOM     12  H11 UNL     1     -11.224 -20.095  15.422  1.00  0.00     0.184 HD
ENDBRANCH   9  10
ENDBRANCH   3   9
BRANCH   8  13
HETATM   13  C9  UNL     1     -11.539 -23.715  17.965  1.00  0.00     0.145 C 
BRANCH  13  14
HETATM   14  C10 UNL     1     -12.967 -23.280  18.079  1.00  0.00     0.141 C 
BRANCH  14  15
HETATM   15  N4  UNL     1     -13.316 -22.141  17.268  1.00  0.00    -0.374 N 
ATOM     16  H4  UNL     1     -13.213 -21.222  17.698  1.00  0.00     0.161 HD
BRANCH  15  17
HETATM   17  C11 UNL     1     -13.784 -22.173  15.946  1.00  0.00     0.117 A 
HETATM   18  C12 UNL     1     -14.912 -21.567  15.438  1.00  0.00     0.137 A 
HETATM   19  N5  UNL     1     -15.021 -21.828  14.107  1.00  0.00    -0.358 N 
HETATM   20  C13 UNL     1     -13.974 -22.591  13.779  1.00  0.00     0.182 A 
ATOM     21  H5  UNL     1     -15.758 -21.504  13.481  1.00  0.00     0.166 HD
HETATM   22  N6  UNL     1     -13.232 -22.800  14.871  1.00  0.00    -0.338 N 
ATOM     23  H6  UNL     1     -12.374 -23.352  14.897  1.00  0.00     0.168 HD
ENDBRANCH  15  17
ENDBRANCH  14  15
ENDBRANCH  13  14
ENDBRANCH   8  13
BRANCH   5  24
HETATM   24  C5  UNL     1      -6.715 -21.142  17.997  1.00  0.00     0.342 C 
BRANCH  24  25
HETATM   25  C6  UNL     1      -6.617 -20.179  16.901  1.00  0.00     0.261 C 
HETATM   26  O2  UNL     1      -7.097 -19.067  16.922  1.00  0.00    -0.305 OA
ENDBRANCH  24  25
ENDBRANCH   5  24
TORSDOF 8
ENDMDL
MODEL 2
REMARK VINA RESULT: -5.524934481      2.223      3.466
REMARK  8 active torsions:
REMARK  status: ('A' for Active; 'I' for Inactive)
REMARK    1  A    between atoms: C3_3  and  O1_4 
REMARK    2  A    between atoms: O1_4  and  N1_5 
REMARK    3  A    between atoms: N2_9  and  C5_10 
REMARK    4  A    between atoms: C5_10  and  C6_11 
REMARK    5  A    between atoms: N3_15  and  C9_16 
REMARK    6  A    between atoms: C9_16  and  C10_17 
REMARK    7  A    between atoms: C10_17  and  N4_18 
REMARK    8  A    between atoms: N4_18  and  C11_20 
ROOT
HETATM    1  C1  UNL     1      -6.881 -19.586  16.649  1.00  0.00     0.102 C 
HETATM    2  C2  UNL     1      -7.808 -19.979  17.351  1.00  0.00    -0.124 C 
HETATM    3  C3  UNL     1      -8.907 -20.468  18.217  1.00  0.00     0.241 C 
HETATM    4  C4  UNL     1      -8.292 -21.181  19.384  1.00  0.00     0.350 C 
HETATM    5  N2  UNL     1      -8.396 -22.592  19.372  1.00  0.00     0.105 N 
HETATM    6  C7  UNL     1      -9.708 -23.072  19.000  1.00  0.00     0.317 C 
HETATM    7  C8  UNL     1     -10.032 -22.540  17.644  1.00  0.00     0.092 C 
HETATM    8  N3  UNL     1      -9.807 -21.183  17.423  1.00  0.00    -0.347 N 
ENDROOT
BRANCH   3   9
HETATM    9  O1  UNL     1      -9.515 -19.319  18.728  1.00  0.00    -0.239 OA
BRANCH   9  10
HETATM   10  N1  UNL     1     -10.499 -19.616  19.605  1.00  0.00    -0.307 N 
ATOM     11  H12 UNL     1     -10.393 -19.523  20.616  1.00  0.00     0.184 HD
ATOM     12  H11 UNL     1     -11.344 -19.939  19.135  1.00  0.00     0.184 HD
ENDBRANCH   9  10
ENDBRANCH   3   9
BRANCH   8  13
HETATM   13  C9  UNL     1      -9.862 -20.871  16.023  1.00  0.00     0.145 C 
BRANCH  13  14
HETATM   14  C10 UNL     1     -10.774 -21.740  15.213  1.00  0.00     0.141 C 
BRANCH  14  15
HETATM   15  N4  UNL     1     -11.976 -21.088  14.756  1.00  0.00    -0.374 N 
ATOM     16  H4  UNL     1     -11.858 -20.298  14.123  1.00  0.00     0.161 HD
BRANCH  15  17
HETATM   17  C11 UNL     1     -13.292 -21.436  15.097  1.00  0.00     0.117 A 
HETATM   18  C12 UNL     1     -14.412 -21.369  14.299  1.00  0.00     0.137 A 
HETATM   19  N5  UNL     1     -15.502 -21.800  14.991  1.00  0.00    -0.358 N 
HETATM   20  C13 UNL     1     -15.074 -22.134  16.212  1.00  0.00     0.182 A 
ATOM     21  H5  UNL     1     -16.460 -21.857  14.645  1.00  0.00     0.166 HD
HETATM   22  N6  UNL     1     -13.756 -21.920  16.282  1.00  0.00    -0.338 N 
ATOM     23  H6  UNL     1     -13.179 -22.094  17.106  1.00  0.00     0.168 HD
ENDBRANCH  15  17
ENDBRANCH  14  15
ENDBRANCH  13  14
ENDBRANCH   8  13
BRANCH   5  24
HETATM   24  C5  UNL     1      -8.090 -23.161  20.661  1.00  0.00     0.342 C 
BRANCH  24  25
HETATM   25  C6  UNL     1      -7.356 -22.288  21.576  1.00  0.00     0.261 C 
HETATM   26  O2  UNL     1      -6.204 -22.460  21.909  1.00  0.00    -0.305 OA
ENDBRANCH  24  25
ENDBRANCH   5  24
TORSDOF 8
ENDMDL
MODEL 3
REMARK VINA RESULT: -5.127193780      2.419      3.523
REMARK  8 active torsions:
REMARK  status: ('A' for Active; 'I' for Inactive)
REMARK    1  A    between atoms: C3_3  and  O1_4 
REMARK    2  A    between atoms: O1_4  and  N1_5 
REMARK    3  A    between atoms: N2_9  and  C5_10 
REMARK    4  A    between atoms: C5_10  and  C6_11 
REMARK    5  A    between atoms: N3_15  and  C9_16 
REMARK    6  A    between atoms: C9_16  and  C10_17 
REMARK    7  A    between atoms: C10_17  and  N4_18 
REMARK    8  A    between atoms: N4_18  and  C11_20 
ROOT
HETATM    1  C1  UNL     1      -6.447 -20.661  17.317  1.00  0.00     0.102 C 
HETATM    2  C2  UNL     1      -7.480 -20.891  17.938  1.00  0.00    -0.124 C 
HETATM    3  C3  UNL     1      -8.712 -21.167  18.714  1.00  0.00     0.241 C 
HETATM    4  C4  UNL     1      -8.369 -21.078  20.171  1.00  0.00     0.350 C 
HETATM    5  N2  UNL     1      -8.298 -22.307  20.868  1.00  0.00     0.105 N 
HETATM    6  C7  UNL     1      -9.387 -23.208  20.563  1.00  0.00     0.317 C 
HETATM    7  C8  UNL     1      -9.379 -23.469  19.094  1.00  0.00     0.092 C 
HETATM    8  N3  UNL     1      -9.263 -22.365  18.252  1.00  0.00    -0.347 N 
ENDROOT
BRANCH   3   9
HETATM    9  O1  UNL     1      -9.569 -20.099  18.441  1.00  0.00    -0.239 OA
BRANCH   9  10
HETATM   10  N1  UNL     1     -10.345 -19.790  19.504  1.00  0.00    -0.307 N 
ATOM     11  H12 UNL     1     -10.740 -20.491  20.130  1.00  0.00     0.184 HD
ATOM     12  H11 UNL     1     -10.480 -18.783  19.597  1.00  0.00     0.184 HD
ENDBRANCH   9  10
ENDBRANCH   3   9
BRANCH   8  13
HETATM   13  C9  UNL     1      -8.960 -22.769  16.909  1.00  0.00     0.145 C 
BRANCH  13  14
HETATM   14  C10 UNL     1     -10.144 -22.898  16.001  1.00  0.00     0.141 C 
BRANCH  14  15
HETATM   15  N4  UNL     1     -11.011 -21.747  15.975  1.00  0.00    -0.374 N 
ATOM     16  H4  UNL     1     -10.624 -20.872  16.328  1.00  0.00     0.161 HD
BRANCH  15  17
HETATM   17  C11 UNL     1     -12.335 -21.712  15.511  1.00  0.00     0.117 A 
HETATM   18  C12 UNL     1     -13.403 -22.456  15.961  1.00  0.00     0.137 A 
HETATM   19  N5  UNL     1     -14.524 -22.130  15.261  1.00  0.00    -0.358 N 
HETATM   20  C13 UNL     1     -14.166 -21.192  14.380  1.00  0.00     0.182 A 
ATOM     21  H5  UNL     1     -15.456 -22.526  15.386  1.00  0.00     0.166 HD
HETATM   22  N6  UNL     1     -12.862 -20.937  14.524  1.00  0.00    -0.338 N 
ATOM     23  H6  UNL     1     -12.336 -20.258  13.972  1.00  0.00     0.168 HD
ENDBRANCH  15  17
ENDBRANCH  14  15
ENDBRANCH  13  14
ENDBRANCH   8  13
BRANCH   5  24
HETATM   24  C5  UNL     1      -8.301 -22.113  22.297  1.00  0.00     0.342 C 
BRANCH  24  25
HETATM   25  C6  UNL     1      -8.024 -20.749  22.746  1.00  0.00     0.261 C 
HETATM   26  O2  UNL     1      -7.010 -20.408  23.315  1.00  0.00    -0.305 OA
ENDBRANCH  24  25
ENDBRANCH   5  24
TORSDOF 8
ENDMDL
MODEL 4
REMARK VINA RESULT: -5.125560404      2.422      3.522
REMARK  8 active torsions:
REMARK  status: ('A' for Active; 'I' for Inactive)
REMARK    1  A    between atoms: C3_3  and  O1_4 
REMARK    2  A    between atoms: O1_4  and  N1_5 
REMARK    3  A    between atoms: N2_9  and  C5_10 
REMARK    4  A    between atoms: C5_10  and  C6_11 
REMARK    5  A    between atoms: N3_15  and  C9_16 
REMARK    6  A    between atoms: C9_16  and  C10_17 
REMARK    7  A    between atoms: C10_17  and  N4_18 
REMARK    8  A    between atoms: N4_18  and  C11_20 
ROOT
HETATM    1  C1  UNL     1      -6.284 -20.573  17.108  1.00  0.00     0.102 C 
HETATM    2  C2  UNL     1      -7.264 -20.820  17.802  1.00  0.00    -0.124 C 
HETATM    3  C3  UNL     1      -8.431 -21.127  18.663  1.00  0.00     0.241 C 
HETATM    4  C4  UNL     1      -7.919 -21.462  20.032  1.00  0.00     0.350 C 
HETATM    5  N2  UNL     1      -7.971 -22.828  20.396  1.00  0.00     0.105 N 
HETATM    6  C7  UNL     1      -9.218 -23.472  20.050  1.00  0.00     0.317 C 
HETATM    7  C8  UNL     1      -9.415 -23.343  18.576  1.00  0.00     0.092 C 
HETATM    8  N3  UNL     1      -9.216 -22.084  18.015  1.00  0.00    -0.347 N 
ENDROOT
BRANCH   3   9
HETATM    9  O1  UNL     1      -9.130 -19.923  18.783  1.00  0.00    -0.239 OA
BRANCH   9  10
HETATM   10  N1  UNL     1     -10.294 -20.080  19.451  1.00  0.00    -0.307 N 
ATOM     11  H12 UNL     1     -11.206 -20.055  18.996  1.00  0.00     0.184 HD
ATOM     12  H11 UNL     1     -10.145 -20.224  20.450  1.00  0.00     0.184 HD
ENDBRANCH   9  10
ENDBRANCH   3   9
BRANCH   8  13
HETATM   13  C9  UNL     1      -9.134 -22.162  16.585  1.00  0.00     0.145 C 
BRANCH  13  14
HETATM   14  C10 UNL     1     -10.296 -21.573  15.846  1.00  0.00     0.141 C 
BRANCH  14  15
HETATM   15  N4  UNL     1     -11.484 -22.389  15.844  1.00  0.00    -0.374 N 
ATOM     16  H4  UNL     1     -11.385 -23.346  16.180  1.00  0.00     0.161 HD
BRANCH  15  17
HETATM   17  C11 UNL     1     -12.764 -21.995  15.425  1.00  0.00     0.117 A 
HETATM   18  C12 UNL     1     -13.963 -22.212  16.067  1.00  0.00     0.137 A 
HETATM   19  N5  UNL     1     -14.982 -21.671  15.345  1.00  0.00    -0.358 N 
HETATM   20  C13 UNL     1     -14.432 -21.120  14.259  1.00  0.00     0.182 A 
ATOM     21  H5  UNL     1     -15.973 -21.684  15.586  1.00  0.00     0.166 HD
HETATM   22  N6  UNL     1     -13.109 -21.309  14.301  1.00  0.00    -0.338 N 
ATOM     23  H6  UNL     1     -12.451 -20.985  13.591  1.00  0.00     0.168 HD
ENDBRANCH  15  17
ENDBRANCH  14  15
ENDBRANCH  13  14
ENDBRANCH   8  13
BRANCH   5  24
HETATM   24  C5  UNL     1      -7.783 -23.011  21.814  1.00  0.00     0.342 C 
BRANCH  24  25
HETATM   25  C6  UNL     1      -6.400 -23.205  22.246  1.00  0.00     0.261 C 
HETATM   26  O2  UNL     1      -5.620 -22.305  22.471  1.00  0.00    -0.305 OA
ENDBRANCH  24  25
ENDBRANCH   5  24
TORSDOF 8
ENDMDL
MODEL 5
REMARK VINA RESULT: -5.062553298      1.647      2.351
REMARK  8 active torsions:
REMARK  status: ('A' for Active; 'I' for Inactive)
REMARK    1  A    between atoms: C3_3  and  O1_4 
REMARK    2  A    between atoms: O1_4  and  N1_5 
REMARK    3  A    between atoms: N2_9  and  C5_10 
REMARK    4  A    between atoms: C5_10  and  C6_11 
REMARK    5  A    between atoms: N3_15  and  C9_16 
REMARK    6  A    between atoms: C9_16  and  C10_17 
REMARK    7  A    between atoms: C10_17  and  N4_18 
REMARK    8  A    between atoms: N4_18  and  C11_20 
ROOT
HETATM    1  C1  UNL     1     -11.730 -21.348  14.626  1.00  0.00     0.102 C 
HETATM    2  C2  UNL     1     -11.260 -21.832  15.650  1.00  0.00    -0.124 C 
HETATM    3  C3  UNL     1     -10.670 -22.397  16.887  1.00  0.00     0.241 C 
HETATM    4  C4  UNL     1      -9.548 -21.498  17.314  1.00  0.00     0.350 C 
HETATM    5  N2  UNL     1      -8.241 -21.997  17.105  1.00  0.00     0.105 N 
HETATM    6  C7  UNL     1      -8.081 -23.381  17.493  1.00  0.00     0.317 C 
HETATM    7  C8  UNL     1      -9.055 -24.199  16.713  1.00  0.00     0.092 C 
HETATM    8  N3  UNL     1     -10.370 -23.741  16.658  1.00  0.00    -0.347 N 
ENDROOT
BRANCH   3   9
HETATM    9  O1  UNL     1     -11.666 -22.279  17.860  1.00  0.00    -0.239 OA
BRANCH   9  10
HETATM   10  N1  UNL     1     -11.295 -21.456  18.865  1.00  0.00    -0.307 N 
ATOM     11  H12 UNL     1     -10.346 -21.420  19.237  1.00  0.00     0.184 HD
ATOM     12  H11 UNL     1     -12.072 -20.884  19.197  1.00  0.00     0.184 HD
ENDBRANCH   9  10
ENDBRANCH   3   9
BRANCH   8  13
HETATM   13  C9  UNL     1     -11.115 -24.432  15.645  1.00  0.00     0.145 C 
BRANCH  13  14
HETATM   14  C10 UNL     1     -12.160 -25.376  16.155  1.00  0.00     0.141 C 
BRANCH  14  15
HETATM   15  N4  UNL     1     -13.485 -25.144  15.638  1.00  0.00    -0.374 N 
ATOM     16  H4  UNL     1     -13.948 -25.933  15.188  1.00  0.00     0.161 HD
BRANCH  15  17
HETATM   17  C11 UNL     1     -14.200 -23.938  15.692  1.00  0.00     0.117 A 
HETATM   18  C12 UNL     1     -14.893 -23.324  14.673  1.00  0.00     0.137 A 
HETATM   19  N5  UNL     1     -15.459 -22.171  15.123  1.00  0.00    -0.358 N 
HETATM   20  C13 UNL     1     -15.125 -22.058  16.412  1.00  0.00     0.182 A 
ATOM     21  H5  UNL     1     -16.026 -21.520  14.581  1.00  0.00     0.166 HD
HETATM   22  N6  UNL     1     -14.375 -23.109  16.758  1.00  0.00    -0.338 N 
ATOM     23  H6  UNL     1     -13.988 -23.268  17.689  1.00  0.00     0.168 HD
ENDBRANCH  15  17
ENDBRANCH  14  15
ENDBRANCH  13  14
ENDBRANCH   8  13
BRANCH   5  24
HETATM   24  C5  UNL     1      -7.256 -21.239  17.837  1.00  0.00     0.342 C 
BRANCH  24  25
HETATM   25  C6  UNL     1      -6.542 -20.224  17.064  1.00  0.00     0.261 C 
HETATM   26  O2  UNL     1      -6.996 -19.138  16.774  1.00  0.00    -0.305 OA
ENDBRANCH  24  25
ENDBRANCH   5  24
TORSDOF 8
ENDMDL
