MODEL 1
REMARK VINA RESULT: -5.734882220      0.000      0.000
REMARK  8 active torsions:
REMARK  status: ('A' for Active; 'I' for Inactive)
REMARK    1  A    between atoms: C2_2  and  C3_3 
REMARK    2  A    between atoms: C2_2  and  C6_11 
REMARK    3  A    between atoms: C3_3  and  N1_4 
REMARK    4  A    between atoms: C7_12  and  C8_13 
REMARK    5  A    between atoms: C9_17  and  N6_18 
REMARK    6  A    between atoms: N6_18  and  C10_20 
REMARK    7  A    between atoms: C10_20  and  C11_21 
REMARK    8  A    between atoms: C11_21  and  N7_22 
ROOT
HETATM    1  C6  UNL     1      -8.782 -21.641  17.158  1.00  0.00     0.064 A 
HETATM    2  C7  UNL     1      -9.115 -22.966  16.786  1.00  0.00     0.078 A 
HETATM    3  N5  UNL     1     -10.200 -23.183  16.056  1.00  0.00    -0.190 N 
ATOM      4  H5  UNL     1     -10.420 -24.145  15.797  1.00  0.00     0.184 HD
HETATM    5  C9  UNL     1     -11.043 -22.195  15.630  1.00  0.00     0.681 A 
HETATM    6  N8  UNL     1     -10.757 -20.949  15.964  1.00  0.00    -0.155 N 
ATOM      7  H8  UNL     1     -11.370 -20.191  15.664  1.00  0.00     0.187 HD
HETATM    8  C12 UNL     1      -9.668 -20.676  16.696  1.00  0.00     0.272 A 
HETATM    9  O1  UNL     1      -9.402 -19.453  17.005  1.00  0.00    -0.267 OA
ENDROOT
BRANCH   1  10
HETATM   10  C2  UNL     1      -7.709 -21.354  18.142  1.00  0.00    -0.046 C 
HETATM   11  C1  UNL     1      -6.367 -21.010  17.661  1.00  0.00     0.046 C 
BRANCH  10  12
HETATM   12  C3  UNL     1      -7.962 -21.710  19.565  1.00  0.00     0.184 C 
BRANCH  12  13
HETATM   13  N1  UNL     1      -9.302 -21.266  20.006  1.00  0.00    -0.283 N 
HETATM   14  C4  UNL     1     -10.317 -22.086  20.381  1.00  0.00     0.201 A 
HETATM   15  N2  UNL     1     -11.314 -21.228  20.758  1.00  0.00    -0.346 N 
HETATM   16  C5  UNL     1     -10.921 -19.973  20.613  1.00  0.00     0.198 A 
ATOM     17  H2  UNL     1     -12.231 -21.515  21.103  1.00  0.00     0.167 HD
HETATM   18  N3  UNL     1      -9.648 -20.005  20.139  1.00  0.00    -0.293 N 
ATOM     19  H3  UNL     1      -9.065 -19.196  19.925  1.00  0.00     0.188 HD
ENDBRANCH  12  13
ENDBRANCH  10  12
ENDBRANCH   1  10
BRANCH   2  20
HETATM   20  C8  UNL     1      -8.228 -24.038  17.145  1.00  0.00     0.131 C 
HETATM   21  N4  UNL     1      -8.660 -24.955  18.160  1.00  0.00    -0.113 NA
ENDBRANCH   2  20
BRANCH   5  22
HETATM   22  N6  UNL     1     -12.046 -22.409  14.896  1.00  0.00    -0.224 N 
ATOM     23  H6  UNL     1     -11.843 -22.489  13.900  1.00  0.00     0.177 HD
BRANCH  22  24
HETATM   24  C10 UNL     1     -13.410 -22.554  15.245  1.00  0.00     0.165 C 
BRANCH  24  25
HETATM   25  C11 UNL     1     -14.162 -21.343  14.722  1.00  0.00     0.249 C 
BRANCH  25  26
HETATM   26  N7  UNL     1     -15.361 -21.113  15.480  1.00  0.00    -0.078 N 
ATOM     27  H73 UNL     1     -16.189 -21.433  14.977  1.00  0.00     0.274 HD
ATOM     28  H72 UNL     1     -15.421 -21.733  16.287  1.00  0.00     0.274 HD
ATOM     29  H71 UNL     1     -15.441 -20.133  15.751  1.00  0.00     0.274 HD
ENDBRANCH  25  26
ENDBRANCH  24  25
ENDBRANCH  22  24
ENDBRANCH   5  22
TORSDOF 8
ENDMDL
MODEL 2
REMARK VINA RESULT: -5.658716896      1.212      1.286
REMARK  8 active torsions:
REMARK  status: ('A' for Active; 'I' for Inactive)
REMARK    1  A    between atoms: C2_2  and  C3_3 
REMARK    2  A    between atoms: C2_2  and  C6_11 
REMARK    3  A    between atoms: C3_3  and  N1_4 
REMARK    4  A    between atoms: C7_12  and  C8_13 
REMARK    5  A    between atoms: C9_17  and  N6_18 
REMARK    6  A    between atoms: N6_18  and  C10_20 
REMARK    7  A    between atoms: C10_20  and  C11_21 
REMARK    8  A    between atoms: C11_21  and  N7_22 
ROOT
HETATM    1  C6  UNL     1      -9.620 -22.116  16.679  1.00  0.00     0.064 A 
HETATM    2  C7  UNL     1     -10.323 -23.233  16.166  1.00  0.00     0.078 A 
HETATM    3  N5  UNL     1     -11.331 -23.037  15.327  1.00  0.00    -0.190 N 
ATOM      4  H5  UNL     1     -11.821 -23.856  14.968  1.00  0.00     0.184 HD
HETATM    5  C9  UNL     1     -11.752 -21.804  14.915  1.00  0.00     0.681 A 
HETATM    6  N8  UNL     1     -11.116 -20.744  15.380  1.00  0.00    -0.155 N 
ATOM      7  H8  UNL     1     -11.410 -19.810  15.093  1.00  0.00     0.187 HD
HETATM    8  C12 UNL     1     -10.086 -20.887  16.226  1.00  0.00     0.272 A 
HETATM    9  O1  UNL     1      -9.473 -19.841  16.662  1.00  0.00    -0.267 OA
ENDROOT
BRANCH   1  10
HETATM   10  C2  UNL     1      -8.630 -22.254  17.776  1.00  0.00    -0.046 C 
HETATM   11  C1  UNL     1      -7.210 -22.407  17.445  1.00  0.00     0.046 C 
BRANCH  10  12
HETATM   12  C3  UNL     1      -9.147 -22.525  19.145  1.00  0.00     0.184 C 
BRANCH  12  13
HETATM   13  N1  UNL     1     -10.043 -21.445  19.610  1.00  0.00    -0.283 N 
HETATM   14  C4  UNL     1     -11.366 -21.584  19.882  1.00  0.00     0.201 A 
HETATM   15  N2  UNL     1     -11.745 -20.348  20.333  1.00  0.00    -0.346 N 
HETATM   16  C5  UNL     1     -10.713 -19.521  20.327  1.00  0.00     0.198 A 
ATOM     17  H2  UNL     1     -12.688 -20.101  20.631  1.00  0.00     0.167 HD
HETATM   18  N3  UNL     1      -9.641 -20.221  19.871  1.00  0.00    -0.293 N 
ATOM     19  H3  UNL     1      -8.694 -19.861  19.752  1.00  0.00     0.188 HD
ENDBRANCH  12  13
ENDBRANCH  10  12
ENDBRANCH   1  10
BRANCH   2  20
HETATM   20  C8  UNL     1      -9.880 -24.556  16.508  1.00  0.00     0.131 C 
HETATM   21  N4  UNL     1      -8.998 -25.225  15.596  1.00  0.00    -0.113 NA
ENDBRANCH   2  20
BRANCH   5  22
HETATM   22  N6  UNL     1     -12.681 -21.633  14.080  1.00  0.00    -0.224 N 
ATOM     23  H6  UNL     1     -12.468 -21.933  13.128  1.00  0.00     0.177 HD
BRANCH  22  24
HETATM   24  C10 UNL     1     -13.975 -21.088  14.261  1.00  0.00     0.165 C 
BRANCH  24  25
HETATM   25  C11 UNL     1     -14.770 -22.042  15.135  1.00  0.00     0.249 C 
BRANCH  25  26
HETATM   26  N7  UNL     1     -15.548 -21.324  16.108  1.00  0.00    -0.078 N 
ATOM     27  H73 UNL     1     -15.565 -20.324  15.911  1.00  0.00     0.274 HD
ATOM     28  H72 UNL     1     -16.544 -21.519  16.010  1.00  0.00     0.274 HD
ATOM     29  H71 UNL     1     -15.218 -21.516  17.054  1.00  0.00     0.274 HD
ENDBRANCH  25  26
ENDBRANCH  24  25
ENDBRANCH  22  24
ENDBRANCH   5  22
TORSDOF 8
ENDMDL
MODEL 3
REMARK VINA RESULT: -5.468255510      1.537      2.385
REMARK  8 active torsions:
REMARK  status: ('A' for Active; 'I' for Inactive)
REMARK    1  A    between atoms: C2_2  and  C3_3 
REMARK    2  A    between atoms: C2_2  and  C6_11 
REMARK    3  A    between atoms: C3_3  and  N1_4 
REMARK    4  A    between atoms: C7_12  and  C8_13 
REMARK    5  A    between atoms: C9_17  and  N6_18 
REMARK    6  A    between atoms: N6_18  and  C10_20 
REMARK    7  A    between atoms: C10_20  and  C11_21 
REMARK    8  A    between atoms: C11_21  and  N7_22 
ROOT
HETATM    1  C6  UNL     1      -8.630 -21.721  17.517  1.00  0.00     0.064 A 
HETATM    2  C7  UNL     1      -9.474 -20.614  17.261  1.00  0.00     0.078 A 
HETATM    3  N5  UNL     1     -10.488 -20.750  16.417  1.00  0.00    -0.190 N 
ATOM      4  H5  UNL     1     -11.085 -19.940  16.250  1.00  0.00     0.184 HD
HETATM    5  C9  UNL     1     -10.780 -21.911  15.757  1.00  0.00     0.681 A 
HETATM    6  N8  UNL     1     -10.007 -22.960  15.975  1.00  0.00    -0.155 N 
ATOM      7  H8  UNL     1     -10.198 -23.839  15.494  1.00  0.00     0.187 HD
HETATM    8  C12 UNL     1      -8.973 -22.876  16.824  1.00  0.00     0.272 A 
HETATM    9  O1  UNL     1      -8.235 -23.913  17.030  1.00  0.00    -0.267 OA
ENDROOT
BRANCH   1  10
HETATM   10  C2  UNL     1      -7.365 -21.578  18.280  1.00  0.00    -0.046 C 
HETATM   11  C1  UNL     1      -6.210 -20.938  17.641  1.00  0.00     0.046 C 
BRANCH  10  12
HETATM   12  C3  UNL     1      -7.231 -22.344  19.548  1.00  0.00     0.184 C 
BRANCH  12  13
HETATM   13  N1  UNL     1      -8.391 -22.126  20.439  1.00  0.00    -0.283 N 
HETATM   14  C4  UNL     1      -9.428 -22.986  20.604  1.00  0.00     0.201 A 
HETATM   15  N2  UNL     1     -10.207 -22.389  21.559  1.00  0.00    -0.346 N 
HETATM   16  C5  UNL     1      -9.670 -21.241  21.937  1.00  0.00     0.198 A 
ATOM     17  H2  UNL     1     -11.077 -22.774  21.926  1.00  0.00     0.167 HD
HETATM   18  N3  UNL     1      -8.522 -21.082  21.227  1.00  0.00    -0.293 N 
ATOM     19  H3  UNL     1      -7.878 -20.294  21.293  1.00  0.00     0.188 HD
ENDBRANCH  12  13
ENDBRANCH  10  12
ENDBRANCH   1  10
BRANCH   2  20
HETATM   20  C8  UNL     1      -9.259 -19.388  17.980  1.00  0.00     0.131 C 
HETATM   21  N4  UNL     1      -9.954 -19.207  19.221  1.00  0.00    -0.113 NA
ENDBRANCH   2  20
BRANCH   5  22
HETATM   22  N6  UNL     1     -11.774 -22.042  14.993  1.00  0.00    -0.224 N 
ATOM     23  H6  UNL     1     -11.580 -21.894  14.003  1.00  0.00     0.177 HD
BRANCH  22  24
HETATM   24  C10 UNL     1     -13.119 -22.362  15.300  1.00  0.00     0.165 C 
BRANCH  24  25
HETATM   25  C11 UNL     1     -14.013 -21.335  14.631  1.00  0.00     0.249 C 
BRANCH  25  26
HETATM   26  N7  UNL     1     -15.205 -21.107  15.401  1.00  0.00    -0.078 N 
ATOM     27  H73 UNL     1     -15.762 -21.957  15.490  1.00  0.00     0.274 HD
ATOM     28  H72 UNL     1     -14.992 -20.957  16.387  1.00  0.00     0.274 HD
ATOM     29  H71 UNL     1     -15.751 -20.338  15.013  1.00  0.00     0.274 HD
ENDBRANCH  25  26
ENDBRANCH  24  25
ENDBRANCH  22  24
ENDBRANCH   5  22
TORSDOF 8
ENDMDL
MODEL 4
REMARK VINA RESULT: -5.414567298      2.006      4.427
REMARK  8 active torsions:
REMARK  status: ('A' for Active; 'I' for Inactive)
REMARK    1  A    between atoms: C2_2  and  C3_3 
REMARK    2  A    between atoms: C2_2  and  C6_11 
REMARK    3  A    between atoms: C3_3  and  N1_4 
REMARK    4  A    between atoms: C7_12  and  C8_13 
REMARK    5  A    between atoms: C9_17  and  N6_18 
REMARK    6  A    between atoms: N6_18  and  C10_20 
REMARK    7  A    between atoms: C10_20  and  C11_21 
REMARK    8  A    between atoms: C11_21  and  N7_22 
ROOT
HETATM    1  C6  UNL     1      -8.442 -21.036  18.897  1.00  0.00     0.064 A 
HETATM    2  C7  UNL     1      -8.484 -21.387  20.269  1.00  0.00     0.078 A 
HETATM    3  N5  UNL     1      -9.319 -20.749  21.077  1.00  0.00    -0.190 N 
ATOM      4  H5  UNL     1      -9.335 -21.020  22.061  1.00  0.00     0.184 HD
HETATM    5  C9  UNL     1     -10.160 -19.750  20.673  1.00  0.00     0.681 A 
HETATM    6  N8  UNL     1     -10.139 -19.401  19.399  1.00  0.00    -0.155 N 
ATOM      7  H8  UNL     1     -10.752 -18.656  19.068  1.00  0.00     0.187 HD
HETATM    8  C12 UNL     1      -9.318 -20.019  18.538  1.00  0.00     0.272 A 
HETATM    9  O1  UNL     1      -9.319 -19.669  17.298  1.00  0.00    -0.267 OA
ENDROOT
BRANCH   1  10
HETATM   10  C2  UNL     1      -7.390 -21.560  17.991  1.00  0.00    -0.046 C 
HETATM   11  C1  UNL     1      -6.350 -20.651  17.498  1.00  0.00     0.046 C 
BRANCH  10  12
HETATM   12  C3  UNL     1      -7.601 -22.905  17.390  1.00  0.00     0.184 C 
BRANCH  12  13
HETATM   13  N1  UNL     1      -9.022 -23.130  17.048  1.00  0.00    -0.283 N 
HETATM   14  C4  UNL     1      -9.864 -23.969  17.704  1.00  0.00     0.201 A 
HETATM   15  N2  UNL     1     -11.066 -23.793  17.073  1.00  0.00    -0.346 N 
HETATM   16  C5  UNL     1     -10.949 -22.907  16.099  1.00  0.00     0.198 A 
ATOM     17  H2  UNL     1     -11.930 -24.277  17.320  1.00  0.00     0.167 HD
HETATM   18  N3  UNL     1      -9.655 -22.491  16.090  1.00  0.00    -0.293 N 
ATOM     19  H3  UNL     1      -9.247 -21.806  15.454  1.00  0.00     0.188 HD
ENDBRANCH  12  13
ENDBRANCH  10  12
ENDBRANCH   1  10
BRANCH   2  20
HETATM   20  C8  UNL     1      -7.675 -22.478  20.737  1.00  0.00     0.131 C 
HETATM   21  N4  UNL     1      -6.564 -22.172  21.590  1.00  0.00    -0.113 NA
ENDBRANCH   2  20
BRANCH   5  22
HETATM   22  N6  UNL     1     -10.982 -19.184  21.441  1.00  0.00    -0.224 N 
ATOM     23  H6  UNL     1     -10.572 -18.747  22.268  1.00  0.00     0.177 HD
BRANCH  22  24
HETATM   24  C10 UNL     1     -12.388 -19.060  21.334  1.00  0.00     0.165 C 
BRANCH  24  25
HETATM   25  C11 UNL     1     -12.960 -20.432  21.023  1.00  0.00     0.249 C 
BRANCH  25  26
HETATM   26  N7  UNL     1     -13.884 -20.370  19.924  1.00  0.00    -0.078 N 
ATOM     27  H73 UNL     1     -14.851 -20.373  20.247  1.00  0.00     0.274 HD
ATOM     28  H72 UNL     1     -13.872 -19.455  19.475  1.00  0.00     0.274 HD
ATOM     29  H71 UNL     1     -13.708 -21.120  19.255  1.00  0.00     0.274 HD
ENDBRANCH  25  26
ENDBRANCH  24  25
ENDBRANCH  22  24
ENDBRANCH   5  22
TORSDOF 8
ENDMDL
MODEL 5
REMARK VINA RESULT: -5.368375093      2.081      5.327
REMARK  8 active torsions:
REMARK  status: ('A' for Active; 'I' for Inactive)
REMARK    1  A    between atoms: C2_2  and  C3_3 
REMARK    2  A    between atoms: C2_2  and  C6_11 
REMARK    3  A    between atoms: C3_3  and  N1_4 
REMARK    4  A    between atoms: C7_12  and  C8_13 
REMARK    5  A    between atoms: C9_17  and  N6_18 
REMARK    6  A    between atoms: N6_18  and  C10_20 
REMARK    7  A    between atoms: C10_20  and  C11_21 
REMARK    8  A    between atoms: C11_21  and  N7_22 
ROOT
HETATM    1  C6  UNL     1      -8.407 -21.027  18.908  1.00  0.00     0.064 A 
HETATM    2  C7  UNL     1      -8.409 -21.333  20.290  1.00  0.00     0.078 A 
HETATM    3  N5  UNL     1      -9.220 -20.670  21.102  1.00  0.00    -0.190 N 
ATOM      4  H5  UNL     1      -9.207 -20.909  22.094  1.00  0.00     0.184 HD
HETATM    5  C9  UNL     1     -10.075 -19.686  20.690  1.00  0.00     0.681 A 
HETATM    6  N8  UNL     1     -10.092 -19.378  19.406  1.00  0.00    -0.155 N 
ATOM      7  H8  UNL     1     -10.717 -18.645  19.069  1.00  0.00     0.187 HD
HETATM    8  C12 UNL     1      -9.296 -20.023  18.542  1.00  0.00     0.272 A 
HETATM    9  O1  UNL     1      -9.334 -19.714  17.291  1.00  0.00    -0.267 OA
ENDROOT
BRANCH   1  10
HETATM   10  C2  UNL     1      -7.382 -21.579  17.988  1.00  0.00    -0.046 C 
HETATM   11  C1  UNL     1      -6.345 -20.690  17.454  1.00  0.00     0.046 C 
BRANCH  10  12
HETATM   12  C3  UNL     1      -7.619 -22.933  17.420  1.00  0.00     0.184 C 
BRANCH  12  13
HETATM   13  N1  UNL     1      -9.044 -23.139  17.083  1.00  0.00    -0.283 N 
HETATM   14  C4  UNL     1      -9.906 -23.933  17.769  1.00  0.00     0.201 A 
HETATM   15  N2  UNL     1     -11.103 -23.754  17.129  1.00  0.00    -0.346 N 
HETATM   16  C5  UNL     1     -10.964 -22.909  16.121  1.00  0.00     0.198 A 
ATOM     17  H2  UNL     1     -11.978 -24.208  17.393  1.00  0.00     0.167 HD
HETATM   18  N3  UNL     1      -9.661 -22.523  16.100  1.00  0.00    -0.293 N 
ATOM     19  H3  UNL     1      -9.237 -21.873  15.438  1.00  0.00     0.188 HD
ENDBRANCH  12  13
ENDBRANCH  10  12
ENDBRANCH   1  10
BRANCH   2  20
HETATM   20  C8  UNL     1      -7.584 -22.407  20.770  1.00  0.00     0.131 C 
HETATM   21  N4  UNL     1      -6.606 -22.106  21.775  1.00  0.00    -0.113 NA
ENDBRANCH   2  20
BRANCH   5  22
HETATM   22  N6  UNL     1     -10.876 -19.096  21.464  1.00  0.00    -0.224 N 
ATOM     23  H6  UNL     1     -11.761 -18.819  21.040  1.00  0.00     0.177 HD
BRANCH  22  24
HETATM   24  C10 UNL     1     -10.734 -18.758  22.832  1.00  0.00     0.165 C 
BRANCH  24  25
HETATM   25  C11 UNL     1      -9.815 -17.554  22.927  1.00  0.00     0.249 C 
BRANCH  25  26
HETATM   26  N7  UNL     1     -10.343 -16.571  23.833  1.00  0.00    -0.078 N 
ATOM     27  H73 UNL     1     -11.356 -16.486  23.745  1.00  0.00     0.274 HD
ATOM     28  H72 UNL     1     -10.297 -16.888  24.801  1.00  0.00     0.274 HD
ATOM     29  H71 UNL     1      -9.878 -15.671  23.709  1.00  0.00     0.274 HD
ENDBRANCH  25  26
ENDBRANCH  24  25
ENDBRANCH  22  24
ENDBRANCH   5  22
TORSDOF 8
ENDMDL
