MODEL 1
REMARK VINA RESULT: -4.216309114      0.000      0.000
REMARK  3 active torsions:
REMARK  status: ('A' for Active; 'I' for Inactive)
REMARK    1  A    between atoms: C1_4  and  N2_5 
REMARK    2  A    between atoms: N2_5  and  N3_7 
REMARK    3  A    between atoms: C4_10  and  N4_11 
ROOT
HETATM    1  N3  UNL     1       9.792  -8.925  22.971  1.00  0.00    -0.325 N 
HETATM    2  C2  UNL     1       8.870  -9.453  23.877  1.00  0.00     0.144 C 
HETATM    3  C3  UNL     1       7.892 -10.142  22.912  1.00  0.00     0.056 C 
HETATM    4  C4  UNL     1       7.798  -9.038  21.851  1.00  0.00     0.204 C 
HETATM    5  C5  UNL     1       9.209  -8.440  21.810  1.00  0.00     0.175 C 
ENDROOT
BRANCH   1   6
HETATM    6  N2  UNL     1      11.068  -8.761  23.277  1.00  0.00    -0.299 N 
ATOM      7  H2  UNL     1      11.311  -8.307  24.157  1.00  0.00     0.187 HD
BRANCH   6   8
HETATM    8  C1  UNL     1      12.114  -9.198  22.415  1.00  0.00     0.190 C 
HETATM    9  N1  UNL     1      13.362  -9.172  22.740  1.00  0.00    -0.394 N 
ATOM     10  H12 UNL     1      13.594  -8.817  23.668  1.00  0.00     0.156 HD
ATOM     11  H11 UNL     1      14.111  -9.485  22.123  1.00  0.00     0.156 HD
ENDBRANCH   6   8
ENDBRANCH   1   6
BRANCH   4  12
HETATM   12  N4  UNL     1       7.466  -9.653  20.579  1.00  0.00    -0.073 N 
ATOM     13  H43 UNL     1       7.861  -9.149  19.785  1.00  0.00     0.274 HD
ATOM     14  H42 UNL     1       7.948 -10.540  20.434  1.00  0.00     0.274 HD
ATOM     15  H41 UNL     1       6.451  -9.744  20.521  1.00  0.00     0.274 HD
ENDBRANCH   4  12
TORSDOF 3
ENDMDL
MODEL 2
REMARK VINA RESULT: -4.156122850      2.393      3.719
REMARK  3 active torsions:
REMARK  status: ('A' for Active; 'I' for Inactive)
REMARK    1  A    between atoms: C1_4  and  N2_5 
REMARK    2  A    between atoms: N2_5  and  N3_7 
REMARK    3  A    between atoms: C4_10  and  N4_11 
ROOT
HETATM    1  N3  UNL     1      13.068 -10.483  22.680  1.00  0.00    -0.325 N 
HETATM    2  C2  UNL     1      12.531 -10.789  23.932  1.00  0.00     0.144 C 
HETATM    3  C3  UNL     1      11.062 -10.392  23.711  1.00  0.00     0.056 C 
HETATM    4  C4  UNL     1      11.289  -9.070  22.968  1.00  0.00     0.204 C 
HETATM    5  C5  UNL     1      12.540  -9.330  22.120  1.00  0.00     0.175 C 
ENDROOT
BRANCH   1   6
HETATM    6  N2  UNL     1      14.095 -11.145  22.172  1.00  0.00    -0.299 N 
ATOM      7  H2  UNL     1      14.115 -11.331  21.170  1.00  0.00     0.187 HD
BRANCH   6   8
HETATM    8  C1  UNL     1      15.171 -11.604  22.981  1.00  0.00     0.190 C 
HETATM    9  N1  UNL     1      16.020 -12.497  22.597  1.00  0.00    -0.394 N 
ATOM     10  H12 UNL     1      15.898 -12.883  21.661  1.00  0.00     0.156 HD
ATOM     11  H11 UNL     1      16.792 -12.826  23.177  1.00  0.00     0.156 HD
ENDBRANCH   6   8
ENDBRANCH   1   6
BRANCH   4  12
HETATM   12  N4  UNL     1      10.139  -8.819  22.119  1.00  0.00    -0.073 N 
ATOM     13  H43 UNL     1       9.951  -9.590  21.477  1.00  0.00     0.274 HD
ATOM     14  H42 UNL     1       9.259  -8.847  22.632  1.00  0.00     0.274 HD
ATOM     15  H41 UNL     1      10.284  -7.932  21.635  1.00  0.00     0.274 HD
ENDBRANCH   4  12
TORSDOF 3
ENDMDL
MODEL 3
REMARK VINA RESULT: -4.153254313      2.134      2.867
REMARK  3 active torsions:
REMARK  status: ('A' for Active; 'I' for Inactive)
REMARK    1  A    between atoms: C1_4  and  N2_5 
REMARK    2  A    between atoms: N2_5  and  N3_7 
REMARK    3  A    between atoms: C4_10  and  N4_11 
ROOT
HETATM    1  N3  UNL     1       7.805  -9.945  22.784  1.00  0.00    -0.325 N 
HETATM    2  C2  UNL     1       7.221  -9.809  21.523  1.00  0.00     0.144 C 
HETATM    3  C3  UNL     1       5.975  -8.984  21.879  1.00  0.00     0.056 C 
HETATM    4  C4  UNL     1       5.554  -9.736  23.148  1.00  0.00     0.204 C 
HETATM    5  C5  UNL     1       6.883 -10.134  23.801  1.00  0.00     0.175 C 
ENDROOT
BRANCH   1   6
HETATM    6  N2  UNL     1       9.114 -10.047  22.948  1.00  0.00    -0.299 N 
ATOM      7  H2  UNL     1       9.514 -10.957  23.179  1.00  0.00     0.187 HD
BRANCH   6   8
HETATM    8  C1  UNL     1       9.981  -8.927  22.813  1.00  0.00     0.190 C 
HETATM    9  N1  UNL     1      11.135  -8.985  22.239  1.00  0.00    -0.394 N 
ATOM     10  H12 UNL     1      11.426  -9.890  21.869  1.00  0.00     0.156 HD
ATOM     11  H11 UNL     1      11.757  -8.182  22.142  1.00  0.00     0.156 HD
ENDBRANCH   6   8
ENDBRANCH   1   6
BRANCH   4  12
HETATM   12  N4  UNL     1       4.820  -8.819  24.001  1.00  0.00    -0.073 N 
ATOM     13  H43 UNL     1       4.252  -8.160  23.470  1.00  0.00     0.274 HD
ATOM     14  H42 UNL     1       4.064  -9.276  24.510  1.00  0.00     0.274 HD
ATOM     15  H41 UNL     1       5.485  -8.354  24.620  1.00  0.00     0.274 HD
ENDBRANCH   4  12
TORSDOF 3
ENDMDL
MODEL 4
REMARK VINA RESULT: -4.148803561      3.466      6.058
REMARK  3 active torsions:
REMARK  status: ('A' for Active; 'I' for Inactive)
REMARK    1  A    between atoms: C1_4  and  N2_5 
REMARK    2  A    between atoms: N2_5  and  N3_7 
REMARK    3  A    between atoms: C4_10  and  N4_11 
ROOT
HETATM    1  N3  UNL     1      13.963 -11.097  22.568  1.00  0.00    -0.325 N 
HETATM    2  C2  UNL     1      15.087 -10.884  23.369  1.00  0.00     0.144 C 
HETATM    3  C3  UNL     1      15.901 -12.148  23.052  1.00  0.00     0.056 C 
HETATM    4  C4  UNL     1      14.761 -13.175  23.105  1.00  0.00     0.204 C 
HETATM    5  C5  UNL     1      13.555 -12.422  22.531  1.00  0.00     0.175 C 
ENDROOT
BRANCH   1   6
HETATM    6  N2  UNL     1      13.271 -10.100  22.042  1.00  0.00    -0.299 N 
ATOM      7  H2  UNL     1      13.454  -9.827  21.077  1.00  0.00     0.187 HD
BRANCH   6   8
HETATM    8  C1  UNL     1      12.280  -9.396  22.782  1.00  0.00     0.190 C 
HETATM    9  N1  UNL     1      11.123  -9.083  22.303  1.00  0.00    -0.394 N 
ATOM     10  H12 UNL     1      10.925  -9.363  21.342  1.00  0.00     0.156 HD
ATOM     11  H11 UNL     1      10.412  -8.579  22.833  1.00  0.00     0.156 HD
ENDBRANCH   6   8
ENDBRANCH   1   6
BRANCH   4  12
HETATM   12  N4  UNL     1      15.116 -14.295  22.253  1.00  0.00    -0.073 N 
ATOM     13  H43 UNL     1      15.049 -14.070  21.261  1.00  0.00     0.274 HD
ATOM     14  H42 UNL     1      16.113 -14.508  22.280  1.00  0.00     0.274 HD
ATOM     15  H41 UNL     1      14.537 -15.094  22.515  1.00  0.00     0.274 HD
ENDBRANCH   4  12
TORSDOF 3
ENDMDL
MODEL 5
REMARK VINA RESULT: -4.106543298      2.149      2.318
REMARK  3 active torsions:
REMARK  status: ('A' for Active; 'I' for Inactive)
REMARK    1  A    between atoms: C1_4  and  N2_5 
REMARK    2  A    between atoms: N2_5  and  N3_7 
REMARK    3  A    between atoms: C4_10  and  N4_11 
ROOT
HETATM    1  N3  UNL     1       8.469  -9.440  23.007  1.00  0.00    -0.325 N 
HETATM    2  C2  UNL     1       7.126  -9.681  22.709  1.00  0.00     0.144 C 
HETATM    3  C3  UNL     1       7.167  -9.635  21.173  1.00  0.00     0.056 C 
HETATM    4  C4  UNL     1       8.070  -8.406  21.004  1.00  0.00     0.204 C 
HETATM    5  C5  UNL     1       9.062  -8.509  22.168  1.00  0.00     0.175 C 
ENDROOT
BRANCH   1   6
HETATM    6  N2  UNL     1       9.051  -9.934  24.087  1.00  0.00    -0.299 N 
ATOM      7  H2  UNL     1       9.073  -9.373  24.938  1.00  0.00     0.187 HD
BRANCH   6   8
HETATM    8  C1  UNL     1       9.650 -11.226  24.098  1.00  0.00     0.190 C 
HETATM    9  N1  UNL     1      10.571 -11.590  23.271  1.00  0.00    -0.394 N 
ATOM     10  H12 UNL     1      10.874 -10.904  22.579  1.00  0.00     0.156 HD
ATOM     11  H11 UNL     1      11.000 -12.516  23.278  1.00  0.00     0.156 HD
ENDBRANCH   6   8
ENDBRANCH   1   6
BRANCH   4  12
HETATM   12  N4  UNL     1       8.761  -8.518  19.733  1.00  0.00    -0.073 N 
ATOM     13  H43 UNL     1       8.205  -8.997  19.025  1.00  0.00     0.274 HD
ATOM     14  H42 UNL     1       8.852  -7.622  19.254  1.00  0.00     0.274 HD
ATOM     15  H41 UNL     1       9.662  -8.969  19.895  1.00  0.00     0.274 HD
ENDBRANCH   4  12
TORSDOF 3
ENDMDL
