MODEL 1
REMARK VINA RESULT: -3.635571294      0.000      0.000
REMARK  3 active torsions:
REMARK  status: ('A' for Active; 'I' for Inactive)
REMARK    1  A    between atoms: N1_1  and  N2_4 
REMARK    2  A    between atoms: N2_4  and  S1_6 
REMARK    3  A    between atoms: S1_6  and  C1_7 
ROOT
HETATM    1  C1  UNL     1      12.852  -9.837  23.353  1.00  0.00     0.121 C 
HETATM    2  C2  UNL     1      12.626  -9.213  21.996  1.00  0.00     0.251 C 
HETATM    3  N3  UNL     1      11.201  -9.117  22.278  1.00  0.00    -0.073 N 
ATOM      4  H31 UNL     1      10.541  -9.759  21.838  1.00  0.00     0.277 HD
ATOM      5  H32 UNL     1      10.655  -8.330  21.926  1.00  0.00     0.277 HD
HETATM    6  C3  UNL     1      11.501  -9.227  23.677  1.00  0.00     0.251 C 
ENDROOT
BRANCH   1   7
HETATM    7  S1  UNL     1      12.869 -11.664  23.358  1.00  0.00    -0.031 SA
BRANCH   7   8
HETATM    8  N2  UNL     1      13.450 -12.389  22.022  1.00  0.00    -0.280 N 
ATOM      9  H2  UNL     1      13.988 -11.824  21.364  1.00  0.00     0.194 HD
BRANCH   8  10
HETATM   10  N1  UNL     1      13.257 -13.717  21.731  1.00  0.00    -0.339 N 
ATOM     11  H12 UNL     1      12.368 -14.130  22.011  1.00  0.00     0.177 HD
ATOM     12  H11 UNL     1      13.949 -14.298  21.256  1.00  0.00     0.177 HD
ENDBRANCH   8  10
ENDBRANCH   7   8
ENDBRANCH   1   7
TORSDOF 3
ENDMDL
MODEL 2
REMARK VINA RESULT: -3.600923934      1.146      1.356
REMARK  3 active torsions:
REMARK  status: ('A' for Active; 'I' for Inactive)
REMARK    1  A    between atoms: N1_1  and  N2_4 
REMARK    2  A    between atoms: N2_4  and  S1_6 
REMARK    3  A    between atoms: S1_6  and  C1_7 
ROOT
HETATM    1  C1  UNL     1      12.549 -10.491  24.007  1.00  0.00     0.121 C 
HETATM    2  C2  UNL     1      13.943  -9.972  23.739  1.00  0.00     0.251 C 
HETATM    3  N3  UNL     1      13.430  -9.165  22.641  1.00  0.00    -0.073 N 
ATOM      4  H31 UNL     1      13.596  -9.442  21.673  1.00  0.00     0.277 HD
ATOM      5  H32 UNL     1      13.834  -8.251  22.437  1.00  0.00     0.277 HD
HETATM    6  C3  UNL     1      12.119  -9.271  23.214  1.00  0.00     0.251 C 
ENDROOT
BRANCH   1   7
HETATM    7  S1  UNL     1      12.162 -12.084  23.199  1.00  0.00    -0.031 SA
BRANCH   7   8
HETATM    8  N2  UNL     1      13.247 -12.632  22.116  1.00  0.00    -0.280 N 
ATOM      9  H2  UNL     1      13.915 -11.966  21.726  1.00  0.00     0.194 HD
BRANCH   8  10
HETATM   10  N1  UNL     1      13.315 -13.939  21.700  1.00  0.00    -0.339 N 
ATOM     11  H12 UNL     1      14.237 -14.373  21.682  1.00  0.00     0.177 HD
ATOM     12  H11 UNL     1      12.501 -14.484  21.415  1.00  0.00     0.177 HD
ENDBRANCH   8  10
ENDBRANCH   7   8
ENDBRANCH   1   7
TORSDOF 3
ENDMDL
MODEL 3
REMARK VINA RESULT: -3.536890186      5.936      6.557
REMARK  3 active torsions:
REMARK  status: ('A' for Active; 'I' for Inactive)
REMARK    1  A    between atoms: N1_1  and  N2_4 
REMARK    2  A    between atoms: N2_4  and  S1_6 
REMARK    3  A    between atoms: S1_6  and  C1_7 
ROOT
HETATM    1  C1  UNL     1       6.118 -10.150  22.685  1.00  0.00     0.121 C 
HETATM    2  C2  UNL     1       6.950 -10.068  23.944  1.00  0.00     0.251 C 
HETATM    3  N3  UNL     1       5.968  -9.169  24.534  1.00  0.00    -0.073 N 
ATOM      4  H31 UNL     1       6.163  -8.171  24.616  1.00  0.00     0.277 HD
ATOM      5  H32 UNL     1       5.770  -9.202  25.534  1.00  0.00     0.277 HD
HETATM    6  C3  UNL     1       5.003  -9.647  23.585  1.00  0.00     0.251 C 
ENDROOT
BRANCH   1   7
HETATM    7  S1  UNL     1       6.606  -8.975  21.372  1.00  0.00    -0.031 SA
BRANCH   7   8
HETATM    8  N2  UNL     1       7.814  -9.447  20.388  1.00  0.00    -0.280 N 
ATOM      9  H2  UNL     1       7.875 -10.435  20.141  1.00  0.00     0.194 HD
BRANCH   8  10
HETATM   10  N1  UNL     1       8.755  -8.590  19.873  1.00  0.00    -0.339 N 
ATOM     11  H12 UNL     1       8.592  -8.232  18.932  1.00  0.00     0.177 HD
ATOM     12  H11 UNL     1       9.593  -8.302  20.378  1.00  0.00     0.177 HD
ENDBRANCH   8  10
ENDBRANCH   7   8
ENDBRANCH   1   7
TORSDOF 3
ENDMDL
MODEL 4
REMARK VINA RESULT: -3.507663515      2.755      2.921
REMARK  3 active torsions:
REMARK  status: ('A' for Active; 'I' for Inactive)
REMARK    1  A    between atoms: N1_1  and  N2_4 
REMARK    2  A    between atoms: N2_4  and  S1_6 
REMARK    3  A    between atoms: S1_6  and  C1_7 
ROOT
HETATM    1  C1  UNL     1      10.857  -9.244  23.799  1.00  0.00     0.121 C 
HETATM    2  C2  UNL     1       9.897  -8.655  22.792  1.00  0.00     0.251 C 
HETATM    3  N3  UNL     1       9.102  -9.874  22.839  1.00  0.00    -0.073 N 
ATOM      4  H31 UNL     1       9.136 -10.545  22.071  1.00  0.00     0.277 HD
ATOM      5  H32 UNL     1       8.086  -9.835  22.746  1.00  0.00     0.277 HD
HETATM    6  C3  UNL     1       9.705 -10.185  24.103  1.00  0.00     0.251 C 
ENDROOT
BRANCH   1   7
HETATM    7  S1  UNL     1      12.319 -10.062  23.069  1.00  0.00    -0.031 SA
BRANCH   7   8
HETATM    8  N2  UNL     1      13.711  -9.219  23.093  1.00  0.00    -0.280 N 
ATOM      9  H2  UNL     1      13.734  -8.315  22.620  1.00  0.00     0.194 HD
BRANCH   8  10
HETATM   10  N1  UNL     1      14.855  -9.656  23.714  1.00  0.00    -0.339 N 
ATOM     11  H12 UNL     1      14.878 -10.630  24.014  1.00  0.00     0.177 HD
ATOM     12  H11 UNL     1      15.667  -9.062  23.885  1.00  0.00     0.177 HD
ENDBRANCH   8  10
ENDBRANCH   7   8
ENDBRANCH   1   7
TORSDOF 3
ENDMDL
MODEL 5
REMARK VINA RESULT: -3.486367739      2.951      4.089
REMARK  3 active torsions:
REMARK  status: ('A' for Active; 'I' for Inactive)
REMARK    1  A    between atoms: N1_1  and  N2_4 
REMARK    2  A    between atoms: N2_4  and  S1_6 
REMARK    3  A    between atoms: S1_6  and  C1_7 
ROOT
HETATM    1  C1  UNL     1      14.025 -12.678  23.620  1.00  0.00     0.121 C 
HETATM    2  C2  UNL     1      12.786 -12.637  22.755  1.00  0.00     0.251 C 
HETATM    3  N3  UNL     1      13.391 -13.599  21.844  1.00  0.00    -0.073 N 
ATOM      4  H31 UNL     1      13.753 -13.298  20.939  1.00  0.00     0.277 HD
ATOM      5  H32 UNL     1      12.816 -14.297  21.371  1.00  0.00     0.277 HD
HETATM    6  C3  UNL     1      14.288 -13.985  22.896  1.00  0.00     0.251 C 
ENDROOT
BRANCH   1   7
HETATM    7  S1  UNL     1      15.246 -11.366  23.262  1.00  0.00    -0.031 SA
BRANCH   7   8
HETATM    8  N2  UNL     1      14.812  -9.845  23.646  1.00  0.00    -0.280 N 
ATOM      9  H2  UNL     1      15.394  -9.330  24.306  1.00  0.00     0.194 HD
BRANCH   8  10
HETATM   10  N1  UNL     1      13.705  -9.216  23.130  1.00  0.00    -0.339 N 
ATOM     11  H12 UNL     1      12.808  -9.416  23.573  1.00  0.00     0.177 HD
ATOM     12  H11 UNL     1      13.738  -8.572  22.340  1.00  0.00     0.177 HD
ENDBRANCH   8  10
ENDBRANCH   7   8
ENDBRANCH   1   7
TORSDOF 3
ENDMDL
