MODEL 1
REMARK VINA RESULT: -4.137807106      0.000      0.000
REMARK  2 active torsions:
REMARK  status: ('A' for Active; 'I' for Inactive)
REMARK    1  A    between atoms: O1_2  and  N1_3 
REMARK    2  A    between atoms: C3_7  and  N3_8 
ROOT
HETATM    1  N1  UNL     1       6.134  -8.646  21.825  1.00  0.00    -0.142 N 
HETATM    2  C2  UNL     1       6.313  -9.902  21.421  1.00  0.00     0.251 A 
HETATM    3  N2  UNL     1       7.434 -10.034  20.684  1.00  0.00    -0.183 N 
ATOM      4  H2  UNL     1       7.799 -10.885  20.256  1.00  0.00     0.185 HD
HETATM    5  C3  UNL     1       7.966  -8.799  20.636  1.00  0.00     0.693 A 
HETATM    6  N4  UNL     1       7.174  -7.967  21.329  1.00  0.00    -0.105 N 
ATOM      7  H4  UNL     1       7.339  -6.969  21.457  1.00  0.00     0.208 HD
ENDROOT
BRANCH   5   8
HETATM    8  N3  UNL     1       9.054  -8.466  20.029  1.00  0.00    -0.233 N 
ATOM      9  H32 UNL     1       9.861  -9.073  19.885  1.00  0.00     0.174 HD
ATOM     10  H31 UNL     1       9.253  -7.557  19.612  1.00  0.00     0.174 HD
ENDBRANCH   5   8
BRANCH   1  11
HETATM   11  O1  UNL     1       5.105  -8.144  22.589  1.00  0.00    -0.262 OA
HETATM   12  C1  UNL     1       4.303  -7.110  22.008  1.00  0.00     0.240 C 
ENDBRANCH   1  11
TORSDOF 2
ENDMDL
MODEL 2
REMARK VINA RESULT: -4.137548269      2.901      3.601
REMARK  2 active torsions:
REMARK  status: ('A' for Active; 'I' for Inactive)
REMARK    1  A    between atoms: O1_2  and  N1_3 
REMARK    2  A    between atoms: C3_7  and  N3_8 
ROOT
HETATM    1  N1  UNL     1       7.990  -9.967  23.796  1.00  0.00    -0.142 N 
HETATM    2  C2  UNL     1       6.663 -10.043  23.734  1.00  0.00     0.251 A 
HETATM    3  N2  UNL     1       6.218  -9.973  22.464  1.00  0.00    -0.183 N 
ATOM      4  H2  UNL     1       5.251 -10.007  22.141  1.00  0.00     0.185 HD
HETATM    5  C3  UNL     1       7.329  -9.849  21.713  1.00  0.00     0.693 A 
HETATM    6  N4  UNL     1       8.395  -9.847  22.527  1.00  0.00    -0.105 N 
ATOM      7  H4  UNL     1       9.365  -9.766  22.225  1.00  0.00     0.208 HD
ENDROOT
BRANCH   5   8
HETATM    8  N3  UNL     1       7.366  -9.749  20.428  1.00  0.00    -0.233 N 
ATOM      9  H32 UNL     1       6.580  -9.909  19.798  1.00  0.00     0.174 HD
ATOM     10  H31 UNL     1       8.182  -9.497  19.871  1.00  0.00     0.174 HD
ENDBRANCH   5   8
BRANCH   1  11
HETATM   11  O1  UNL     1       8.786 -10.005  24.919  1.00  0.00    -0.262 OA
HETATM   12  C1  UNL     1      10.163  -9.644  24.758  1.00  0.00     0.240 C 
ENDBRANCH   1  11
TORSDOF 2
ENDMDL
MODEL 3
REMARK VINA RESULT: -4.097269425      3.283      4.304
REMARK  2 active torsions:
REMARK  status: ('A' for Active; 'I' for Inactive)
REMARK    1  A    between atoms: O1_2  and  N1_3 
REMARK    2  A    between atoms: C3_7  and  N3_8 
ROOT
HETATM    1  N1  UNL     1       9.883  -8.720  22.642  1.00  0.00    -0.142 N 
HETATM    2  C2  UNL     1       9.108  -9.385  23.496  1.00  0.00     0.251 A 
HETATM    3  N2  UNL     1       7.887  -9.624  22.979  1.00  0.00    -0.183 N 
ATOM      4  H2  UNL     1       7.109 -10.112  23.424  1.00  0.00     0.185 HD
HETATM    5  C3  UNL     1       7.917  -9.079  21.750  1.00  0.00     0.693 A 
HETATM    6  N4  UNL     1       9.127  -8.535  21.554  1.00  0.00    -0.105 N 
ATOM      7  H4  UNL     1       9.426  -8.054  20.707  1.00  0.00     0.208 HD
ENDROOT
BRANCH   5   8
HETATM    8  N3  UNL     1       6.948  -9.076  20.899  1.00  0.00    -0.233 N 
ATOM      9  H32 UNL     1       6.338  -9.867  20.693  1.00  0.00     0.174 HD
ATOM     10  H31 UNL     1       6.662  -8.287  20.319  1.00  0.00     0.174 HD
ENDBRANCH   5   8
BRANCH   1  11
HETATM   11  O1  UNL     1      11.183  -8.308  22.828  1.00  0.00    -0.262 OA
HETATM   12  C1  UNL     1      12.220  -9.222  22.449  1.00  0.00     0.240 C 
ENDBRANCH   1  11
TORSDOF 2
ENDMDL
MODEL 4
REMARK VINA RESULT: -4.058061210      5.845      6.583
REMARK  2 active torsions:
REMARK  status: ('A' for Active; 'I' for Inactive)
REMARK    1  A    between atoms: O1_2  and  N1_3 
REMARK    2  A    between atoms: C3_7  and  N3_8 
ROOT
HETATM    1  N1  UNL     1      12.225  -9.181  23.420  1.00  0.00    -0.142 N 
HETATM    2  C2  UNL     1      12.049 -10.246  24.199  1.00  0.00     0.251 A 
HETATM    3  N2  UNL     1      13.154 -11.015  24.250  1.00  0.00    -0.183 N 
ATOM      4  H2  UNL     1      13.283 -11.883  24.771  1.00  0.00     0.185 HD
HETATM    5  C3  UNL     1      14.049 -10.390  23.464  1.00  0.00     0.693 A 
HETATM    6  N4  UNL     1      13.479  -9.282  22.967  1.00  0.00    -0.105 N 
ATOM      7  H4  UNL     1      13.932  -8.618  22.340  1.00  0.00     0.208 HD
ENDROOT
BRANCH   5   8
HETATM    8  N3  UNL     1      15.254 -10.785  23.226  1.00  0.00    -0.233 N 
ATOM      9  H32 UNL     1      15.527 -11.448  22.501  1.00  0.00     0.174 HD
ATOM     10  H31 UNL     1      16.091 -10.489  23.727  1.00  0.00     0.174 HD
ENDBRANCH   5   8
BRANCH   1  11
HETATM   11  O1  UNL     1      11.319  -8.185  23.136  1.00  0.00    -0.262 OA
HETATM   12  C1  UNL     1       9.955  -8.577  22.937  1.00  0.00     0.240 C 
ENDBRANCH   1  11
TORSDOF 2
ENDMDL
MODEL 5
REMARK VINA RESULT: -4.045924413      3.748      4.400
REMARK  2 active torsions:
REMARK  status: ('A' for Active; 'I' for Inactive)
REMARK    1  A    between atoms: O1_2  and  N1_3 
REMARK    2  A    between atoms: C3_7  and  N3_8 
ROOT
HETATM    1  N1  UNL     1       9.759  -8.850  22.840  1.00  0.00    -0.142 N 
HETATM    2  C2  UNL     1      10.200  -9.003  24.087  1.00  0.00     0.251 A 
HETATM    3  N2  UNL     1      11.537  -9.164  24.128  1.00  0.00    -0.183 N 
ATOM      4  H2  UNL     1      12.121  -9.300  24.953  1.00  0.00     0.185 HD
HETATM    5  C3  UNL     1      11.933  -9.105  22.843  1.00  0.00     0.693 A 
HETATM    6  N4  UNL     1      10.852  -8.916  22.072  1.00  0.00    -0.105 N 
ATOM      7  H4  UNL     1      10.861  -8.833  21.056  1.00  0.00     0.208 HD
ENDROOT
BRANCH   5   8
HETATM    8  N3  UNL     1      13.146  -9.214  22.419  1.00  0.00    -0.233 N 
ATOM      9  H32 UNL     1      13.978  -9.247  23.007  1.00  0.00     0.174 HD
ATOM     10  H31 UNL     1      13.436  -9.280  21.444  1.00  0.00     0.174 HD
ENDBRANCH   5   8
BRANCH   1  11
HETATM   11  O1  UNL     1       8.461  -8.663  22.421  1.00  0.00    -0.262 OA
HETATM   12  C1  UNL     1       8.264  -8.272  21.057  1.00  0.00     0.240 C 
ENDBRANCH   1  11
TORSDOF 2
ENDMDL
