MODEL 1
REMARK VINA RESULT: -4.499830949      0.000      0.000
REMARK  2 active torsions:
REMARK  status: ('A' for Active; 'I' for Inactive)
REMARK    1  A    between atoms: N2_4  and  N3_6 
REMARK    2  A    between atoms: C4_11  and  N4_12 
ROOT
HETATM    1  N3  UNL     1      13.675 -11.495  21.780  1.00  0.00    -0.293 N 
ATOM      2  H3  UNL     1      14.195 -11.130  20.982  1.00  0.00     0.188 HD
HETATM    3  C1  UNL     1      12.900 -10.689  22.400  1.00  0.00     0.035 C 
HETATM    4  C2  UNL     1      12.554  -9.263  22.227  1.00  0.00     0.058 C 
HETATM    5  C3  UNL     1      11.997  -9.270  23.626  1.00  0.00     0.044 C 
HETATM    6  C4  UNL     1      11.999 -10.776  23.552  1.00  0.00     0.230 C 
ENDROOT
BRANCH   1   7
HETATM    7  N2  UNL     1      13.862 -12.829  22.113  1.00  0.00    -0.249 N 
HETATM    8  N1  UNL     1      13.091 -13.716  21.656  1.00  0.00    -0.331 N 
ATOM      9  H12 UNL     1      12.328 -13.434  21.040  1.00  0.00     0.178 HD
ATOM     10  H11 UNL     1      13.229 -14.697  21.900  1.00  0.00     0.178 HD
ATOM     11  H2  UNL     1      14.629 -13.094  22.730  1.00  0.00     0.207 HD
ENDBRANCH   1   7
BRANCH   6  12
HETATM   12  N4  UNL     1      10.740 -11.382  23.229  1.00  0.00    -0.070 N 
ATOM     13  H43 UNL     1      10.319 -10.938  22.413  1.00  0.00     0.275 HD
ATOM     14  H42 UNL     1      10.872 -12.323  22.856  1.00  0.00     0.275 HD
ATOM     15  H41 UNL     1      10.091 -11.389  24.016  1.00  0.00     0.275 HD
ENDBRANCH   6  12
TORSDOF 2
ENDMDL
MODEL 2
REMARK VINA RESULT: -4.400949211      1.321      1.867
REMARK  2 active torsions:
REMARK  status: ('A' for Active; 'I' for Inactive)
REMARK    1  A    between atoms: N2_4  and  N3_6 
REMARK    2  A    between atoms: C4_11  and  N4_12 
ROOT
HETATM    1  N3  UNL     1      12.269 -12.119  22.732  1.00  0.00    -0.293 N 
ATOM      2  H3  UNL     1      11.653 -12.805  23.168  1.00  0.00     0.188 HD
HETATM    3  C1  UNL     1      12.020 -10.882  22.944  1.00  0.00     0.035 C 
HETATM    4  C2  UNL     1      10.987 -10.163  23.717  1.00  0.00     0.058 C 
HETATM    5  C3  UNL     1      11.343  -8.914  22.954  1.00  0.00     0.044 C 
HETATM    6  C4  UNL     1      12.616  -9.607  22.539  1.00  0.00     0.230 C 
ENDROOT
BRANCH   1   7
HETATM    7  N2  UNL     1      13.315 -12.595  21.955  1.00  0.00    -0.249 N 
HETATM    8  N1  UNL     1      13.443 -13.832  21.744  1.00  0.00    -0.331 N 
ATOM      9  H12 UNL     1      12.764 -14.474  22.156  1.00  0.00     0.178 HD
ATOM     10  H11 UNL     1      14.211 -14.183  21.173  1.00  0.00     0.178 HD
ATOM     11  H2  UNL     1      13.984 -11.941  21.551  1.00  0.00     0.207 HD
ENDBRANCH   1   7
BRANCH   6  12
HETATM   12  N4  UNL     1      13.783  -9.270  23.302  1.00  0.00    -0.070 N 
ATOM     13  H43 UNL     1      13.644  -8.399  23.817  1.00  0.00     0.275 HD
ATOM     14  H42 UNL     1      13.902  -9.910  24.088  1.00  0.00     0.275 HD
ATOM     15  H41 UNL     1      14.629  -9.227  22.734  1.00  0.00     0.275 HD
ENDBRANCH   6  12
TORSDOF 2
ENDMDL
MODEL 3
REMARK VINA RESULT: -4.375038436      4.517      5.363
REMARK  2 active torsions:
REMARK  status: ('A' for Active; 'I' for Inactive)
REMARK    1  A    between atoms: N2_4  and  N3_6 
REMARK    2  A    between atoms: C4_11  and  N4_12 
ROOT
HETATM    1  N3  UNL     1       8.701  -9.184  21.776  1.00  0.00    -0.293 N 
ATOM      2  H3  UNL     1       8.709  -9.202  20.756  1.00  0.00     0.188 HD
HETATM    3  C1  UNL     1       7.667  -9.647  22.367  1.00  0.00     0.035 C 
HETATM    4  C2  UNL     1       6.397 -10.239  21.898  1.00  0.00     0.058 C 
HETATM    5  C3  UNL     1       5.825 -10.001  23.270  1.00  0.00     0.044 C 
HETATM    6  C4  UNL     1       7.239  -9.815  23.758  1.00  0.00     0.230 C 
ENDROOT
BRANCH   1   7
HETATM    7  N2  UNL     1       9.813  -8.659  22.418  1.00  0.00    -0.249 N 
HETATM    8  N1  UNL     1      10.971  -9.067  22.128  1.00  0.00    -0.331 N 
ATOM      9  H12 UNL     1      11.073  -9.789  21.414  1.00  0.00     0.178 HD
ATOM     10  H11 UNL     1      11.789  -8.681  22.600  1.00  0.00     0.178 HD
ATOM     11  H2  UNL     1       9.694  -7.938  23.129  1.00  0.00     0.207 HD
ENDBRANCH   1   7
BRANCH   6  12
HETATM   12  N4  UNL     1       7.833 -10.958  24.389  1.00  0.00    -0.070 N 
ATOM     13  H43 UNL     1       7.235 -11.316  25.135  1.00  0.00     0.275 HD
ATOM     14  H42 UNL     1       7.823 -11.766  23.766  1.00  0.00     0.275 HD
ATOM     15  H41 UNL     1       8.776 -10.775  24.734  1.00  0.00     0.275 HD
ENDBRANCH   6  12
TORSDOF 2
ENDMDL
MODEL 4
REMARK VINA RESULT: -4.331410045      4.671      5.675
REMARK  2 active torsions:
REMARK  status: ('A' for Active; 'I' for Inactive)
REMARK    1  A    between atoms: N2_4  and  N3_6 
REMARK    2  A    between atoms: C4_11  and  N4_12 
ROOT
HETATM    1  N3  UNL     1       7.713  -9.222  20.553  1.00  0.00    -0.293 N 
ATOM      2  H3  UNL     1       7.007  -9.405  19.840  1.00  0.00     0.188 HD
HETATM    3  C1  UNL     1       7.469  -9.619  21.743  1.00  0.00     0.035 C 
HETATM    4  C2  UNL     1       6.335 -10.324  22.376  1.00  0.00     0.058 C 
HETATM    5  C3  UNL     1       6.863  -9.886  23.717  1.00  0.00     0.044 C 
HETATM    6  C4  UNL     1       8.168  -9.573  23.030  1.00  0.00     0.230 C 
ENDROOT
BRANCH   1   7
HETATM    7  N2  UNL     1       8.868  -8.561  20.159  1.00  0.00    -0.249 N 
HETATM    8  N1  UNL     1       9.128  -8.403  18.935  1.00  0.00    -0.331 N 
ATOM      9  H12 UNL     1       8.475  -8.770  18.242  1.00  0.00     0.178 HD
ATOM     10  H11 UNL     1       9.976  -7.917  18.645  1.00  0.00     0.178 HD
ATOM     11  H2  UNL     1       9.510  -8.200  20.863  1.00  0.00     0.207 HD
ENDBRANCH   1   7
BRANCH   6  12
HETATM   12  N4  UNL     1       9.186 -10.577  23.146  1.00  0.00    -0.070 N 
ATOM     13  H43 UNL     1       8.827 -11.409  23.615  1.00  0.00     0.275 HD
ATOM     14  H42 UNL     1       9.406 -10.982  22.235  1.00  0.00     0.275 HD
ATOM     15  H41 UNL     1      10.029 -10.234  23.607  1.00  0.00     0.275 HD
ENDBRANCH   6  12
TORSDOF 2
ENDMDL
MODEL 5
REMARK VINA RESULT: -4.177617473      2.604      3.578
REMARK  2 active torsions:
REMARK  status: ('A' for Active; 'I' for Inactive)
REMARK    1  A    between atoms: N2_4  and  N3_6 
REMARK    2  A    between atoms: C4_11  and  N4_12 
ROOT
HETATM    1  N3  UNL     1      13.727 -11.363  21.866  1.00  0.00    -0.293 N 
ATOM      2  H3  UNL     1      13.923 -11.912  21.029  1.00  0.00     0.188 HD
HETATM    3  C1  UNL     1      14.553 -11.449  22.837  1.00  0.00     0.035 C 
HETATM    4  C2  UNL     1      15.805 -12.204  23.054  1.00  0.00     0.058 C 
HETATM    5  C3  UNL     1      15.664 -11.937  24.529  1.00  0.00     0.044 C 
HETATM    6  C4  UNL     1      14.667 -10.863  24.175  1.00  0.00     0.230 C 
ENDROOT
BRANCH   1   7
HETATM    7  N2  UNL     1      12.583 -10.577  21.865  1.00  0.00    -0.249 N 
HETATM    8  N1  UNL     1      12.654  -9.345  21.605  1.00  0.00    -0.331 N 
ATOM      9  H12 UNL     1      13.566  -8.939  21.396  1.00  0.00     0.178 HD
ATOM     10  H11 UNL     1      11.814  -8.767  21.603  1.00  0.00     0.178 HD
ATOM     11  H2  UNL     1      11.679 -10.999  22.076  1.00  0.00     0.207 HD
ENDBRANCH   1   7
BRANCH   6  12
HETATM   12  N4  UNL     1      15.180  -9.523  24.154  1.00  0.00    -0.070 N 
ATOM     13  H43 UNL     1      14.530  -8.876  24.601  1.00  0.00     0.275 HD
ATOM     14  H42 UNL     1      15.974  -9.426  24.788  1.00  0.00     0.275 HD
ATOM     15  H41 UNL     1      15.422  -9.207  23.214  1.00  0.00     0.275 HD
ENDBRANCH   6  12
TORSDOF 2
ENDMDL
