MODEL 1
REMARK VINA RESULT: -4.305515021      0.000      0.000
REMARK  2 active torsions:
REMARK  status: ('A' for Active; 'I' for Inactive)
REMARK    1  A    between atoms: N2_4  and  C1_6 
REMARK    2  A    between atoms: C5_10  and  N3_11 
ROOT
HETATM    1  C1  UNL     1       7.492  -8.927  21.714  1.00  0.00     0.129 C 
HETATM    2  C2  UNL     1       8.182  -9.827  22.732  1.00  0.00     0.029 C 
HETATM    3  C3  UNL     1       7.149  -9.872  23.839  1.00  0.00     0.004 C 
HETATM    4  C4  UNL     1       5.868 -10.107  23.073  1.00  0.00     0.035 C 
HETATM    5  C5  UNL     1       6.034  -9.259  21.861  1.00  0.00     0.207 C 
ENDROOT
BRANCH   1   6
HETATM    6  N2  UNL     1       7.951  -9.339  20.425  1.00  0.00    -0.336 N 
HETATM    7  N1  UNL     1       8.741  -8.613  19.813  1.00  0.00    -0.349 N 
ATOM      8  H12 UNL     1       9.050  -7.738  20.234  1.00  0.00     0.176 HD
ATOM      9  H11 UNL     1       9.068  -8.908  18.893  1.00  0.00     0.176 HD
ATOM     10  H2  UNL     1       7.632 -10.218  20.017  1.00  0.00     0.180 HD
ENDBRANCH   1   6
BRANCH   5  11
HETATM   11  N3  UNL     1       5.284  -8.047  21.874  1.00  0.00    -0.073 N 
ATOM     12  H33 UNL     1       4.320  -8.184  21.568  1.00  0.00     0.274 HD
ATOM     13  H32 UNL     1       5.088  -7.721  22.820  1.00  0.00     0.274 HD
ATOM     14  H31 UNL     1       5.774  -7.349  21.314  1.00  0.00     0.274 HD
ENDBRANCH   5  11
TORSDOF 2
ENDMDL
MODEL 2
REMARK VINA RESULT: -4.264645972      1.361      2.348
REMARK  2 active torsions:
REMARK  status: ('A' for Active; 'I' for Inactive)
REMARK    1  A    between atoms: N2_4  and  C1_6 
REMARK    2  A    between atoms: C5_10  and  N3_11 
ROOT
HETATM    1  C1  UNL     1       7.851  -9.708  21.760  1.00  0.00     0.129 C 
HETATM    2  C2  UNL     1       6.341  -9.600  21.929  1.00  0.00     0.029 C 
HETATM    3  C3  UNL     1       6.124 -10.399  23.196  1.00  0.00     0.004 C 
HETATM    4  C4  UNL     1       7.222  -9.880  24.095  1.00  0.00     0.035 C 
HETATM    5  C5  UNL     1       8.376  -9.723  23.168  1.00  0.00     0.207 C 
ENDROOT
BRANCH   1   6
HETATM    6  N2  UNL     1       8.277  -8.513  21.101  1.00  0.00    -0.336 N 
HETATM    7  N1  UNL     1       8.681  -8.587  19.936  1.00  0.00    -0.349 N 
ATOM      8  H12 UNL     1       8.704  -9.492  19.467  1.00  0.00     0.176 HD
ATOM      9  H11 UNL     1       8.984  -7.734  19.466  1.00  0.00     0.176 HD
ATOM     10  H2  UNL     1       8.249  -7.615  21.585  1.00  0.00     0.180 HD
ENDBRANCH   1   6
BRANCH   5  11
HETATM   11  N3  UNL     1       9.372 -10.737  23.279  1.00  0.00    -0.073 N 
ATOM     12  H33 UNL     1       8.970 -11.664  23.415  1.00  0.00     0.274 HD
ATOM     13  H32 UNL     1       9.845 -10.916  22.394  1.00  0.00     0.274 HD
ATOM     14  H31 UNL     1      10.022 -10.481  24.023  1.00  0.00     0.274 HD
ENDBRANCH   5  11
TORSDOF 2
ENDMDL
MODEL 3
REMARK VINA RESULT: -4.239217980      6.933      7.975
REMARK  2 active torsions:
REMARK  status: ('A' for Active; 'I' for Inactive)
REMARK    1  A    between atoms: N2_4  and  C1_6 
REMARK    2  A    between atoms: C5_10  and  N3_11 
ROOT
HETATM    1  C1  UNL     1      13.921 -10.668  23.710  1.00  0.00     0.129 C 
HETATM    2  C2  UNL     1      14.973 -10.744  24.808  1.00  0.00     0.029 C 
HETATM    3  C3  UNL     1      15.521 -12.140  24.602  1.00  0.00     0.004 C 
HETATM    4  C4  UNL     1      15.704 -12.195  23.103  1.00  0.00     0.035 C 
HETATM    5  C5  UNL     1      14.505 -11.478  22.587  1.00  0.00     0.207 C 
ENDROOT
BRANCH   1   6
HETATM    6  N2  UNL     1      13.834  -9.296  23.318  1.00  0.00    -0.336 N 
HETATM    7  N1  UNL     1      13.225  -9.009  22.283  1.00  0.00    -0.349 N 
ATOM      8  H12 UNL     1      12.796  -9.750  21.729  1.00  0.00     0.176 HD
ATOM      9  H11 UNL     1      13.163  -8.030  22.004  1.00  0.00     0.176 HD
ATOM     10  H2  UNL     1      14.269  -8.566  23.883  1.00  0.00     0.180 HD
ENDBRANCH   1   6
BRANCH   5  11
HETATM   11  N3  UNL     1      13.491 -12.322  22.049  1.00  0.00    -0.073 N 
ATOM     12  H33 UNL     1      13.679 -12.589  21.083  1.00  0.00     0.274 HD
ATOM     13  H32 UNL     1      13.504 -13.256  22.459  1.00  0.00     0.274 HD
ATOM     14  H31 UNL     1      12.587 -11.862  22.157  1.00  0.00     0.274 HD
ENDBRANCH   5  11
TORSDOF 2
ENDMDL
MODEL 4
REMARK VINA RESULT: -4.217040916      1.771      2.252
REMARK  2 active torsions:
REMARK  status: ('A' for Active; 'I' for Inactive)
REMARK    1  A    between atoms: N2_4  and  C1_6 
REMARK    2  A    between atoms: C5_10  and  N3_11 
ROOT
HETATM    1  C1  UNL     1       8.322  -9.342  22.822  1.00  0.00     0.129 C 
HETATM    2  C2  UNL     1       7.377 -10.333  23.491  1.00  0.00     0.029 C 
HETATM    3  C3  UNL     1       6.081 -10.050  22.760  1.00  0.00     0.004 C 
HETATM    4  C4  UNL     1       6.532  -9.988  21.319  1.00  0.00     0.035 C 
HETATM    5  C5  UNL     1       7.838  -9.278  21.401  1.00  0.00     0.207 C 
ENDROOT
BRANCH   1   6
HETATM    6  N2  UNL     1       9.625  -9.928  22.860  1.00  0.00    -0.336 N 
HETATM    7  N1  UNL     1      10.601  -9.229  22.570  1.00  0.00    -0.349 N 
ATOM      8  H12 UNL     1      10.462  -8.253  22.310  1.00  0.00     0.176 HD
ATOM      9  H11 UNL     1      11.531  -9.647  22.598  1.00  0.00     0.176 HD
ATOM     10  H2  UNL     1       9.747 -10.906  23.122  1.00  0.00     0.180 HD
ENDBRANCH   1   6
BRANCH   5  11
HETATM   11  N3  UNL     1       7.803  -7.915  20.986  1.00  0.00    -0.073 N 
ATOM     12  H33 UNL     1       7.350  -7.796  20.080  1.00  0.00     0.274 HD
ATOM     13  H32 UNL     1       7.157  -7.356  21.542  1.00  0.00     0.274 HD
ATOM     14  H31 UNL     1       8.752  -7.541  20.998  1.00  0.00     0.274 HD
ENDBRANCH   5  11
TORSDOF 2
ENDMDL
MODEL 5
REMARK VINA RESULT: -4.208916637      5.852      6.450
REMARK  2 active torsions:
REMARK  status: ('A' for Active; 'I' for Inactive)
REMARK    1  A    between atoms: N2_4  and  C1_6 
REMARK    2  A    between atoms: C5_10  and  N3_11 
ROOT
HETATM    1  C1  UNL     1      13.148 -11.533  23.021  1.00  0.00     0.129 C 
HETATM    2  C2  UNL     1      11.699 -11.928  23.274  1.00  0.00     0.029 C 
HETATM    3  C3  UNL     1      11.152 -10.667  23.910  1.00  0.00     0.004 C 
HETATM    4  C4  UNL     1      11.701  -9.588  23.006  1.00  0.00     0.035 C 
HETATM    5  C5  UNL     1      13.077 -10.067  22.700  1.00  0.00     0.207 C 
ENDROOT
BRANCH   1   6
HETATM    6  N2  UNL     1      13.576 -12.258  21.866  1.00  0.00    -0.336 N 
HETATM    7  N1  UNL     1      13.364 -13.473  21.813  1.00  0.00    -0.349 N 
ATOM      8  H12 UNL     1      12.890 -13.937  22.588  1.00  0.00     0.176 HD
ATOM      9  H11 UNL     1      13.668 -13.991  20.989  1.00  0.00     0.176 HD
ATOM     10  H2  UNL     1      14.049 -11.780  21.099  1.00  0.00     0.180 HD
ENDBRANCH   1   6
BRANCH   5  11
HETATM   11  N3  UNL     1      14.115  -9.388  23.402  1.00  0.00    -0.073 N 
ATOM     12  H33 UNL     1      14.453  -9.919  24.205  1.00  0.00     0.274 HD
ATOM     13  H32 UNL     1      14.987  -9.358  22.874  1.00  0.00     0.274 HD
ATOM     14  H31 UNL     1      13.785  -8.458  23.661  1.00  0.00     0.274 HD
ENDBRANCH   5  11
TORSDOF 2
ENDMDL
