MODEL 1
REMARK VINA RESULT: -4.703970448      0.000      0.000
REMARK  3 active torsions:
REMARK  status: ('A' for Active; 'I' for Inactive)
REMARK    1  A    between atoms: N1_1  and  N2_4 
REMARK    2  A    between atoms: N3_6  and  N4_8 
REMARK    3  A    between atoms: C4_12  and  N5_13 
ROOT
HETATM    1  N4  UNL     1       8.316  -9.417  22.538  1.00  0.00    -0.282 N 
HETATM    2  C1  UNL     1       7.691  -8.784  21.413  1.00  0.00     0.147 C 
HETATM    3  C2  UNL     1       6.513  -9.722  21.171  1.00  0.00     0.025 C 
HETATM    4  C3  UNL     1       6.246 -10.387  22.501  1.00  0.00     0.057 C 
HETATM    5  C4  UNL     1       7.257  -9.723  23.447  1.00  0.00     0.300 C 
ENDROOT
BRANCH   1   6
HETATM    6  N3  UNL     1       9.661  -9.661  22.674  1.00  0.00    -0.229 N 
HETATM    7  N2  UNL     1      10.531  -8.983  22.053  1.00  0.00    -0.235 N 
ATOM      8  H2  UNL     1      10.224  -8.233  21.433  1.00  0.00     0.209 HD
ATOM      9  H3  UNL     1       9.968 -10.410  23.294  1.00  0.00     0.209 HD
BRANCH   7  10
HETATM   10  N1  UNL     1      11.899  -9.233  22.192  1.00  0.00    -0.330 N 
ATOM     11  H12 UNL     1      12.280 -10.071  21.755  1.00  0.00     0.178 HD
ATOM     12  H11 UNL     1      12.510  -8.604  22.714  1.00  0.00     0.178 HD
ENDBRANCH   7  10
ENDBRANCH   1   6
BRANCH   5  13
HETATM   13  N5  UNL     1       7.632 -10.657  24.485  1.00  0.00    -0.057 N 
ATOM     14  H53 UNL     1       7.829 -11.576  24.089  1.00  0.00     0.276 HD
ATOM     15  H52 UNL     1       8.555 -10.430  24.856  1.00  0.00     0.276 HD
ATOM     16  H51 UNL     1       6.949 -10.729  25.239  1.00  0.00     0.276 HD
ENDBRANCH   5  13
TORSDOF 3
ENDMDL
MODEL 2
REMARK VINA RESULT: -4.627816554      1.367      2.340
REMARK  3 active torsions:
REMARK  status: ('A' for Active; 'I' for Inactive)
REMARK    1  A    between atoms: N1_1  and  N2_4 
REMARK    2  A    between atoms: N3_6  and  N4_8 
REMARK    3  A    between atoms: C4_12  and  N5_13 
ROOT
HETATM    1  N4  UNL     1       7.783 -10.084  22.603  1.00  0.00    -0.282 N 
HETATM    2  C1  UNL     1       6.782 -10.407  23.577  1.00  0.00     0.147 C 
HETATM    3  C2  UNL     1       5.691  -9.405  23.215  1.00  0.00     0.025 C 
HETATM    4  C3  UNL     1       5.913  -9.074  21.758  1.00  0.00     0.057 C 
HETATM    5  C4  UNL     1       7.089  -9.976  21.358  1.00  0.00     0.300 C 
ENDROOT
BRANCH   1   6
HETATM    6  N3  UNL     1       9.123  -9.918  22.855  1.00  0.00    -0.229 N 
HETATM    7  N2  UNL     1       9.893 -10.903  23.056  1.00  0.00    -0.235 N 
ATOM      8  H2  UNL     1       9.507 -11.847  23.029  1.00  0.00     0.209 HD
ATOM      9  H3  UNL     1       9.509  -8.975  22.883  1.00  0.00     0.209 HD
BRANCH   7  10
HETATM   10  N1  UNL     1      11.256 -10.732  23.313  1.00  0.00    -0.330 N 
ATOM     11  H12 UNL     1      11.562 -10.719  24.286  1.00  0.00     0.178 HD
ATOM     12  H11 UNL     1      11.936 -10.623  22.561  1.00  0.00     0.178 HD
ENDBRANCH   7  10
ENDBRANCH   1   6
BRANCH   5  13
HETATM   13  N5  UNL     1       7.859  -9.332  20.317  1.00  0.00    -0.057 N 
ATOM     14  H53 UNL     1       8.857  -9.472  20.468  1.00  0.00     0.276 HD
ATOM     15  H52 UNL     1       7.749  -9.826  19.431  1.00  0.00     0.276 HD
ATOM     16  H51 UNL     1       7.647  -8.340  20.204  1.00  0.00     0.276 HD
ENDBRANCH   5  13
TORSDOF 3
ENDMDL
MODEL 3
REMARK VINA RESULT: -4.593603072      1.846      2.427
REMARK  3 active torsions:
REMARK  status: ('A' for Active; 'I' for Inactive)
REMARK    1  A    between atoms: N1_1  and  N2_4 
REMARK    2  A    between atoms: N3_6  and  N4_8 
REMARK    3  A    between atoms: C4_12  and  N5_13 
ROOT
HETATM    1  N4  UNL     1       7.381  -9.332  21.777  1.00  0.00    -0.282 N 
HETATM    2  C1  UNL     1       6.038  -8.967  22.120  1.00  0.00     0.147 C 
HETATM    3  C2  UNL     1       5.677 -10.079  23.099  1.00  0.00     0.025 C 
HETATM    4  C3  UNL     1       6.991 -10.563  23.664  1.00  0.00     0.057 C 
HETATM    5  C4  UNL     1       8.027  -9.634  23.015  1.00  0.00     0.300 C 
ENDROOT
BRANCH   1   6
HETATM    6  N3  UNL     1       7.900  -9.372  20.506  1.00  0.00    -0.229 N 
HETATM    7  N2  UNL     1       8.636  -8.447  20.054  1.00  0.00    -0.235 N 
ATOM      8  H2  UNL     1       8.850  -7.648  20.651  1.00  0.00     0.209 HD
ATOM      9  H3  UNL     1       7.687 -10.171  19.909  1.00  0.00     0.209 HD
BRANCH   7  10
HETATM   10  N1  UNL     1       9.163  -8.489  18.760  1.00  0.00    -0.330 N 
ATOM     11  H12 UNL     1       9.985  -9.069  18.596  1.00  0.00     0.178 HD
ATOM     12  H11 UNL     1       8.748  -7.960  17.992  1.00  0.00     0.178 HD
ENDBRANCH   7  10
ENDBRANCH   1   6
BRANCH   5  13
HETATM   13  N5  UNL     1       9.280 -10.341  22.861  1.00  0.00    -0.057 N 
ATOM     14  H53 UNL     1       9.767 -10.409  23.754  1.00  0.00     0.276 HD
ATOM     15  H52 UNL     1       9.114 -11.332  22.681  1.00  0.00     0.276 HD
ATOM     16  H51 UNL     1       9.890  -9.944  22.147  1.00  0.00     0.276 HD
ENDBRANCH   5  13
TORSDOF 3
ENDMDL
MODEL 4
REMARK VINA RESULT: -4.561336451      1.191      2.173
REMARK  3 active torsions:
REMARK  status: ('A' for Active; 'I' for Inactive)
REMARK    1  A    between atoms: N1_1  and  N2_4 
REMARK    2  A    between atoms: N3_6  and  N4_8 
REMARK    3  A    between atoms: C4_12  and  N5_13 
ROOT
HETATM    1  N4  UNL     1       7.827  -9.894  22.676  1.00  0.00    -0.282 N 
HETATM    2  C1  UNL     1       7.588 -10.226  24.050  1.00  0.00     0.147 C 
HETATM    3  C2  UNL     1       6.232  -9.564  24.276  1.00  0.00     0.025 C 
HETATM    4  C3  UNL     1       5.590  -9.483  22.911  1.00  0.00     0.057 C 
HETATM    5  C4  UNL     1       6.604 -10.178  21.992  1.00  0.00     0.300 C 
ENDROOT
BRANCH   1   6
HETATM    6  N3  UNL     1       9.003  -9.406  22.163  1.00  0.00    -0.229 N 
HETATM    7  N2  UNL     1      10.109  -9.560  22.759  1.00  0.00    -0.235 N 
ATOM      8  H2  UNL     1      10.127 -10.062  23.647  1.00  0.00     0.209 HD
ATOM      9  H3  UNL     1       8.986  -8.904  21.275  1.00  0.00     0.209 HD
BRANCH   7  10
HETATM   10  N1  UNL     1      11.305  -9.062  22.236  1.00  0.00    -0.330 N 
ATOM     11  H12 UNL     1      12.049  -9.726  22.022  1.00  0.00     0.178 HD
ATOM     12  H11 UNL     1      11.446  -8.065  22.068  1.00  0.00     0.178 HD
ENDBRANCH   7  10
ENDBRANCH   1   6
BRANCH   5  13
HETATM   13  N5  UNL     1       6.531  -9.601  20.668  1.00  0.00    -0.057 N 
ATOM     14  H53 UNL     1       5.597  -9.234  20.486  1.00  0.00     0.276 HD
ATOM     15  H52 UNL     1       7.067  -8.735  20.622  1.00  0.00     0.276 HD
ATOM     16  H51 UNL     1       6.816 -10.240  19.926  1.00  0.00     0.276 HD
ENDBRANCH   5  13
TORSDOF 3
ENDMDL
MODEL 5
REMARK VINA RESULT: -4.415672983      3.205      4.504
REMARK  3 active torsions:
REMARK  status: ('A' for Active; 'I' for Inactive)
REMARK    1  A    between atoms: N1_1  and  N2_4 
REMARK    2  A    between atoms: N3_6  and  N4_8 
REMARK    3  A    between atoms: C4_12  and  N5_13 
ROOT
HETATM    1  N4  UNL     1      11.009  -9.143  23.274  1.00  0.00    -0.282 N 
HETATM    2  C1  UNL     1      10.252  -9.436  24.456  1.00  0.00     0.147 C 
HETATM    3  C2  UNL     1      11.003 -10.652  24.987  1.00  0.00     0.025 C 
HETATM    4  C3  UNL     1      12.404 -10.536  24.432  1.00  0.00     0.057 C 
HETATM    5  C4  UNL     1      12.380  -9.204  23.669  1.00  0.00     0.300 C 
ENDROOT
BRANCH   1   6
HETATM    6  N3  UNL     1      10.484  -8.866  22.035  1.00  0.00    -0.229 N 
HETATM    7  N2  UNL     1       9.237  -8.767  21.843  1.00  0.00    -0.235 N 
ATOM      8  H2  UNL     1       8.603  -8.895  22.631  1.00  0.00     0.209 HD
ATOM      9  H3  UNL     1      11.118  -8.738  21.246  1.00  0.00     0.209 HD
BRANCH   7  10
HETATM   10  N1  UNL     1       8.705  -8.486  20.582  1.00  0.00    -0.330 N 
ATOM     11  H12 UNL     1       8.297  -7.564  20.428  1.00  0.00     0.178 HD
ATOM     12  H11 UNL     1       8.717  -9.172  19.827  1.00  0.00     0.178 HD
ENDBRANCH   7  10
ENDBRANCH   1   6
BRANCH   5  13
HETATM   13  N5  UNL     1      13.304  -9.268  22.558  1.00  0.00    -0.057 N 
ATOM     14  H53 UNL     1      13.032 -10.003  21.906  1.00  0.00     0.276 HD
ATOM     15  H52 UNL     1      13.197  -8.454  21.954  1.00  0.00     0.276 HD
ATOM     16  H51 UNL     1      14.278  -9.380  22.840  1.00  0.00     0.276 HD
ENDBRANCH   5  13
TORSDOF 3
ENDMDL
