MODEL 1
REMARK VINA RESULT: -3.706112442      0.000      0.000
REMARK  1 active torsions:
REMARK  status: ('A' for Active; 'I' for Inactive)
REMARK    1  A    between atoms: C2_2  and  N1_3 
ROOT
HETATM    1  N1  UNL     1      29.814   6.991  28.658  1.00  0.00    -0.046 N 
HETATM    2  C3  UNL     1      28.555   7.459  28.080  1.00  0.00     0.274 C 
HETATM    3  C4  UNL     1      30.668   6.435  27.656  1.00  0.00     0.266 C 
HETATM    4  C5  UNL     1      30.926   4.993  28.011  1.00  0.00     0.262 C 
HETATM    5  N2  UNL     1      30.559   4.917  29.389  1.00  0.00    -0.049 N 
ATOM      6  H21 UNL     1      31.325   5.091  30.040  1.00  0.00     0.279 HD
ATOM      7  H22 UNL     1      30.351   3.975  29.719  1.00  0.00     0.279 HD
HETATM    8  C6  UNL     1      29.468   5.837  29.497  1.00  0.00     0.467 C 
ENDROOT
BRANCH   1   9
HETATM    9  C2  UNL     1      30.358   8.035  29.436  1.00  0.00     0.234 C 
HETATM   10  C1  UNL     1      29.396   8.853  30.224  1.00  0.00     0.035 C 
ENDBRANCH   1   9
TORSDOF 1
ENDMDL
MODEL 2
REMARK VINA RESULT: -3.612347594      1.129      1.483
REMARK  1 active torsions:
REMARK  status: ('A' for Active; 'I' for Inactive)
REMARK    1  A    between atoms: C2_2  and  N1_3 
ROOT
HETATM    1  N1  UNL     1      30.169   7.404  28.297  1.00  0.00    -0.046 N 
HETATM    2  C3  UNL     1      30.569   8.175  27.120  1.00  0.00     0.274 C 
HETATM    3  C4  UNL     1      30.794   6.118  28.309  1.00  0.00     0.266 C 
HETATM    4  C5  UNL     1      29.708   5.073  28.279  1.00  0.00     0.262 C 
HETATM    5  N2  UNL     1      28.538   5.793  28.668  1.00  0.00    -0.049 N 
ATOM      6  H21 UNL     1      28.353   5.787  29.671  1.00  0.00     0.279 HD
ATOM      7  H22 UNL     1      27.660   5.352  28.395  1.00  0.00     0.279 HD
HETATM    8  C6  UNL     1      28.745   7.095  28.112  1.00  0.00     0.467 C 
ENDROOT
BRANCH   1   9
HETATM    9  C2  UNL     1      30.367   8.207  29.440  1.00  0.00     0.234 C 
HETATM   10  C1  UNL     1      29.194   8.991  29.917  1.00  0.00     0.035 C 
ENDBRANCH   1   9
TORSDOF 1
ENDMDL
MODEL 3
REMARK VINA RESULT: -3.596060054      1.351      3.316
REMARK  1 active torsions:
REMARK  status: ('A' for Active; 'I' for Inactive)
REMARK    1  A    between atoms: C2_2  and  N1_3 
ROOT
HETATM    1  N1  UNL     1      29.599   7.246  28.963  1.00  0.00    -0.046 N 
HETATM    2  C3  UNL     1      30.927   7.435  28.380  1.00  0.00     0.274 C 
HETATM    3  C4  UNL     1      28.581   7.787  28.118  1.00  0.00     0.266 C 
HETATM    4  C5  UNL     1      27.859   8.862  28.888  1.00  0.00     0.262 C 
HETATM    5  N2  UNL     1      28.215   8.599  30.246  1.00  0.00    -0.049 N 
ATOM      6  H21 UNL     1      27.571   7.980  30.738  1.00  0.00     0.279 HD
ATOM      7  H22 UNL     1      28.100   9.394  30.874  1.00  0.00     0.279 HD
HETATM    8  C6  UNL     1      29.556   8.107  30.152  1.00  0.00     0.467 C 
ENDROOT
BRANCH   1   9
HETATM    9  C2  UNL     1      29.462   5.888  29.319  1.00  0.00     0.234 C 
HETATM   10  C1  UNL     1      29.819   4.884  28.279  1.00  0.00     0.035 C 
ENDBRANCH   1   9
TORSDOF 1
ENDMDL
MODEL 4
REMARK VINA RESULT: -3.590182097      0.952      1.984
REMARK  1 active torsions:
REMARK  status: ('A' for Active; 'I' for Inactive)
REMARK    1  A    between atoms: C2_2  and  N1_3 
ROOT
HETATM    1  N1  UNL     1      29.639   7.115  28.810  1.00  0.00    -0.046 N 
HETATM    2  C3  UNL     1      30.172   8.237  29.582  1.00  0.00     0.274 C 
HETATM    3  C4  UNL     1      29.420   5.973  29.641  1.00  0.00     0.266 C 
HETATM    4  C5  UNL     1      30.279   4.848  29.124  1.00  0.00     0.262 C 
HETATM    5  N2  UNL     1      30.620   5.266  27.802  1.00  0.00    -0.049 N 
ATOM      6  H21 UNL     1      29.974   4.947  27.079  1.00  0.00     0.279 HD
ATOM      7  H22 UNL     1      31.446   4.811  27.415  1.00  0.00     0.279 HD
HETATM    8  C6  UNL     1      30.725   6.689  27.917  1.00  0.00     0.467 C 
ENDROOT
BRANCH   1   9
HETATM    9  C2  UNL     1      28.529   7.574  28.070  1.00  0.00     0.234 C 
HETATM   10  C1  UNL     1      28.223   9.028  28.158  1.00  0.00     0.035 C 
ENDBRANCH   1   9
TORSDOF 1
ENDMDL
MODEL 5
REMARK VINA RESULT: -3.472113629      1.536      2.053
REMARK  1 active torsions:
REMARK  status: ('A' for Active; 'I' for Inactive)
REMARK    1  A    between atoms: C2_2  and  N1_3 
ROOT
HETATM    1  N1  UNL     1      29.752   7.722  29.040  1.00  0.00    -0.046 N 
HETATM    2  C3  UNL     1      30.862   8.396  28.368  1.00  0.00     0.274 C 
HETATM    3  C4  UNL     1      30.048   6.343  29.271  1.00  0.00     0.266 C 
HETATM    4  C5  UNL     1      29.020   5.517  28.540  1.00  0.00     0.262 C 
HETATM    5  N2  UNL     1      27.967   6.446  28.281  1.00  0.00    -0.049 N 
ATOM      6  H21 UNL     1      27.249   6.482  29.005  1.00  0.00     0.279 HD
ATOM      7  H22 UNL     1      27.340   6.173  27.524  1.00  0.00     0.279 HD
HETATM    8  C6  UNL     1      28.655   7.682  28.065  1.00  0.00     0.467 C 
ENDROOT
BRANCH   1   9
HETATM    9  C2  UNL     1      29.393   8.484  30.172  1.00  0.00     0.234 C 
HETATM   10  C1  UNL     1      30.308   9.597  30.546  1.00  0.00     0.035 C 
ENDBRANCH   1   9
TORSDOF 1
ENDMDL
