MODEL 1
REMARK VINA RESULT: -3.650676303      0.000      0.000
REMARK  0 active torsions:
REMARK  status: ('A' for Active; 'I' for Inactive)
ROOT
HETATM    1  C1  UNL     1      28.898   9.695  27.824  1.00  0.00     0.297 C 
HETATM    2  N1  UNL     1      29.485   8.421  27.910  1.00  0.00     0.007 N 
HETATM    3  C2  UNL     1      28.583   7.334  28.190  1.00  0.00     0.260 C 
HETATM    4  C3  UNL     1      29.435   6.207  28.794  1.00  0.00     0.037 C 
HETATM    5  C4  UNL     1      30.810   6.831  28.702  1.00  0.00     0.031 C 
HETATM    6  C5  UNL     1      31.134   6.974  27.238  1.00  0.00     0.149 C 
HETATM    7  N2  UNL     1      30.262   8.056  26.813  1.00  0.00    -0.047 NA
HETATM    8  C6  UNL     1      30.441   8.287  29.026  1.00  0.00     0.265 C 
ENDROOT
TORSDOF 0
ENDMDL
MODEL 2
REMARK VINA RESULT: -3.640002720      1.265      2.635
REMARK  0 active torsions:
REMARK  status: ('A' for Active; 'I' for Inactive)
ROOT
HETATM    1  C1  UNL     1      31.616   6.079  28.135  1.00  0.00     0.297 C 
HETATM    2  N1  UNL     1      30.648   7.084  28.290  1.00  0.00     0.007 N 
HETATM    3  C2  UNL     1      29.295   6.627  28.475  1.00  0.00     0.260 C 
HETATM    4  C3  UNL     1      28.382   7.788  28.054  1.00  0.00     0.037 C 
HETATM    5  C4  UNL     1      29.418   8.842  27.732  1.00  0.00     0.031 C 
HETATM    6  C5  UNL     1      30.110   9.191  29.023  1.00  0.00     0.149 C 
HETATM    7  N2  UNL     1      30.921   8.015  29.291  1.00  0.00    -0.047 NA
HETATM    8  C6  UNL     1      30.494   7.943  27.101  1.00  0.00     0.265 C 
ENDROOT
TORSDOF 0
ENDMDL
MODEL 3
REMARK VINA RESULT: -3.489458874      1.633      2.464
REMARK  0 active torsions:
REMARK  status: ('A' for Active; 'I' for Inactive)
ROOT
HETATM    1  C1  UNL     1      28.212   9.124  30.495  1.00  0.00     0.297 C 
HETATM    2  N1  UNL     1      28.997   8.354  29.621  1.00  0.00     0.007 N 
HETATM    3  C2  UNL     1      30.401   8.676  29.593  1.00  0.00     0.260 C 
HETATM    4  C3  UNL     1      30.935   8.173  28.244  1.00  0.00     0.037 C 
HETATM    5  C4  UNL     1      29.686   7.527  27.684  1.00  0.00     0.031 C 
HETATM    6  C5  UNL     1      29.363   6.350  28.566  1.00  0.00     0.149 C 
HETATM    7  N2  UNL     1      28.881   6.975  29.786  1.00  0.00    -0.047 NA
HETATM    8  C6  UNL     1      28.641   8.528  28.200  1.00  0.00     0.265 C 
ENDROOT
TORSDOF 0
ENDMDL
MODEL 4
REMARK VINA RESULT: -3.487051129      1.385      2.821
REMARK  0 active torsions:
REMARK  status: ('A' for Active; 'I' for Inactive)
ROOT
HETATM    1  C1  UNL     1      29.690   5.695  29.312  1.00  0.00     0.297 C 
HETATM    2  N1  UNL     1      29.452   6.936  28.697  1.00  0.00     0.007 N 
HETATM    3  C2  UNL     1      30.274   7.234  27.553  1.00  0.00     0.260 C 
HETATM    4  C3  UNL     1      30.276   8.763  27.406  1.00  0.00     0.037 C 
HETATM    5  C4  UNL     1      29.331   9.142  28.525  1.00  0.00     0.031 C 
HETATM    6  C5  UNL     1      27.973   8.605  28.159  1.00  0.00     0.149 C 
HETATM    7  N2  UNL     1      28.126   7.171  28.340  1.00  0.00    -0.047 NA
HETATM    8  C6  UNL     1      29.750   8.090  29.565  1.00  0.00     0.265 C 
ENDROOT
TORSDOF 0
ENDMDL
MODEL 5
REMARK VINA RESULT: -3.448716466      1.536      2.678
REMARK  0 active torsions:
REMARK  status: ('A' for Active; 'I' for Inactive)
ROOT
HETATM    1  C1  UNL     1      29.364   5.873  29.658  1.00  0.00     0.297 C 
HETATM    2  N1  UNL     1      29.577   7.192  29.222  1.00  0.00     0.007 N 
HETATM    3  C2  UNL     1      29.098   8.226  30.103  1.00  0.00     0.260 C 
HETATM    4  C3  UNL     1      28.900   9.478  29.235  1.00  0.00     0.037 C 
HETATM    5  C4  UNL     1      29.396   8.962  27.902  1.00  0.00     0.031 C 
HETATM    6  C5  UNL     1      30.868   8.685  28.053  1.00  0.00     0.149 C 
HETATM    7  N2  UNL     1      30.895   7.495  28.888  1.00  0.00    -0.047 NA
HETATM    8  C6  UNL     1      28.856   7.525  27.979  1.00  0.00     0.265 C 
ENDROOT
TORSDOF 0
ENDMDL
