MODEL 1
REMARK VINA RESULT: -5.138849594      0.000      0.000
REMARK  1 active torsions:
REMARK  status: ('A' for Active; 'I' for Inactive)
REMARK    1  A    between atoms: N2_4  and  C1_6 
ROOT
HETATM    1  C1  UNL     1      32.507   4.325  28.038  1.00  0.00     0.194 C 
HETATM    2  N3  UNL     1      31.539   5.094  28.399  1.00  0.00    -0.376 N 
HETATM    3  C2  UNL     1      30.454   4.693  29.272  1.00  0.00     0.123 C 
HETATM    4  C3  UNL     1      29.418   5.772  28.994  1.00  0.00     0.021 C 
HETATM    5  C4  UNL     1      30.321   7.002  28.912  1.00  0.00     0.021 C 
HETATM    6  C5  UNL     1      31.404   6.464  27.979  1.00  0.00     0.123 C 
ENDROOT
BRANCH   1   7
HETATM    7  N2  UNL     1      33.550   4.772  27.176  1.00  0.00    -0.303 N 
HETATM    8  N1  UNL     1      34.741   4.802  27.618  1.00  0.00    -0.344 N 
ATOM      9  H12 UNL     1      34.931   4.507  28.576  1.00  0.00     0.176 HD
ATOM     10  H11 UNL     1      35.488   5.122  27.001  1.00  0.00     0.176 HD
ATOM     11  H2  UNL     1      33.343   5.063  26.220  1.00  0.00     0.187 HD
ENDBRANCH   1   7
TORSDOF 1
ENDMDL
MODEL 2
REMARK VINA RESULT: -4.835953065      1.449      1.754
REMARK  1 active torsions:
REMARK  status: ('A' for Active; 'I' for Inactive)
REMARK    1  A    between atoms: N2_4  and  C1_6 
ROOT
HETATM    1  C1  UNL     1      30.832   4.737  28.474  1.00  0.00     0.194 C 
HETATM    2  N3  UNL     1      30.471   5.944  28.744  1.00  0.00    -0.376 N 
HETATM    3  C2  UNL     1      29.344   6.294  29.585  1.00  0.00     0.123 C 
HETATM    4  C3  UNL     1      29.108   7.746  29.197  1.00  0.00     0.021 C 
HETATM    5  C4  UNL     1      30.551   8.237  29.088  1.00  0.00     0.021 C 
HETATM    6  C5  UNL     1      31.141   7.113  28.241  1.00  0.00     0.123 C 
ENDROOT
BRANCH   1   7
HETATM    7  N2  UNL     1      31.950   4.449  27.638  1.00  0.00    -0.303 N 
HETATM    8  N1  UNL     1      32.629   3.398  27.862  1.00  0.00    -0.344 N 
ATOM      9  H12 UNL     1      32.365   2.782  28.631  1.00  0.00     0.176 HD
ATOM     10  H11 UNL     1      33.429   3.192  27.264  1.00  0.00     0.176 HD
ATOM     11  H2  UNL     1      32.200   5.076  26.873  1.00  0.00     0.187 HD
ENDBRANCH   1   7
TORSDOF 1
ENDMDL
MODEL 3
REMARK VINA RESULT: -4.821842302      1.454      2.236
REMARK  1 active torsions:
REMARK  status: ('A' for Active; 'I' for Inactive)
REMARK    1  A    between atoms: N2_4  and  C1_6 
ROOT
HETATM    1  C1  UNL     1      31.737   5.603  27.687  1.00  0.00     0.194 C 
HETATM    2  N3  UNL     1      30.976   6.439  28.304  1.00  0.00    -0.376 N 
HETATM    3  C2  UNL     1      31.044   7.878  28.151  1.00  0.00     0.123 C 
HETATM    4  C3  UNL     1      30.294   8.356  29.386  1.00  0.00     0.021 C 
HETATM    5  C4  UNL     1      29.153   7.341  29.422  1.00  0.00     0.021 C 
HETATM    6  C5  UNL     1      29.950   6.052  29.236  1.00  0.00     0.123 C 
ENDROOT
BRANCH   1   7
HETATM    7  N2  UNL     1      31.627   4.194  27.876  1.00  0.00    -0.303 N 
HETATM    8  N1  UNL     1      32.677   3.482  27.809  1.00  0.00    -0.344 N 
ATOM      9  H12 UNL     1      33.576   3.926  27.622  1.00  0.00     0.176 HD
ATOM     10  H11 UNL     1      32.599   2.474  27.943  1.00  0.00     0.176 HD
ATOM     11  H2  UNL     1      30.720   3.765  28.061  1.00  0.00     0.187 HD
ENDBRANCH   1   7
TORSDOF 1
ENDMDL
MODEL 4
REMARK VINA RESULT: -4.701230207      2.272      2.879
REMARK  1 active torsions:
REMARK  status: ('A' for Active; 'I' for Inactive)
REMARK    1  A    between atoms: N2_4  and  C1_6 
ROOT
HETATM    1  C1  UNL     1      30.151   4.578  29.675  1.00  0.00     0.194 C 
HETATM    2  N3  UNL     1      30.378   5.631  28.968  1.00  0.00    -0.376 N 
HETATM    3  C2  UNL     1      29.479   6.763  28.871  1.00  0.00     0.123 C 
HETATM    4  C3  UNL     1      29.989   7.457  27.616  1.00  0.00     0.021 C 
HETATM    5  C4  UNL     1      31.496   7.307  27.816  1.00  0.00     0.021 C 
HETATM    6  C5  UNL     1      31.561   5.824  28.173  1.00  0.00     0.123 C 
ENDROOT
BRANCH   1   7
HETATM    7  N2  UNL     1      31.072   3.492  29.733  1.00  0.00    -0.303 N 
HETATM    8  N1  UNL     1      30.989   2.669  30.699  1.00  0.00    -0.344 N 
ATOM      9  H12 UNL     1      30.271   2.798  31.411  1.00  0.00     0.176 HD
ATOM     10  H11 UNL     1      31.648   1.892  30.741  1.00  0.00     0.176 HD
ATOM     11  H2  UNL     1      31.785   3.377  29.013  1.00  0.00     0.187 HD
ENDBRANCH   1   7
TORSDOF 1
ENDMDL
MODEL 5
REMARK VINA RESULT: -4.626120666      1.010      1.664
REMARK  1 active torsions:
REMARK  status: ('A' for Active; 'I' for Inactive)
REMARK    1  A    between atoms: N2_4  and  C1_6 
ROOT
HETATM    1  C1  UNL     1      31.967   5.818  27.172  1.00  0.00     0.194 C 
HETATM    2  N3  UNL     1      30.991   5.960  28.001  1.00  0.00    -0.376 N 
HETATM    3  C2  UNL     1      30.091   7.095  28.022  1.00  0.00     0.123 C 
HETATM    4  C3  UNL     1      29.475   6.976  29.408  1.00  0.00     0.021 C 
HETATM    5  C4  UNL     1      29.284   5.463  29.492  1.00  0.00     0.021 C 
HETATM    6  C5  UNL     1      30.663   5.003  29.024  1.00  0.00     0.123 C 
ENDROOT
BRANCH   1   7
HETATM    7  N2  UNL     1      32.823   4.679  27.196  1.00  0.00    -0.303 N 
HETATM    8  N1  UNL     1      34.039   4.832  27.533  1.00  0.00    -0.344 N 
ATOM      9  H12 UNL     1      34.381   5.761  27.778  1.00  0.00     0.176 HD
ATOM     10  H11 UNL     1      34.652   4.017  27.550  1.00  0.00     0.176 HD
ATOM     11  H2  UNL     1      32.466   3.756  26.947  1.00  0.00     0.187 HD
ENDBRANCH   1   7
TORSDOF 1
ENDMDL
