MODEL 1
REMARK VINA RESULT: -5.571262441      0.000      0.000
REMARK  4 active torsions:
REMARK  status: ('A' for Active; 'I' for Inactive)
REMARK    1  A    between atoms: O1_1  and  C1_3 
REMARK    2  A    between atoms: C2_7  and  O2_8 
REMARK    3  A    between atoms: C4_12  and  O3_13 
REMARK    4  A    between atoms: C5_15  and  O4_16 
ROOT
HETATM    1  C1  UNL     1      30.490   7.937  29.334  1.00  0.00     0.353 C 
HETATM    2  N1  UNL     1      31.603   7.194  28.757  1.00  0.00    -0.019 N 
ATOM      3  H11 UNL     1      32.159   6.697  29.452  1.00  0.00     0.283 HD
ATOM      4  H12 UNL     1      32.348   7.794  28.403  1.00  0.00     0.283 HD
HETATM    5  C2  UNL     1      31.044   6.329  27.751  1.00  0.00     0.338 C 
HETATM    6  C3  UNL     1      30.176   5.288  28.434  1.00  0.00     0.145 C 
HETATM    7 BR1  UNL     1      31.288   4.043  29.420  1.00  0.00    -0.084 Br
HETATM    8  C4  UNL     1      29.112   5.893  29.294  1.00  0.00     0.169 C 
HETATM    9  C5  UNL     1      29.564   7.058  30.109  1.00  0.00     0.204 C 
ENDROOT
BRANCH   1  10
HETATM   10  O1  UNL     1      31.009   8.972  30.067  1.00  0.00    -0.368 OA
ATOM     11  H1  UNL     1      30.508   9.041  30.871  1.00  0.00     0.212 HD
ENDBRANCH   1  10
BRANCH   9  12
HETATM   12  O4  UNL     1      28.439   7.838  30.443  1.00  0.00    -0.389 OA
ATOM     13  H4  UNL     1      28.592   8.710  30.097  1.00  0.00     0.210 HD
ENDBRANCH   9  12
BRANCH   5  14
HETATM   14  O2  UNL     1      31.989   5.696  26.978  1.00  0.00    -0.369 OA
ATOM     15  H2  UNL     1      31.826   5.765  26.045  1.00  0.00     0.212 HD
ENDBRANCH   5  14
BRANCH   8  16
HETATM   16  O3  UNL     1      28.058   6.289  28.487  1.00  0.00    -0.392 OA
ATOM     17  H3  UNL     1      27.407   5.598  28.475  1.00  0.00     0.210 HD
ENDBRANCH   8  16
TORSDOF 4
ENDMDL
MODEL 2
REMARK VINA RESULT: -5.136016543      2.083      3.376
REMARK  4 active torsions:
REMARK  status: ('A' for Active; 'I' for Inactive)
REMARK    1  A    between atoms: O1_1  and  C1_3 
REMARK    2  A    between atoms: C2_7  and  O2_8 
REMARK    3  A    between atoms: C4_12  and  O3_13 
REMARK    4  A    between atoms: C5_15  and  O4_16 
ROOT
HETATM    1  C1  UNL     1      31.433   6.094  28.289  1.00  0.00     0.353 C 
HETATM    2  N1  UNL     1      31.542   7.545  28.367  1.00  0.00    -0.019 N 
ATOM      3  H11 UNL     1      31.126   8.024  27.568  1.00  0.00     0.283 HD
ATOM      4  H12 UNL     1      32.495   7.886  28.239  1.00  0.00     0.283 HD
HETATM    5  C2  UNL     1      30.964   7.934  29.627  1.00  0.00     0.338 C 
HETATM    6  C3  UNL     1      29.476   7.644  29.589  1.00  0.00     0.145 C 
HETATM    7 BR1  UNL     1      28.592   8.874  28.378  1.00  0.00    -0.084 Br
HETATM    8  C4  UNL     1      29.170   6.217  29.261  1.00  0.00     0.169 C 
HETATM    9  C5  UNL     1      30.015   5.637  28.176  1.00  0.00     0.204 C 
ENDROOT
BRANCH   1  10
HETATM   10  O1  UNL     1      32.233   5.666  27.262  1.00  0.00    -0.368 OA
ATOM     11  H1  UNL     1      32.906   5.106  27.630  1.00  0.00     0.212 HD
ENDBRANCH   1  10
BRANCH   9  12
HETATM   12  O4  UNL     1      30.022   4.235  28.310  1.00  0.00    -0.389 OA
ATOM     13  H4  UNL     1      30.892   3.988  28.601  1.00  0.00     0.210 HD
ENDBRANCH   9  12
BRANCH   5  14
HETATM   14  O2  UNL     1      31.161   9.259  29.940  1.00  0.00    -0.369 OA
ATOM     15  H2  UNL     1      30.457   9.639  30.451  1.00  0.00     0.212 HD
ENDBRANCH   5  14
BRANCH   8  16
HETATM   16  O3  UNL     1      29.322   5.454  30.407  1.00  0.00    -0.392 OA
ATOM     17  H3  UNL     1      29.117   4.550  30.201  1.00  0.00     0.210 HD
ENDBRANCH   8  16
TORSDOF 4
ENDMDL
MODEL 3
REMARK VINA RESULT: -4.918151564      2.292      3.976
REMARK  4 active torsions:
REMARK  status: ('A' for Active; 'I' for Inactive)
REMARK    1  A    between atoms: O1_1  and  C1_3 
REMARK    2  A    between atoms: C2_7  and  O2_8 
REMARK    3  A    between atoms: C4_12  and  O3_13 
REMARK    4  A    between atoms: C5_15  and  O4_16 
ROOT
HETATM    1  C1  UNL     1      30.994   4.284  29.284  1.00  0.00     0.353 C 
HETATM    2  N1  UNL     1      29.833   5.073  29.676  1.00  0.00    -0.019 N 
ATOM      3  H11 UNL     1      30.005   5.667  30.487  1.00  0.00     0.283 HD
ATOM      4  H12 UNL     1      29.084   4.514  30.084  1.00  0.00     0.283 HD
HETATM    5  C2  UNL     1      29.421   5.809  28.508  1.00  0.00     0.338 C 
HETATM    6  C3  UNL     1      30.499   6.820  28.167  1.00  0.00     0.145 C 
HETATM    7 BR1  UNL     1      30.533   8.227  29.501  1.00  0.00    -0.084 Br
HETATM    8  C4  UNL     1      31.844   6.195  27.978  1.00  0.00     0.169 C 
HETATM    9  C5  UNL     1      32.181   5.137  28.975  1.00  0.00     0.204 C 
ENDROOT
BRANCH   1  10
HETATM   10  O1  UNL     1      31.223   3.356  30.265  1.00  0.00    -0.368 OA
ATOM     11  H1  UNL     1      30.772   3.642  31.050  1.00  0.00     0.212 HD
ENDBRANCH   1  10
BRANCH   9  12
HETATM   12  O4  UNL     1      33.163   4.292  28.423  1.00  0.00    -0.389 OA
ATOM     13  H4  UNL     1      33.469   4.706  27.624  1.00  0.00     0.210 HD
ENDBRANCH   9  12
BRANCH   5  14
HETATM   14  O2  UNL     1      28.219   6.459  28.660  1.00  0.00    -0.369 OA
ATOM     15  H2  UNL     1      28.017   7.059  27.952  1.00  0.00     0.212 HD
ENDBRANCH   5  14
BRANCH   8  16
HETATM   16  O3  UNL     1      31.907   5.650  26.705  1.00  0.00    -0.392 OA
ATOM     17  H3  UNL     1      32.805   5.695  26.398  1.00  0.00     0.210 HD
ENDBRANCH   8  16
TORSDOF 4
ENDMDL
MODEL 4
REMARK VINA RESULT: -4.889387703      1.718      1.820
REMARK  4 active torsions:
REMARK  status: ('A' for Active; 'I' for Inactive)
REMARK    1  A    between atoms: O1_1  and  C1_3 
REMARK    2  A    between atoms: C2_7  and  O2_8 
REMARK    3  A    between atoms: C4_12  and  O3_13 
REMARK    4  A    between atoms: C5_15  and  O4_16 
ROOT
HETATM    1  C1  UNL     1      30.079   9.134  30.088  1.00  0.00     0.353 C 
HETATM    2  N1  UNL     1      31.285   9.006  29.281  1.00  0.00    -0.019 N 
ATOM      3  H11 UNL     1      31.963   8.351  29.671  1.00  0.00     0.283 HD
ATOM      4  H12 UNL     1      31.879   9.835  29.308  1.00  0.00     0.283 HD
HETATM    5  C2  UNL     1      30.856   8.657  27.951  1.00  0.00     0.338 C 
HETATM    6  C3  UNL     1      30.246   7.269  27.987  1.00  0.00     0.145 C 
HETATM    7 BR1  UNL     1      31.630   5.945  28.291  1.00  0.00    -0.084 Br
HETATM    8  C4  UNL     1      29.129   7.150  28.975  1.00  0.00     0.169 C 
HETATM    9  C5  UNL     1      29.384   7.826  30.280  1.00  0.00     0.204 C 
ENDROOT
BRANCH   1  10
HETATM   10  O1  UNL     1      30.421   9.754  31.262  1.00  0.00    -0.368 OA
ATOM     11  H1  UNL     1      29.963   9.314  31.968  1.00  0.00     0.212 HD
ENDBRANCH   1  10
BRANCH   9  12
HETATM   12  O4  UNL     1      28.146   8.103  30.894  1.00  0.00    -0.389 OA
ATOM     13  H4  UNL     1      27.636   7.302  30.866  1.00  0.00     0.210 HD
ENDBRANCH   9  12
BRANCH   5  14
HETATM   14  O2  UNL     1      31.867   8.686  27.019  1.00  0.00    -0.369 OA
ATOM     15  H2  UNL     1      32.139   7.825  26.725  1.00  0.00     0.212 HD
ENDBRANCH   5  14
BRANCH   8  16
HETATM   16  O3  UNL     1      27.978   7.677  28.411  1.00  0.00    -0.392 OA
ATOM     17  H3  UNL     1      28.150   8.573  28.148  1.00  0.00     0.210 HD
ENDBRANCH   8  16
TORSDOF 4
ENDMDL
MODEL 5
REMARK VINA RESULT: -4.822356396      2.491      3.978
REMARK  4 active torsions:
REMARK  status: ('A' for Active; 'I' for Inactive)
REMARK    1  A    between atoms: O1_1  and  C1_3 
REMARK    2  A    between atoms: C2_7  and  O2_8 
REMARK    3  A    between atoms: C4_12  and  O3_13 
REMARK    4  A    between atoms: C5_15  and  O4_16 
ROOT
HETATM    1  C1  UNL     1      29.972   6.107  28.943  1.00  0.00     0.353 C 
HETATM    2  N1  UNL     1      29.174   6.830  29.925  1.00  0.00    -0.019 N 
ATOM      3  H11 UNL     1      29.685   7.038  30.784  1.00  0.00     0.283 HD
ATOM      4  H12 UNL     1      28.442   6.259  30.348  1.00  0.00     0.283 HD
HETATM    5  C2  UNL     1      28.670   8.005  29.264  1.00  0.00     0.338 C 
HETATM    6  C3  UNL     1      29.836   8.919  28.942  1.00  0.00     0.145 C 
HETATM    7 BR1  UNL     1      30.546   9.687  30.575  1.00  0.00    -0.084 Br
HETATM    8  C4  UNL     1      30.898   8.244  28.132  1.00  0.00     0.169 C 
HETATM    9  C5  UNL     1      31.211   6.851  28.563  1.00  0.00     0.204 C 
ENDROOT
BRANCH   1  10
HETATM   10  O1  UNL     1      30.213   4.852  29.436  1.00  0.00    -0.368 OA
ATOM     11  H1  UNL     1      30.618   4.340  28.746  1.00  0.00     0.212 HD
ENDBRANCH   1  10
BRANCH   9  12
HETATM   12  O4  UNL     1      31.788   6.162  27.477  1.00  0.00    -0.389 OA
ATOM     13  H4  UNL     1      31.722   5.234  27.670  1.00  0.00     0.210 HD
ENDBRANCH   9  12
BRANCH   5  14
HETATM   14  O2  UNL     1      27.739   8.698  30.001  1.00  0.00    -0.369 OA
ATOM     15  H2  UNL     1      27.466   9.515  29.601  1.00  0.00     0.212 HD
ENDBRANCH   5  14
BRANCH   8  16
HETATM   16  O3  UNL     1      30.502   8.228  26.804  1.00  0.00    -0.392 OA
ATOM     17  H3  UNL     1      31.178   7.803  26.290  1.00  0.00     0.210 HD
ENDBRANCH   8  16
TORSDOF 4
ENDMDL
