MODEL 1
REMARK VINA RESULT: -5.762278289      0.000      0.000
REMARK  5 active torsions:
REMARK  status: ('A' for Active; 'I' for Inactive)
REMARK    1  A    between atoms: O1_1  and  C1_3 
REMARK    2  A    between atoms: C2_6  and  C3_7 
REMARK    3  A    between atoms: C4_9  and  O2_10 
REMARK    4  A    between atoms: C5_12  and  O3_13 
REMARK    5  A    between atoms: C6_15  and  O4_16 
ROOT
HETATM    1  C1  UNL     1      29.241   6.070  29.296  1.00  0.00     0.245 C 
HETATM    2  N1  UNL     1      29.402   7.447  29.544  1.00  0.00    -0.387 N 
ATOM      3  H1  UNL     1      28.618   7.990  29.906  1.00  0.00     0.156 HD
HETATM    4  C2  UNL     1      30.615   8.073  29.302  1.00  0.00     0.120 C 
HETATM    5  C4  UNL     1      31.199   7.590  27.995  1.00  0.00     0.172 C 
HETATM    6  C5  UNL     1      31.522   6.116  28.255  1.00  0.00     0.181 C 
HETATM    7  C6  UNL     1      30.181   5.432  28.363  1.00  0.00     0.197 C 
ENDROOT
BRANCH   1   8
HETATM    8  O1  UNL     1      29.195   5.405  30.545  1.00  0.00    -0.374 OA
ATOM      9  H1  UNL     1      29.202   4.470  30.378  1.00  0.00     0.212 HD
ENDBRANCH   1   8
BRANCH   7  10
HETATM   10  O4  UNL     1      30.325   4.080  28.718  1.00  0.00    -0.389 OA
ATOM     11  H4  UNL     1      29.469   3.726  28.932  1.00  0.00     0.210 HD
ENDBRANCH   7  10
BRANCH   4  12
HETATM   12  C3  UNL     1      30.433   9.578  29.312  1.00  0.00     0.112 C 
HETATM   13 BR1  UNL     1      30.891  10.275  31.059  1.00  0.00    -0.094 Br
ENDBRANCH   4  12
BRANCH   6  14
HETATM   14  O3  UNL     1      32.308   5.578  27.284  1.00  0.00    -0.390 OA
ATOM     15  H3  UNL     1      33.222   5.537  27.538  1.00  0.00     0.210 HD
ENDBRANCH   6  14
BRANCH   5  16
HETATM   16  O2  UNL     1      32.302   8.299  27.590  1.00  0.00    -0.391 OA
ATOM     17  H2  UNL     1      33.126   7.875  27.800  1.00  0.00     0.210 HD
ENDBRANCH   5  16
TORSDOF 5
ENDMDL
MODEL 2
REMARK VINA RESULT: -5.760030843      1.030      1.030
REMARK  5 active torsions:
REMARK  status: ('A' for Active; 'I' for Inactive)
REMARK    1  A    between atoms: O1_1  and  C1_3 
REMARK    2  A    between atoms: C2_6  and  C3_7 
REMARK    3  A    between atoms: C4_9  and  O2_10 
REMARK    4  A    between atoms: C5_12  and  O3_13 
REMARK    5  A    between atoms: C6_15  and  O4_16 
ROOT
HETATM    1  C1  UNL     1      29.260   6.092  29.302  1.00  0.00     0.245 C 
HETATM    2  N1  UNL     1      29.417   7.471  29.542  1.00  0.00    -0.387 N 
ATOM      3  H1  UNL     1      28.634   8.013  29.906  1.00  0.00     0.156 HD
HETATM    4  C2  UNL     1      30.627   8.100  29.287  1.00  0.00     0.120 C 
HETATM    5  C4  UNL     1      31.203   7.612  27.979  1.00  0.00     0.172 C 
HETATM    6  C5  UNL     1      31.534   6.140  28.246  1.00  0.00     0.181 C 
HETATM    7  C6  UNL     1      30.196   5.452  28.366  1.00  0.00     0.197 C 
ENDROOT
BRANCH   1   8
HETATM    8  O1  UNL     1      29.225   5.433  30.554  1.00  0.00    -0.374 OA
ATOM      9  H1  UNL     1      28.854   4.570  30.421  1.00  0.00     0.212 HD
ENDBRANCH   1   8
BRANCH   7  10
HETATM   10  O4  UNL     1      30.347   4.103  28.728  1.00  0.00    -0.389 OA
ATOM     11  H4  UNL     1      30.455   4.048  29.670  1.00  0.00     0.210 HD
ENDBRANCH   7  10
BRANCH   4  12
HETATM   12  C3  UNL     1      30.439   9.604  29.291  1.00  0.00     0.112 C 
HETATM   13 BR1  UNL     1      29.105  10.095  27.977  1.00  0.00    -0.094 Br
ENDBRANCH   4  12
BRANCH   6  14
HETATM   14  O3  UNL     1      32.315   5.600  27.272  1.00  0.00    -0.390 OA
ATOM     15  H3  UNL     1      32.946   6.221  26.927  1.00  0.00     0.210 HD
ENDBRANCH   6  14
BRANCH   5  16
HETATM   16  O2  UNL     1      32.301   8.323  27.563  1.00  0.00    -0.391 OA
ATOM     17  H2  UNL     1      32.961   7.789  27.136  1.00  0.00     0.210 HD
ENDBRANCH   5  16
TORSDOF 5
ENDMDL
MODEL 3
REMARK VINA RESULT: -5.602205703      2.565      4.067
REMARK  5 active torsions:
REMARK  status: ('A' for Active; 'I' for Inactive)
REMARK    1  A    between atoms: O1_1  and  C1_3 
REMARK    2  A    between atoms: C2_6  and  C3_7 
REMARK    3  A    between atoms: C4_9  and  O2_10 
REMARK    4  A    between atoms: C5_12  and  O3_13 
REMARK    5  A    between atoms: C6_15  and  O4_16 
ROOT
HETATM    1  C1  UNL     1      30.520   8.340  29.247  1.00  0.00     0.245 C 
HETATM    2  N1  UNL     1      31.452   7.577  28.516  1.00  0.00    -0.387 N 
ATOM      3  H1  UNL     1      32.117   8.047  27.902  1.00  0.00     0.156 HD
HETATM    4  C2  UNL     1      31.473   6.195  28.620  1.00  0.00     0.120 C 
HETATM    5  C4  UNL     1      30.064   5.651  28.618  1.00  0.00     0.172 C 
HETATM    6  C5  UNL     1      29.463   6.170  29.928  1.00  0.00     0.181 C 
HETATM    7  C6  UNL     1      29.309   7.658  29.728  1.00  0.00     0.197 C 
ENDROOT
BRANCH   1   8
HETATM    8  O1  UNL     1      31.216   8.990  30.294  1.00  0.00    -0.374 OA
ATOM      9  H1  UNL     1      32.039   9.309  29.945  1.00  0.00     0.212 HD
ENDBRANCH   1   8
BRANCH   7  10
HETATM   10  O4  UNL     1      28.870   8.288  30.903  1.00  0.00    -0.389 OA
ATOM     11  H4  UNL     1      29.265   9.151  30.955  1.00  0.00     0.210 HD
ENDBRANCH   7  10
BRANCH   4  12
HETATM   12  C3  UNL     1      32.305   5.604  27.500  1.00  0.00     0.112 C 
HETATM   13 BR1  UNL     1      33.593   4.360  28.234  1.00  0.00    -0.094 Br
ENDBRANCH   4  12
BRANCH   6  14
HETATM   14  O3  UNL     1      28.288   5.558  30.238  1.00  0.00    -0.390 OA
ATOM     15  H3  UNL     1      28.400   4.856  30.867  1.00  0.00     0.210 HD
ENDBRANCH   6  14
BRANCH   5  16
HETATM   16  O2  UNL     1      30.003   4.282  28.527  1.00  0.00    -0.391 OA
ATOM     17  H2  UNL     1      30.498   3.833  29.202  1.00  0.00     0.210 HD
ENDBRANCH   5  16
TORSDOF 5
ENDMDL
MODEL 4
REMARK VINA RESULT: -5.521193582      1.470      2.693
REMARK  5 active torsions:
REMARK  status: ('A' for Active; 'I' for Inactive)
REMARK    1  A    between atoms: O1_1  and  C1_3 
REMARK    2  A    between atoms: C2_6  and  C3_7 
REMARK    3  A    between atoms: C4_9  and  O2_10 
REMARK    4  A    between atoms: C5_12  and  O3_13 
REMARK    5  A    between atoms: C6_15  and  O4_16 
ROOT
HETATM    1  C1  UNL     1      31.588   6.187  28.505  1.00  0.00     0.245 C 
HETATM    2  N1  UNL     1      31.540   7.594  28.534  1.00  0.00    -0.387 N 
ATOM      3  H1  UNL     1      32.402   8.126  28.656  1.00  0.00     0.156 HD
HETATM    4  C2  UNL     1      30.334   8.265  28.399  1.00  0.00     0.120 C 
HETATM    5  C4  UNL     1      29.261   7.575  29.208  1.00  0.00     0.172 C 
HETATM    6  C5  UNL     1      29.080   6.224  28.510  1.00  0.00     0.181 C 
HETATM    7  C6  UNL     1      30.347   5.457  28.803  1.00  0.00     0.197 C 
ENDROOT
BRANCH   1   8
HETATM    8  O1  UNL     1      32.151   5.795  27.266  1.00  0.00    -0.374 OA
ATOM      9  H1  UNL     1      31.501   5.288  26.796  1.00  0.00     0.212 HD
ENDBRANCH   1   8
BRANCH   7  10
HETATM   10  O4  UNL     1      30.368   4.229  28.122  1.00  0.00    -0.389 OA
ATOM     11  H4  UNL     1      30.488   3.529  28.754  1.00  0.00     0.210 HD
ENDBRANCH   7  10
BRANCH   4  12
HETATM   12  C3  UNL     1      30.500   9.715  28.807  1.00  0.00     0.112 C 
HETATM   13 BR1  UNL     1      30.781   9.824  30.719  1.00  0.00    -0.094 Br
ENDBRANCH   4  12
BRANCH   6  14
HETATM   14  O3  UNL     1      27.963   5.570  28.928  1.00  0.00    -0.390 OA
ATOM     15  H3  UNL     1      27.736   4.842  28.362  1.00  0.00     0.210 HD
ENDBRANCH   6  14
BRANCH   5  16
HETATM   16  O2  UNL     1      28.087   8.283  29.281  1.00  0.00    -0.391 OA
ATOM     17  H2  UNL     1      28.018   8.828  30.056  1.00  0.00     0.210 HD
ENDBRANCH   5  16
TORSDOF 5
ENDMDL
MODEL 5
REMARK VINA RESULT: -5.513549485      1.959      2.993
REMARK  5 active torsions:
REMARK  status: ('A' for Active; 'I' for Inactive)
REMARK    1  A    between atoms: O1_1  and  C1_3 
REMARK    2  A    between atoms: C2_6  and  C3_7 
REMARK    3  A    between atoms: C4_9  and  O2_10 
REMARK    4  A    between atoms: C5_12  and  O3_13 
REMARK    5  A    between atoms: C6_15  and  O4_16 
ROOT
HETATM    1  C1  UNL     1      31.843   6.088  28.351  1.00  0.00     0.245 C 
HETATM    2  N1  UNL     1      31.719   7.453  28.027  1.00  0.00    -0.387 N 
ATOM      3  H1  UNL     1      32.557   8.015  27.880  1.00  0.00     0.156 HD
HETATM    4  C2  UNL     1      30.469   8.041  27.908  1.00  0.00     0.120 C 
HETATM    5  C4  UNL     1      29.561   7.565  29.017  1.00  0.00     0.172 C 
HETATM    6  C5  UNL     1      29.363   6.075  28.721  1.00  0.00     0.181 C 
HETATM    7  C6  UNL     1      30.700   5.436  29.007  1.00  0.00     0.197 C 
ENDROOT
BRANCH   1   8
HETATM    8  O1  UNL     1      32.251   5.399  27.183  1.00  0.00    -0.374 OA
ATOM      9  H1  UNL     1      31.955   4.499  27.257  1.00  0.00     0.212 HD
ENDBRANCH   1   8
BRANCH   7  10
HETATM   10  O4  UNL     1      30.698   4.074  28.666  1.00  0.00    -0.389 OA
ATOM     11  H4  UNL     1      30.347   3.575  29.395  1.00  0.00     0.210 HD
ENDBRANCH   7  10
BRANCH   4  12
HETATM   12  C3  UNL     1      30.606   9.551  27.903  1.00  0.00     0.112 C 
HETATM   13 BR1  UNL     1      32.069  10.066  26.747  1.00  0.00    -0.094 Br
ENDBRANCH   4  12
BRANCH   6  14
HETATM   14  O3  UNL     1      28.354   5.530  29.454  1.00  0.00    -0.390 OA
ATOM     15  H3  UNL     1      28.455   4.593  29.568  1.00  0.00     0.210 HD
ENDBRANCH   6  14
BRANCH   5  16
HETATM   16  O2  UNL     1      28.369   8.243  29.081  1.00  0.00    -0.391 OA
ATOM     17  H2  UNL     1      28.306   8.833  29.823  1.00  0.00     0.210 HD
ENDBRANCH   5  16
TORSDOF 5
ENDMDL
