MODEL 1
REMARK VINA RESULT: -5.682474389      0.000      0.000
REMARK  4 active torsions:
REMARK  status: ('A' for Active; 'I' for Inactive)
REMARK    1  A    between atoms: O1_1  and  C1_3 
REMARK    2  A    between atoms: C3_7  and  O3_8 
REMARK    3  A    between atoms: C4_10  and  O4_11 
REMARK    4  A    between atoms: C5_13  and  O5_14 
ROOT
HETATM    1  C1  UNL     1      30.728   7.972  29.078  1.00  0.00     0.289 C 
HETATM    2  O2  UNL     1      31.632   6.943  29.059  1.00  0.00    -0.340 OA
HETATM    3  C2  UNL     1      31.287   5.902  28.205  1.00  0.00     0.227 C 
HETATM    4 BR1  UNL     1      32.777   4.666  28.157  1.00  0.00    -0.058 Br
HETATM    5  C3  UNL     1      30.125   5.182  28.900  1.00  0.00     0.189 C 
HETATM    6  C4  UNL     1      29.039   6.124  29.286  1.00  0.00     0.183 C 
HETATM    7  C5  UNL     1      29.297   7.553  28.972  1.00  0.00     0.204 C 
ENDROOT
BRANCH   1   8
HETATM    8  O1  UNL     1      30.976   8.737  30.233  1.00  0.00    -0.368 OA
ATOM      9  H1  UNL     1      31.599   9.416  30.000  1.00  0.00     0.212 HD
ENDBRANCH   1   8
BRANCH   7  10
HETATM   10  O5  UNL     1      28.744   7.947  27.732  1.00  0.00    -0.388 OA
ATOM     11  H5  UNL     1      27.958   7.452  27.536  1.00  0.00     0.210 HD
ENDBRANCH   7  10
BRANCH   6  12
HETATM   12  O4  UNL     1      27.831   5.700  28.714  1.00  0.00    -0.390 OA
ATOM     13  H4  UNL     1      27.295   6.459  28.514  1.00  0.00     0.210 HD
ENDBRANCH   6  12
BRANCH   5  14
HETATM   14  O3  UNL     1      29.666   4.143  28.096  1.00  0.00    -0.389 OA
ATOM     15  H3  UNL     1      28.953   3.691  28.530  1.00  0.00     0.210 HD
ENDBRANCH   5  14
TORSDOF 4
ENDMDL
MODEL 2
REMARK VINA RESULT: -5.540527059      1.944      3.097
REMARK  4 active torsions:
REMARK  status: ('A' for Active; 'I' for Inactive)
REMARK    1  A    between atoms: O1_1  and  C1_3 
REMARK    2  A    between atoms: C3_7  and  O3_8 
REMARK    3  A    between atoms: C4_10  and  O4_11 
REMARK    4  A    between atoms: C5_13  and  O5_14 
ROOT
HETATM    1  C1  UNL     1      29.116   6.190  29.291  1.00  0.00     0.289 C 
HETATM    2  O2  UNL     1      29.855   7.272  28.890  1.00  0.00    -0.340 OA
HETATM    3  C2  UNL     1      30.637   7.038  27.765  1.00  0.00     0.227 C 
HETATM    4 BR1  UNL     1      31.426   8.727  27.239  1.00  0.00    -0.058 Br
HETATM    5  C3  UNL     1      31.779   6.137  28.250  1.00  0.00     0.189 C 
HETATM    6  C4  UNL     1      31.273   4.941  28.978  1.00  0.00     0.183 C 
HETATM    7  C5  UNL     1      29.797   4.869  29.132  1.00  0.00     0.204 C 
ENDROOT
BRANCH   1   8
HETATM    8  O1  UNL     1      28.703   6.422  30.616  1.00  0.00    -0.368 OA
ATOM      9  H1  UNL     1      28.920   5.650  31.125  1.00  0.00     0.212 HD
ENDBRANCH   1   8
BRANCH   7  10
HETATM   10  O5  UNL     1      29.180   4.100  28.118  1.00  0.00    -0.388 OA
ATOM     11  H5  UNL     1      28.237   4.215  28.129  1.00  0.00     0.210 HD
ENDBRANCH   7  10
BRANCH   6  12
HETATM   12  O4  UNL     1      31.766   3.781  28.366  1.00  0.00    -0.390 OA
ATOM     13  H4  UNL     1      31.581   3.031  28.918  1.00  0.00     0.210 HD
ENDBRANCH   6  12
BRANCH   5  14
HETATM   14  O3  UNL     1      32.599   5.799  27.178  1.00  0.00    -0.389 OA
ATOM     15  H3  UNL     1      33.158   5.069  27.419  1.00  0.00     0.210 HD
ENDBRANCH   5  14
TORSDOF 4
ENDMDL
MODEL 3
REMARK VINA RESULT: -5.206453231      1.216      2.955
REMARK  4 active torsions:
REMARK  status: ('A' for Active; 'I' for Inactive)
REMARK    1  A    between atoms: O1_1  and  C1_3 
REMARK    2  A    between atoms: C3_7  and  O3_8 
REMARK    3  A    between atoms: C4_10  and  O4_11 
REMARK    4  A    between atoms: C5_13  and  O5_14 
ROOT
HETATM    1  C1  UNL     1      28.819   5.729  29.183  1.00  0.00     0.289 C 
HETATM    2  O2  UNL     1      29.931   5.138  28.643  1.00  0.00    -0.340 OA
HETATM    3  C2  UNL     1      31.105   5.854  28.842  1.00  0.00     0.227 C 
HETATM    4 BR1  UNL     1      32.571   4.762  28.203  1.00  0.00    -0.058 Br
HETATM    5  C3  UNL     1      31.002   7.064  27.905  1.00  0.00     0.189 C 
HETATM    6  C4  UNL     1      29.723   7.804  28.092  1.00  0.00     0.183 C 
HETATM    7  C5  UNL     1      28.793   7.221  29.095  1.00  0.00     0.204 C 
ENDROOT
BRANCH   1   8
HETATM    8  O1  UNL     1      27.689   5.139  28.587  1.00  0.00    -0.368 OA
ATOM      9  H1  UNL     1      26.942   5.316  29.146  1.00  0.00     0.212 HD
ENDBRANCH   1   8
BRANCH   7  10
HETATM   10  O5  UNL     1      28.934   7.807  30.373  1.00  0.00    -0.388 OA
ATOM     11  H5  UNL     1      28.089   8.065  30.725  1.00  0.00     0.210 HD
ENDBRANCH   7  10
BRANCH   6  12
HETATM   12  O4  UNL     1      30.001   9.144  28.393  1.00  0.00    -0.390 OA
ATOM     13  H4  UNL     1      30.261   9.597  27.600  1.00  0.00     0.210 HD
ENDBRANCH   6  12
BRANCH   5  14
HETATM   14  O3  UNL     1      32.116   7.881  28.067  1.00  0.00    -0.389 OA
ATOM     15  H3  UNL     1      31.844   8.789  28.120  1.00  0.00     0.210 HD
ENDBRANCH   5  14
TORSDOF 4
ENDMDL
MODEL 4
REMARK VINA RESULT: -5.156594561      1.939      3.232
REMARK  4 active torsions:
REMARK  status: ('A' for Active; 'I' for Inactive)
REMARK    1  A    between atoms: O1_1  and  C1_3 
REMARK    2  A    between atoms: C3_7  and  O3_8 
REMARK    3  A    between atoms: C4_10  and  O4_11 
REMARK    4  A    between atoms: C5_13  and  O5_14 
ROOT
HETATM    1  C1  UNL     1      29.135   8.247  30.385  1.00  0.00     0.289 C 
HETATM    2  O2  UNL     1      29.057   7.049  29.726  1.00  0.00    -0.340 OA
HETATM    3  C2  UNL     1      30.281   6.572  29.272  1.00  0.00     0.227 C 
HETATM    4 BR1  UNL     1      29.990   4.790  28.570  1.00  0.00    -0.058 Br
HETATM    5  C3  UNL     1      30.646   7.471  28.084  1.00  0.00     0.189 C 
HETATM    6  C4  UNL     1      30.576   8.916  28.439  1.00  0.00     0.183 C 
HETATM    7  C5  UNL     1      30.136   9.208  29.828  1.00  0.00     0.204 C 
ENDROOT
BRANCH   1   8
HETATM    8  O1  UNL     1      27.840   8.794  30.433  1.00  0.00    -0.368 OA
ATOM      9  H1  UNL     1      27.891   9.618  30.902  1.00  0.00     0.212 HD
ENDBRANCH   1   8
BRANCH   7  10
HETATM   10  O5  UNL     1      31.221   9.383  30.718  1.00  0.00    -0.388 OA
ATOM     11  H5  UNL     1      31.872   8.700  30.601  1.00  0.00     0.210 HD
ENDBRANCH   7  10
BRANCH   6  12
HETATM   12  O4  UNL     1      31.812   9.520  28.173  1.00  0.00    -0.390 OA
ATOM     13  H4  UNL     1      32.267   9.024  27.502  1.00  0.00     0.210 HD
ENDBRANCH   6  12
BRANCH   5  14
HETATM   14  O3  UNL     1      31.892   7.107  27.584  1.00  0.00    -0.389 OA
ATOM     15  H3  UNL     1      32.457   7.869  27.542  1.00  0.00     0.210 HD
ENDBRANCH   5  14
TORSDOF 4
ENDMDL
MODEL 5
REMARK VINA RESULT: -5.121485044      2.246      3.587
REMARK  4 active torsions:
REMARK  status: ('A' for Active; 'I' for Inactive)
REMARK    1  A    between atoms: O1_1  and  C1_3 
REMARK    2  A    between atoms: C3_7  and  O3_8 
REMARK    3  A    between atoms: C4_10  and  O4_11 
REMARK    4  A    between atoms: C5_13  and  O5_14 
ROOT
HETATM    1  C1  UNL     1      28.790   5.902  29.531  1.00  0.00     0.289 C 
HETATM    2  O2  UNL     1      28.870   7.257  29.345  1.00  0.00    -0.340 OA
HETATM    3  C2  UNL     1      29.567   7.632  28.202  1.00  0.00     0.227 C 
HETATM    4 BR1  UNL     1      29.383   9.550  28.008  1.00  0.00    -0.058 Br
HETATM    5  C3  UNL     1      31.040   7.349  28.520  1.00  0.00     0.189 C 
HETATM    6  C4  UNL     1      31.247   5.958  29.008  1.00  0.00     0.183 C 
HETATM    7  C5  UNL     1      30.013   5.140  29.133  1.00  0.00     0.204 C 
ENDROOT
BRANCH   1   8
HETATM    8  O1  UNL     1      28.432   5.675  30.872  1.00  0.00    -0.368 OA
ATOM      9  H1  UNL     1      28.456   4.738  31.023  1.00  0.00     0.212 HD
ENDBRANCH   1   8
BRANCH   7  10
HETATM   10  O5  UNL     1      29.766   4.347  27.989  1.00  0.00    -0.388 OA
ATOM     11  H5  UNL     1      30.498   3.768  27.810  1.00  0.00     0.210 HD
ENDBRANCH   7  10
BRANCH   6  12
HETATM   12  O4  UNL     1      32.188   5.315  28.194  1.00  0.00    -0.390 OA
ATOM     13  H4  UNL     1      33.025   5.757  28.270  1.00  0.00     0.210 HD
ENDBRANCH   6  12
BRANCH   5  14
HETATM   14  O3  UNL     1      31.826   7.645  27.411  1.00  0.00    -0.389 OA
ATOM     15  H3  UNL     1      32.700   7.296  27.534  1.00  0.00     0.210 HD
ENDBRANCH   5  14
TORSDOF 4
ENDMDL
