MODEL 1
REMARK VINA RESULT: -6.789805419      0.000      0.000
REMARK  11 active torsions:
REMARK  status: ('A' for Active; 'I' for Inactive)
REMARK       I    between atoms: C1_4  and  N3_6 
REMARK    1  A    between atoms: N3_6  and  C2_8 
REMARK    2  A    between atoms: C3_9  and  O1_10 
REMARK    3  A    between atoms: C5_13  and  N4_14 
REMARK    4  A    between atoms: N4_14  and  C6_17 
REMARK    5  A    between atoms: C6_17  and  C7_18 
REMARK    6  A    between atoms: C9_21  and  C10_22 
REMARK    7  A    between atoms: C10_22  and  N5_23 
REMARK    8  A    between atoms: N5_23  and  C11_25 
REMARK    9  A    between atoms: C11_25  and  C12_26 
REMARK   10  A    between atoms: C12_26  and  N6_27 
REMARK   11  A    between atoms: N6_27  and  O3_28 
ROOT
HETATM    1  N4  UNL     1      -5.078  42.572  51.641  1.00  0.00    -0.064 N 
ATOM      2  H41 UNL     1      -5.597  43.090  52.350  1.00  0.00     0.277 HD
ATOM      3  H42 UNL     1      -5.453  41.644  51.839  1.00  0.00     0.277 HD
ENDROOT
BRANCH   1   4
HETATM    4  C5  UNL     1      -3.655  42.643  51.841  1.00  0.00     0.213 C 
HETATM    5  C2  UNL     1      -3.126  43.464  52.957  1.00  0.00     0.143 C 
HETATM    6  C3  UNL     1      -2.967  42.166  53.764  1.00  0.00     0.145 C 
HETATM    7  C4  UNL     1      -3.198  41.344  52.504  1.00  0.00     0.069 C 
BRANCH   5   8
HETATM    8  N3  UNL     1      -1.842  44.075  52.758  1.00  0.00    -0.356 N 
HETATM    9  C1  UNL     1      -1.369  44.555  51.521  1.00  0.00     0.182 C 
HETATM   10  N1  UNL     1      -1.857  45.628  51.031  1.00  0.00    -0.374 N 
HETATM   11  N2  UNL     1      -0.361  43.856  50.824  1.00  0.00    -0.064 NA
ATOM     12  H12 UNL     1      -1.515  45.975  50.135  1.00  0.00     0.158 HD
ATOM     13  H11 UNL     1      -2.586  46.134  51.534  1.00  0.00     0.158 HD
ATOM     14  H3  UNL     1      -1.229  44.168  53.569  1.00  0.00     0.162 HD
ENDBRANCH   5   8
BRANCH   6  15
HETATM   15  O1  UNL     1      -1.673  41.941  54.225  1.00  0.00    -0.393 OA
ATOM     16  H1  UNL     1      -1.245  41.192  53.826  1.00  0.00     0.210 HD
ENDBRANCH   6  15
ENDBRANCH   1   4
BRANCH   1  17
HETATM   17  C6  UNL     1      -5.387  43.016  50.301  1.00  0.00     0.293 C 
BRANCH  17  18
HETATM   18  C7  UNL     1      -6.260  44.258  50.319  1.00  0.00     0.286 C 
HETATM   19  O2  UNL     1      -6.584  44.600  49.045  1.00  0.00    -0.357 OA
HETATM   20  C8  UNL     1      -5.814  45.690  48.679  1.00  0.00     0.208 C 
HETATM   21  C9  UNL     1      -5.282  46.225  49.959  1.00  0.00     0.186 C 
HETATM   22  O4  UNL     1      -5.616  45.307  50.921  1.00  0.00    -0.347 OA
BRANCH  21  23
HETATM   23  C10 UNL     1      -5.681  47.626  50.293  1.00  0.00     0.089 C 
BRANCH  23  24
HETATM   24  N5  UNL     1      -7.020  48.001  50.217  1.00  0.00    -0.398 N 
ATOM     25  H5  UNL     1      -7.319  48.633  49.474  1.00  0.00     0.158 HD
BRANCH  24  26
HETATM   26  C11 UNL     1      -7.980  47.523  51.148  1.00  0.00     0.137 C 
BRANCH  26  27
HETATM   27  C12 UNL     1      -9.358  47.501  50.433  1.00  0.00     0.162 C 
BRANCH  27  28
HETATM   28  N6  UNL     1      -9.311  46.579  49.310  1.00  0.00    -0.102 NA
BRANCH  28  29
HETATM   29  O3  UNL     1      -9.164  47.285  48.186  1.00  0.00    -0.296 OA
ATOM     30  H3  UNL     1      -8.855  46.703  47.502  1.00  0.00     0.238 HD
ENDBRANCH  28  29
ENDBRANCH  27  28
ENDBRANCH  26  27
ENDBRANCH  24  26
ENDBRANCH  23  24
ENDBRANCH  21  23
ENDBRANCH  17  18
ENDBRANCH   1  17
TORSDOF 11
ENDMDL
MODEL 2
REMARK VINA RESULT: -6.769003484      3.412      5.949
REMARK  11 active torsions:
REMARK  status: ('A' for Active; 'I' for Inactive)
REMARK       I    between atoms: C1_4  and  N3_6 
REMARK    1  A    between atoms: N3_6  and  C2_8 
REMARK    2  A    between atoms: C3_9  and  O1_10 
REMARK    3  A    between atoms: C5_13  and  N4_14 
REMARK    4  A    between atoms: N4_14  and  C6_17 
REMARK    5  A    between atoms: C6_17  and  C7_18 
REMARK    6  A    between atoms: C9_21  and  C10_22 
REMARK    7  A    between atoms: C10_22  and  N5_23 
REMARK    8  A    between atoms: N5_23  and  C11_25 
REMARK    9  A    between atoms: C11_25  and  C12_26 
REMARK   10  A    between atoms: C12_26  and  N6_27 
REMARK   11  A    between atoms: N6_27  and  O3_28 
ROOT
HETATM    1  N4  UNL     1      -6.580  44.222  51.031  1.00  0.00    -0.064 N 
ATOM      2  H41 UNL     1      -7.460  43.729  51.181  1.00  0.00     0.277 HD
ATOM      3  H42 UNL     1      -6.264  44.250  52.001  1.00  0.00     0.277 HD
ENDROOT
BRANCH   1   4
HETATM    4  C5  UNL     1      -6.776  45.538  50.481  1.00  0.00     0.213 C 
HETATM    5  C2  UNL     1      -7.437  46.573  51.313  1.00  0.00     0.143 C 
HETATM    6  C3  UNL     1      -6.042  47.136  51.623  1.00  0.00     0.145 C 
HETATM    7  C4  UNL     1      -5.440  46.278  50.519  1.00  0.00     0.069 C 
BRANCH   5   8
HETATM    8  N3  UNL     1      -8.218  47.559  50.618  1.00  0.00    -0.356 N 
HETATM    9  C1  UNL     1      -9.293  47.264  49.757  1.00  0.00     0.182 C 
HETATM   10  N1  UNL     1     -10.401  46.858  50.244  1.00  0.00    -0.374 N 
HETATM   11  N2  UNL     1      -9.149  47.415  48.361  1.00  0.00    -0.064 NA
ATOM     12  H12 UNL     1     -11.179  46.645  49.621  1.00  0.00     0.158 HD
ATOM     13  H11 UNL     1     -10.505  46.749  51.253  1.00  0.00     0.158 HD
ATOM     14  H3  UNL     1      -7.976  48.540  50.758  1.00  0.00     0.162 HD
ENDBRANCH   5   8
BRANCH   6  15
HETATM   15  O1  UNL     1      -5.887  48.479  51.292  1.00  0.00    -0.393 OA
ATOM     16  H1  UNL     1      -6.163  48.695  50.410  1.00  0.00     0.210 HD
ENDBRANCH   6  15
ENDBRANCH   1   4
BRANCH   1  17
HETATM   17  C6  UNL     1      -5.676  43.486  50.178  1.00  0.00     0.293 C 
BRANCH  17  18
HETATM   18  C7  UNL     1      -6.404  42.890  48.987  1.00  0.00     0.286 C 
HETATM   19  O2  UNL     1      -5.895  41.660  48.716  1.00  0.00    -0.357 OA
HETATM   20  C8  UNL     1      -5.082  41.763  47.601  1.00  0.00     0.208 C 
HETATM   21  C9  UNL     1      -5.447  43.064  46.985  1.00  0.00     0.186 C 
HETATM   22  O4  UNL     1      -6.279  43.687  47.880  1.00  0.00    -0.347 OA
BRANCH  21  23
HETATM   23  C10 UNL     1      -5.993  42.994  45.596  1.00  0.00     0.089 C 
BRANCH  23  24
HETATM   24  N5  UNL     1      -6.385  44.164  44.948  1.00  0.00    -0.398 N 
ATOM     25  H5  UNL     1      -7.376  44.403  44.909  1.00  0.00     0.158 HD
BRANCH  24  26
HETATM   26  C11 UNL     1      -5.438  45.031  44.341  1.00  0.00     0.137 C 
BRANCH  26  27
HETATM   27  C12 UNL     1      -5.409  46.346  45.165  1.00  0.00     0.162 C 
BRANCH  27  28
HETATM   28  N6  UNL     1      -6.716  46.580  45.757  1.00  0.00    -0.102 NA
BRANCH  28  29
HETATM   29  O3  UNL     1      -6.608  46.466  47.083  1.00  0.00    -0.296 OA
ATOM     30  H3  UNL     1      -6.745  47.323  47.472  1.00  0.00     0.238 HD
ENDBRANCH  28  29
ENDBRANCH  27  28
ENDBRANCH  26  27
ENDBRANCH  24  26
ENDBRANCH  23  24
ENDBRANCH  21  23
ENDBRANCH  17  18
ENDBRANCH   1  17
TORSDOF 11
ENDMDL
MODEL 3
REMARK VINA RESULT: -6.740216843      4.120      6.198
REMARK  11 active torsions:
REMARK  status: ('A' for Active; 'I' for Inactive)
REMARK       I    between atoms: C1_4  and  N3_6 
REMARK    1  A    between atoms: N3_6  and  C2_8 
REMARK    2  A    between atoms: C3_9  and  O1_10 
REMARK    3  A    between atoms: C5_13  and  N4_14 
REMARK    4  A    between atoms: N4_14  and  C6_17 
REMARK    5  A    between atoms: C6_17  and  C7_18 
REMARK    6  A    between atoms: C9_21  and  C10_22 
REMARK    7  A    between atoms: C10_22  and  N5_23 
REMARK    8  A    between atoms: N5_23  and  C11_25 
REMARK    9  A    between atoms: C11_25  and  C12_26 
REMARK   10  A    between atoms: C12_26  and  N6_27 
REMARK   11  A    between atoms: N6_27  and  O3_28 
ROOT
HETATM    1  N4  UNL     1      -6.414  45.663  45.196  1.00  0.00    -0.064 N 
ATOM      2  H41 UNL     1      -7.192  45.431  45.814  1.00  0.00     0.277 HD
ATOM      3  H42 UNL     1      -6.954  45.842  44.349  1.00  0.00     0.277 HD
ENDROOT
BRANCH   1   4
HETATM    4  C5  UNL     1      -5.494  44.568  45.038  1.00  0.00     0.213 C 
HETATM    5  C2  UNL     1      -5.985  43.182  45.235  1.00  0.00     0.143 C 
HETATM    6  C3  UNL     1      -6.076  43.055  43.707  1.00  0.00     0.145 C 
HETATM    7  C4  UNL     1      -5.273  44.338  43.543  1.00  0.00     0.069 C 
BRANCH   5   8
HETATM    8  N3  UNL     1      -5.041  42.228  45.748  1.00  0.00    -0.356 N 
HETATM    9  C1  UNL     1      -5.392  41.031  46.402  1.00  0.00     0.182 C 
HETATM   10  N1  UNL     1      -5.873  40.060  45.728  1.00  0.00    -0.374 N 
HETATM   11  N2  UNL     1      -5.213  40.902  47.796  1.00  0.00    -0.064 NA
ATOM     12  H12 UNL     1      -6.127  39.193  46.201  1.00  0.00     0.158 HD
ATOM     13  H11 UNL     1      -6.002  40.152  44.720  1.00  0.00     0.158 HD
ATOM     14  H3  UNL     1      -4.049  42.433  45.631  1.00  0.00     0.162 HD
ENDBRANCH   5   8
BRANCH   6  15
HETATM   15  O1  UNL     1      -5.348  41.991  43.182  1.00  0.00    -0.393 OA
ATOM     16  H1  UNL     1      -4.631  42.254  42.617  1.00  0.00     0.210 HD
ENDBRANCH   6  15
ENDBRANCH   1   4
BRANCH   1  17
HETATM   17  C6  UNL     1      -5.686  46.828  45.642  1.00  0.00     0.293 C 
BRANCH  17  18
HETATM   18  C7  UNL     1      -5.990  47.144  47.096  1.00  0.00     0.286 C 
HETATM   19  O2  UNL     1      -4.843  47.503  47.728  1.00  0.00    -0.357 OA
HETATM   20  C8  UNL     1      -4.427  46.440  48.510  1.00  0.00     0.208 C 
HETATM   21  C9  UNL     1      -5.616  45.555  48.608  1.00  0.00     0.186 C 
HETATM   22  O4  UNL     1      -6.540  46.064  47.733  1.00  0.00    -0.347 OA
BRANCH  21  23
HETATM   23  C10 UNL     1      -6.146  45.329  49.987  1.00  0.00     0.089 C 
BRANCH  23  24
HETATM   24  N5  UNL     1      -7.424  45.774  50.318  1.00  0.00    -0.398 N 
ATOM     25  H5  UNL     1      -8.222  45.160  50.154  1.00  0.00     0.158 HD
BRANCH  24  26
HETATM   26  C11 UNL     1      -7.642  47.061  50.876  1.00  0.00     0.137 C 
BRANCH  26  27
HETATM   27  C12 UNL     1      -9.076  47.508  50.483  1.00  0.00     0.162 C 
BRANCH  27  28
HETATM   28  N6  UNL     1      -9.565  46.676  49.395  1.00  0.00    -0.102 NA
BRANCH  28  29
HETATM   29  O3  UNL     1      -9.265  47.270  48.238  1.00  0.00    -0.296 OA
ATOM     30  H3  UNL     1     -10.018  47.208  47.662  1.00  0.00     0.238 HD
ENDBRANCH  28  29
ENDBRANCH  27  28
ENDBRANCH  26  27
ENDBRANCH  24  26
ENDBRANCH  23  24
ENDBRANCH  21  23
ENDBRANCH  17  18
ENDBRANCH   1  17
TORSDOF 11
ENDMDL
MODEL 4
REMARK VINA RESULT: -6.722252318      3.816      6.286
REMARK  11 active torsions:
REMARK  status: ('A' for Active; 'I' for Inactive)
REMARK       I    between atoms: C1_4  and  N3_6 
REMARK    1  A    between atoms: N3_6  and  C2_8 
REMARK    2  A    between atoms: C3_9  and  O1_10 
REMARK    3  A    between atoms: C5_13  and  N4_14 
REMARK    4  A    between atoms: N4_14  and  C6_17 
REMARK    5  A    between atoms: C6_17  and  C7_18 
REMARK    6  A    between atoms: C9_21  and  C10_22 
REMARK    7  A    between atoms: C10_22  and  N5_23 
REMARK    8  A    between atoms: N5_23  and  C11_25 
REMARK    9  A    between atoms: C11_25  and  C12_26 
REMARK   10  A    between atoms: C12_26  and  N6_27 
REMARK   11  A    between atoms: N6_27  and  O3_28 
ROOT
HETATM    1  N4  UNL     1      -6.281  47.539  48.801  1.00  0.00    -0.064 N 
ATOM      2  H41 UNL     1      -5.356  47.739  49.184  1.00  0.00     0.277 HD
ATOM      3  H42 UNL     1      -6.738  48.411  49.069  1.00  0.00     0.277 HD
ENDROOT
BRANCH   1   4
HETATM    4  C5  UNL     1      -6.891  46.389  49.415  1.00  0.00     0.213 C 
HETATM    5  C2  UNL     1      -6.106  45.596  50.393  1.00  0.00     0.143 C 
HETATM    6  C3  UNL     1      -6.858  46.333  51.511  1.00  0.00     0.145 C 
HETATM    7  C4  UNL     1      -7.854  46.876  50.496  1.00  0.00     0.069 C 
BRANCH   5   8
HETATM    8  N3  UNL     1      -6.390  44.189  50.459  1.00  0.00    -0.356 N 
HETATM    9  C1  UNL     1      -6.619  43.367  49.339  1.00  0.00     0.182 C 
HETATM   10  N1  UNL     1      -5.644  43.045  48.581  1.00  0.00    -0.374 N 
HETATM   11  N2  UNL     1      -7.920  42.901  49.053  1.00  0.00    -0.064 NA
ATOM     12  H12 UNL     1      -5.811  42.449  47.769  1.00  0.00     0.158 HD
ATOM     13  H11 UNL     1      -4.704  43.381  48.787  1.00  0.00     0.158 HD
ATOM     14  H3  UNL     1      -6.429  43.756  51.382  1.00  0.00     0.162 HD
ENDBRANCH   5   8
BRANCH   6  15
HETATM   15  O1  UNL     1      -7.523  45.491  52.397  1.00  0.00    -0.393 OA
ATOM     16  H1  UNL     1      -7.549  45.812  53.291  1.00  0.00     0.210 HD
ENDBRANCH   6  15
ENDBRANCH   1   4
BRANCH   1  17
HETATM   17  C6  UNL     1      -6.254  47.349  47.369  1.00  0.00     0.293 C 
BRANCH  17  18
HETATM   18  C7  UNL     1      -5.220  46.311  46.971  1.00  0.00     0.286 C 
HETATM   19  O2  UNL     1      -4.212  46.916  46.291  1.00  0.00    -0.357 OA
HETATM   20  C8  UNL     1      -4.364  46.632  44.945  1.00  0.00     0.208 C 
HETATM   21  C9  UNL     1      -5.311  45.489  44.905  1.00  0.00     0.186 C 
HETATM   22  O4  UNL     1      -5.775  45.336  46.186  1.00  0.00    -0.347 OA
BRANCH  21  23
HETATM   23  C10 UNL     1      -4.785  44.230  44.295  1.00  0.00     0.089 C 
BRANCH  23  24
HETATM   24  N5  UNL     1      -5.633  43.417  43.547  1.00  0.00    -0.398 N 
ATOM     25  H5  UNL     1      -6.247  43.844  42.852  1.00  0.00     0.158 HD
BRANCH  24  26
HETATM   26  C11 UNL     1      -5.664  42.009  43.726  1.00  0.00     0.137 C 
BRANCH  26  27
HETATM   27  C12 UNL     1      -5.162  41.707  45.164  1.00  0.00     0.162 C 
BRANCH  27  28
HETATM   28  N6  UNL     1      -6.296  41.405  46.023  1.00  0.00    -0.102 NA
BRANCH  28  29
HETATM   29  O3  UNL     1      -7.076  42.487  46.094  1.00  0.00    -0.296 OA
ATOM     30  H3  UNL     1      -7.194  42.715  47.008  1.00  0.00     0.238 HD
ENDBRANCH  28  29
ENDBRANCH  27  28
ENDBRANCH  26  27
ENDBRANCH  24  26
ENDBRANCH  23  24
ENDBRANCH  21  23
ENDBRANCH  17  18
ENDBRANCH   1  17
TORSDOF 11
ENDMDL
MODEL 5
REMARK VINA RESULT: -6.670716016      2.731      4.020
REMARK  11 active torsions:
REMARK  status: ('A' for Active; 'I' for Inactive)
REMARK       I    between atoms: C1_4  and  N3_6 
REMARK    1  A    between atoms: N3_6  and  C2_8 
REMARK    2  A    between atoms: C3_9  and  O1_10 
REMARK    3  A    between atoms: C5_13  and  N4_14 
REMARK    4  A    between atoms: N4_14  and  C6_17 
REMARK    5  A    between atoms: C6_17  and  C7_18 
REMARK    6  A    between atoms: C9_21  and  C10_22 
REMARK    7  A    between atoms: C10_22  and  N5_23 
REMARK    8  A    between atoms: N5_23  and  C11_25 
REMARK    9  A    between atoms: C11_25  and  C12_26 
REMARK   10  A    between atoms: C12_26  and  N6_27 
REMARK   11  A    between atoms: N6_27  and  O3_28 
ROOT
HETATM    1  N4  UNL     1      -4.796  42.628  50.136  1.00  0.00    -0.064 N 
ATOM      2  H41 UNL     1      -5.736  42.319  50.383  1.00  0.00     0.277 HD
ATOM      3  H42 UNL     1      -4.274  41.885  50.601  1.00  0.00     0.277 HD
ENDROOT
BRANCH   1   4
HETATM    4  C5  UNL     1      -4.488  43.929  50.668  1.00  0.00     0.213 C 
HETATM    5  C2  UNL     1      -4.851  44.234  52.074  1.00  0.00     0.143 C 
HETATM    6  C3  UNL     1      -3.387  43.961  52.453  1.00  0.00     0.145 C 
HETATM    7  C4  UNL     1      -2.993  43.978  50.983  1.00  0.00     0.069 C 
BRANCH   5   8
HETATM    8  N3  UNL     1      -5.185  45.598  52.374  1.00  0.00    -0.356 N 
HETATM    9  C1  UNL     1      -6.201  46.331  51.729  1.00  0.00     0.182 C 
HETATM   10  N1  UNL     1      -7.425  46.068  51.978  1.00  0.00    -0.374 N 
HETATM   11  N2  UNL     1      -5.870  47.351  50.812  1.00  0.00    -0.064 NA
ATOM     12  H12 UNL     1      -8.161  46.599  51.511  1.00  0.00     0.158 HD
ATOM     13  H11 UNL     1      -7.665  45.331  52.641  1.00  0.00     0.158 HD
ATOM     14  H3  UNL     1      -4.650  46.069  53.103  1.00  0.00     0.162 HD
ENDBRANCH   5   8
BRANCH   6  15
HETATM   15  O1  UNL     1      -2.763  45.021  53.104  1.00  0.00    -0.393 OA
ATOM     16  H1  UNL     1      -3.232  45.336  53.867  1.00  0.00     0.210 HD
ENDBRANCH   6  15
ENDBRANCH   1   4
BRANCH   1  17
HETATM   17  C6  UNL     1      -4.579  42.641  48.707  1.00  0.00     0.293 C 
BRANCH  17  18
HETATM   18  C7  UNL     1      -5.618  43.494  48.001  1.00  0.00     0.286 C 
HETATM   19  O2  UNL     1      -6.528  42.687  47.396  1.00  0.00    -0.357 OA
HETATM   20  C8  UNL     1      -6.262  42.676  46.037  1.00  0.00     0.208 C 
HETATM   21  C9  UNL     1      -5.370  43.842  45.816  1.00  0.00     0.186 C 
HETATM   22  O4  UNL     1      -5.037  44.306  47.063  1.00  0.00    -0.347 OA
BRANCH  21  23
HETATM   23  C10 UNL     1      -5.894  44.897  44.896  1.00  0.00     0.089 C 
BRANCH  23  24
HETATM   24  N5  UNL     1      -6.527  46.021  45.423  1.00  0.00    -0.398 N 
ATOM     25  H5  UNL     1      -7.494  45.946  45.738  1.00  0.00     0.158 HD
BRANCH  24  26
HETATM   26  C11 UNL     1      -5.857  47.268  45.532  1.00  0.00     0.137 C 
BRANCH  26  27
HETATM   27  C12 UNL     1      -6.130  47.827  46.954  1.00  0.00     0.162 C 
BRANCH  27  28
HETATM   28  N6  UNL     1      -7.319  47.196  47.505  1.00  0.00    -0.102 NA
BRANCH  28  29
HETATM   29  O3  UNL     1      -8.392  47.702  46.891  1.00  0.00    -0.296 OA
ATOM     30  H3  UNL     1      -9.004  48.004  47.553  1.00  0.00     0.238 HD
ENDBRANCH  28  29
ENDBRANCH  27  28
ENDBRANCH  26  27
ENDBRANCH  24  26
ENDBRANCH  23  24
ENDBRANCH  21  23
ENDBRANCH  17  18
ENDBRANCH   1  17
TORSDOF 11
ENDMDL
