MODEL 1
REMARK VINA RESULT: -6.482561368      0.000      0.000
REMARK  12 active torsions:
REMARK  status: ('A' for Active; 'I' for Inactive)
REMARK    1  A    between atoms: C2_7  and  N3_8 
REMARK    2  A    between atoms: N7_19  and  C5_20 
REMARK    3  A    between atoms: C5_20  and  C6_21 
REMARK    4  A    between atoms: C6_21  and  C7_22 
REMARK    5  A    between atoms: C7_22  and  O1_23 
REMARK    6  A    between atoms: O1_23  and  C8_24 
REMARK    7  A    between atoms: C8_24  and  C9_25 
REMARK    8  A    between atoms: C9_25  and  C10_26 
REMARK    9  A    between atoms: C10_26  and  N8_27 
REMARK   10  A    between atoms: N8_27  and  C11_30 
REMARK   11  A    between atoms: C11_30  and  C12_31 
REMARK   12  A    between atoms: C12_31  and  O2_32 
ROOT
HETATM    1  N1  UNL     1      -7.380  43.725  49.420  1.00  0.00    -0.371 N 
ATOM      2  H11 UNL     1      -7.243  43.408  48.460  1.00  0.00     0.159 HD
ATOM      3  H12 UNL     1      -8.377  43.724  49.639  1.00  0.00     0.159 HD
HETATM    4  C1  UNL     1      -6.429  44.080  50.238  1.00  0.00     0.176 C 
HETATM    5  N2  UNL     1      -6.620  44.521  51.571  1.00  0.00    -0.310 N 
ATOM      6  H2  UNL     1      -7.480  44.436  52.113  1.00  0.00     0.167 HD
HETATM    7  C2  UNL     1      -5.384  45.112  52.031  1.00  0.00     0.316 A 
HETATM    8  N4  UNL     1      -4.813  44.379  53.139  1.00  0.00    -0.312 N 
ATOM      9  H4  UNL     1      -5.255  44.284  54.053  1.00  0.00     0.166 HD
HETATM   10  C3  UNL     1      -3.680  43.865  52.828  1.00  0.00     0.189 A 
HETATM   11  N5  UNL     1      -2.879  43.083  53.723  1.00  0.00    -0.064 NA
HETATM   12  N6  UNL     1      -3.310  44.154  51.498  1.00  0.00    -0.338 N 
ATOM     13  H6  UNL     1      -2.444  43.875  51.037  1.00  0.00     0.164 HD
HETATM   14  C4  UNL     1      -4.397  44.928  50.904  1.00  0.00     0.268 A 
HETATM   15  N7  UNL     1      -5.041  44.082  49.933  1.00  0.00    -0.326 N 
ENDROOT
BRANCH  15  16
HETATM   16  C5  UNL     1      -4.407  43.372  48.854  1.00  0.00     0.130 C 
BRANCH  16  17
HETATM   17  C6  UNL     1      -3.973  44.303  47.732  1.00  0.00     0.046 C 
BRANCH  17  18
HETATM   18  C7  UNL     1      -5.020  44.309  46.658  1.00  0.00     0.169 C 
BRANCH  18  19
HETATM   19  O1  UNL     1      -6.000  45.269  46.816  1.00  0.00    -0.391 OA
BRANCH  19  20
HETATM   20  C8  UNL     1      -5.796  46.305  45.950  1.00  0.00     0.169 C 
BRANCH  20  21
HETATM   21  C9  UNL     1      -5.889  47.664  46.653  1.00  0.00     0.054 C 
BRANCH  21  22
HETATM   22  C10 UNL     1      -6.020  47.374  48.131  1.00  0.00     0.234 C 
BRANCH  22  23
HETATM   23  N8  UNL     1      -7.372  47.038  48.496  1.00  0.00    -0.073 N 
ATOM     24  H82 UNL     1      -8.025  47.380  47.791  1.00  0.00     0.277 HD
ATOM     25  H81 UNL     1      -7.524  46.034  48.404  1.00  0.00     0.277 HD
BRANCH  23  26
HETATM   26  C11 UNL     1      -7.763  47.480  49.787  1.00  0.00     0.258 C 
BRANCH  26  27
HETATM   27  C12 UNL     1      -9.187  47.255  50.158  1.00  0.00     0.191 C 
BRANCH  27  28
HETATM   28  O2  UNL     1      -9.610  46.094  49.472  1.00  0.00    -0.399 OA
ATOM     29  H2  UNL     1     -10.558  46.071  49.528  1.00  0.00     0.209 HD
ENDBRANCH  27  28
ENDBRANCH  26  27
ENDBRANCH  23  26
ENDBRANCH  22  23
ENDBRANCH  21  22
ENDBRANCH  20  21
ENDBRANCH  19  20
ENDBRANCH  18  19
ENDBRANCH  17  18
ENDBRANCH  16  17
ENDBRANCH  15  16
BRANCH   7  30
HETATM   30  N3  UNL     1      -5.602  46.507  52.349  1.00  0.00    -0.030 N 
ATOM     31  H33 UNL     1      -4.840  47.100  52.020  1.00  0.00     0.279 HD
ATOM     32  H32 UNL     1      -6.355  46.916  51.795  1.00  0.00     0.279 HD
ATOM     33  H31 UNL     1      -5.764  46.609  53.351  1.00  0.00     0.279 HD
ENDBRANCH   7  30
TORSDOF 12
ENDMDL
MODEL 2
REMARK VINA RESULT: -6.279660084      1.601      2.143
REMARK  12 active torsions:
REMARK  status: ('A' for Active; 'I' for Inactive)
REMARK    1  A    between atoms: C2_7  and  N3_8 
REMARK    2  A    between atoms: N7_19  and  C5_20 
REMARK    3  A    between atoms: C5_20  and  C6_21 
REMARK    4  A    between atoms: C6_21  and  C7_22 
REMARK    5  A    between atoms: C7_22  and  O1_23 
REMARK    6  A    between atoms: O1_23  and  C8_24 
REMARK    7  A    between atoms: C8_24  and  C9_25 
REMARK    8  A    between atoms: C9_25  and  C10_26 
REMARK    9  A    between atoms: C10_26  and  N8_27 
REMARK   10  A    between atoms: N8_27  and  C11_30 
REMARK   11  A    between atoms: C11_30  and  C12_31 
REMARK   12  A    between atoms: C12_31  and  O2_32 
ROOT
HETATM    1  N1  UNL     1      -7.327  43.859  49.432  1.00  0.00    -0.371 N 
ATOM      2  H11 UNL     1      -7.430  44.218  48.483  1.00  0.00     0.159 HD
ATOM      3  H12 UNL     1      -8.247  43.641  49.815  1.00  0.00     0.159 HD
HETATM    4  C1  UNL     1      -6.193  43.706  50.059  1.00  0.00     0.176 C 
HETATM    5  N2  UNL     1      -6.050  43.207  51.378  1.00  0.00    -0.310 N 
ATOM      6  H2  UNL     1      -6.773  42.735  51.922  1.00  0.00     0.167 HD
HETATM    7  C2  UNL     1      -4.702  43.484  51.820  1.00  0.00     0.316 A 
HETATM    8  N4  UNL     1      -3.956  42.271  52.072  1.00  0.00    -0.312 N 
ATOM      9  H4  UNL     1      -4.190  41.594  52.798  1.00  0.00     0.166 HD
HETATM   10  C3  UNL     1      -2.962  42.155  51.270  1.00  0.00     0.189 A 
HETATM   11  N5  UNL     1      -2.044  41.056  51.281  1.00  0.00    -0.064 NA
HETATM   12  N6  UNL     1      -2.876  43.236  50.368  1.00  0.00    -0.338 N 
ATOM     13  H6  UNL     1      -2.157  43.375  49.658  1.00  0.00     0.164 HD
HETATM   14  C4  UNL     1      -4.006  44.120  50.641  1.00  0.00     0.268 A 
HETATM   15  N7  UNL     1      -4.911  44.010  49.527  1.00  0.00    -0.326 N 
ENDROOT
BRANCH  15  16
HETATM   16  C5  UNL     1      -4.588  44.177  48.134  1.00  0.00     0.130 C 
BRANCH  16  17
HETATM   17  C6  UNL     1      -4.335  45.633  47.775  1.00  0.00     0.046 C 
BRANCH  17  18
HETATM   18  C7  UNL     1      -5.639  46.300  47.452  1.00  0.00     0.169 C 
BRANCH  18  19
HETATM   19  O1  UNL     1      -6.280  46.865  48.538  1.00  0.00    -0.391 OA
BRANCH  19  20
HETATM   20  C8  UNL     1      -5.403  47.613  49.272  1.00  0.00     0.169 C 
BRANCH  20  21
HETATM   21  C9  UNL     1      -6.079  48.255  50.488  1.00  0.00     0.054 C 
BRANCH  21  22
HETATM   22  C10 UNL     1      -6.425  47.126  51.433  1.00  0.00     0.234 C 
BRANCH  22  23
HETATM   23  N8  UNL     1      -7.802  46.724  51.310  1.00  0.00    -0.073 N 
ATOM     24  H82 UNL     1      -7.877  45.891  50.726  1.00  0.00     0.277 HD
ATOM     25  H81 UNL     1      -8.141  46.349  52.196  1.00  0.00     0.277 HD
BRANCH  23  26
HETATM   26  C11 UNL     1      -8.675  47.738  50.837  1.00  0.00     0.258 C 
BRANCH  26  27
HETATM   27  C12 UNL     1      -9.618  47.346  49.754  1.00  0.00     0.191 C 
BRANCH  27  28
HETATM   28  O2  UNL     1      -9.259  46.039  49.354  1.00  0.00    -0.399 OA
ATOM     29  H2  UNL     1      -9.050  46.083  48.428  1.00  0.00     0.209 HD
ENDBRANCH  27  28
ENDBRANCH  26  27
ENDBRANCH  23  26
ENDBRANCH  22  23
ENDBRANCH  21  22
ENDBRANCH  20  21
ENDBRANCH  19  20
ENDBRANCH  18  19
ENDBRANCH  17  18
ENDBRANCH  16  17
ENDBRANCH  15  16
BRANCH   7  30
HETATM   30  N3  UNL     1      -4.739  44.357  52.973  1.00  0.00    -0.030 N 
ATOM     31  H33 UNL     1      -3.806  44.560  53.332  1.00  0.00     0.279 HD
ATOM     32  H32 UNL     1      -5.011  45.309  52.728  1.00  0.00     0.279 HD
ATOM     33  H31 UNL     1      -5.346  43.956  53.687  1.00  0.00     0.279 HD
ENDBRANCH   7  30
TORSDOF 12
ENDMDL
MODEL 3
REMARK VINA RESULT: -6.238024342      1.829      3.257
REMARK  12 active torsions:
REMARK  status: ('A' for Active; 'I' for Inactive)
REMARK    1  A    between atoms: C2_7  and  N3_8 
REMARK    2  A    between atoms: N7_19  and  C5_20 
REMARK    3  A    between atoms: C5_20  and  C6_21 
REMARK    4  A    between atoms: C6_21  and  C7_22 
REMARK    5  A    between atoms: C7_22  and  O1_23 
REMARK    6  A    between atoms: O1_23  and  C8_24 
REMARK    7  A    between atoms: C8_24  and  C9_25 
REMARK    8  A    between atoms: C9_25  and  C10_26 
REMARK    9  A    between atoms: C10_26  and  N8_27 
REMARK   10  A    between atoms: N8_27  and  C11_30 
REMARK   11  A    between atoms: C11_30  and  C12_31 
REMARK   12  A    between atoms: C12_31  and  O2_32 
ROOT
HETATM    1  N1  UNL     1      -0.364  44.663  51.659  1.00  0.00    -0.371 N 
ATOM      2  H11 UNL     1       0.120  44.580  50.765  1.00  0.00     0.159 HD
ATOM      3  H12 UNL     1       0.259  45.088  52.346  1.00  0.00     0.159 HD
HETATM    4  C1  UNL     1      -1.591  44.282  51.888  1.00  0.00     0.176 C 
HETATM    5  N2  UNL     1      -2.263  44.397  53.131  1.00  0.00    -0.310 N 
ATOM      6  H2  UNL     1      -1.955  44.952  53.929  1.00  0.00     0.167 HD
HETATM    7  C2  UNL     1      -3.461  43.591  53.070  1.00  0.00     0.316 A 
HETATM    8  N4  UNL     1      -4.659  44.392  53.188  1.00  0.00    -0.312 N 
ATOM      9  H4  UNL     1      -4.910  44.930  54.018  1.00  0.00     0.166 HD
HETATM   10  C3  UNL     1      -5.366  44.342  52.120  1.00  0.00     0.189 A 
HETATM   11  N5  UNL     1      -6.607  45.035  51.943  1.00  0.00    -0.064 NA
HETATM   12  N6  UNL     1      -4.780  43.524  51.131  1.00  0.00    -0.338 N 
ATOM     13  H6  UNL     1      -5.170  43.312  50.212  1.00  0.00     0.164 HD
HETATM   14  C4  UNL     1      -3.512  43.036  51.666  1.00  0.00     0.268 A 
HETATM   15  N7  UNL     1      -2.460  43.690  50.933  1.00  0.00    -0.326 N 
ENDROOT
BRANCH  15  16
HETATM   16  C5  UNL     1      -2.308  43.737  49.502  1.00  0.00     0.130 C 
BRANCH  16  17
HETATM   17  C6  UNL     1      -2.145  45.160  48.990  1.00  0.00     0.046 C 
BRANCH  17  18
HETATM   18  C7  UNL     1      -3.365  45.959  49.345  1.00  0.00     0.169 C 
BRANCH  18  19
HETATM   19  O1  UNL     1      -4.501  45.617  48.637  1.00  0.00    -0.391 OA
BRANCH  19  20
HETATM   20  C8  UNL     1      -5.515  46.489  48.916  1.00  0.00     0.169 C 
BRANCH  20  21
HETATM   21  C9  UNL     1      -5.040  47.656  49.789  1.00  0.00     0.054 C 
BRANCH  21  22
HETATM   22  C10 UNL     1      -6.272  48.215  50.465  1.00  0.00     0.234 C 
BRANCH  22  23
HETATM   23  N8  UNL     1      -7.411  47.348  50.313  1.00  0.00    -0.073 N 
ATOM     24  H82 UNL     1      -7.387  46.887  49.403  1.00  0.00     0.277 HD
ATOM     25  H81 UNL     1      -7.322  46.536  50.923  1.00  0.00     0.277 HD
BRANCH  23  26
HETATM   26  C11 UNL     1      -8.667  47.979  50.512  1.00  0.00     0.258 C 
BRANCH  26  27
HETATM   27  C12 UNL     1      -9.868  47.206  50.094  1.00  0.00     0.191 C 
BRANCH  27  28
HETATM   28  O2  UNL     1      -9.406  46.126  49.308  1.00  0.00    -0.399 OA
ATOM     29  H2  UNL     1      -9.122  45.449  49.910  1.00  0.00     0.209 HD
ENDBRANCH  27  28
ENDBRANCH  26  27
ENDBRANCH  23  26
ENDBRANCH  22  23
ENDBRANCH  21  22
ENDBRANCH  20  21
ENDBRANCH  19  20
ENDBRANCH  18  19
ENDBRANCH  17  18
ENDBRANCH  16  17
ENDBRANCH  15  16
BRANCH   7  30
HETATM   30  N3  UNL     1      -3.396  42.548  54.071  1.00  0.00    -0.030 N 
ATOM     31  H33 UNL     1      -3.484  41.618  53.664  1.00  0.00     0.279 HD
ATOM     32  H32 UNL     1      -2.460  42.448  54.463  1.00  0.00     0.279 HD
ATOM     33  H31 UNL     1      -4.098  42.721  54.791  1.00  0.00     0.279 HD
ENDBRANCH   7  30
TORSDOF 12
ENDMDL
MODEL 4
REMARK VINA RESULT: -6.226206539      2.627      5.317
REMARK  12 active torsions:
REMARK  status: ('A' for Active; 'I' for Inactive)
REMARK    1  A    between atoms: C2_7  and  N3_8 
REMARK    2  A    between atoms: N7_19  and  C5_20 
REMARK    3  A    between atoms: C5_20  and  C6_21 
REMARK    4  A    between atoms: C6_21  and  C7_22 
REMARK    5  A    between atoms: C7_22  and  O1_23 
REMARK    6  A    between atoms: O1_23  and  C8_24 
REMARK    7  A    between atoms: C8_24  and  C9_25 
REMARK    8  A    between atoms: C9_25  and  C10_26 
REMARK    9  A    between atoms: C10_26  and  N8_27 
REMARK   10  A    between atoms: N8_27  and  C11_30 
REMARK   11  A    between atoms: C11_30  and  C12_31 
REMARK   12  A    between atoms: C12_31  and  O2_32 
ROOT
HETATM    1  N1  UNL     1      -3.311  47.219  49.506  1.00  0.00    -0.371 N 
ATOM      2  H11 UNL     1      -2.730  46.633  48.907  1.00  0.00     0.159 HD
ATOM      3  H12 UNL     1      -2.764  48.012  49.840  1.00  0.00     0.159 HD
HETATM    4  C1  UNL     1      -4.561  46.987  49.800  1.00  0.00     0.176 C 
HETATM    5  N2  UNL     1      -5.368  47.801  50.634  1.00  0.00    -0.310 N 
ATOM      6  H2  UNL     1      -5.145  48.747  50.944  1.00  0.00     0.167 HD
HETATM    7  C2  UNL     1      -6.562  47.058  50.967  1.00  0.00     0.316 A 
HETATM    8  N4  UNL     1      -7.755  47.690  50.448  1.00  0.00    -0.312 N 
ATOM      9  H4  UNL     1      -8.091  48.608  50.739  1.00  0.00     0.166 HD
HETATM   10  C3  UNL     1      -8.337  46.951  49.576  1.00  0.00     0.189 A 
HETATM   11  N5  UNL     1      -9.540  47.314  48.889  1.00  0.00    -0.064 NA
HETATM   12  N6  UNL     1      -7.653  45.735  49.367  1.00  0.00    -0.338 N 
ATOM     13  H6  UNL     1      -7.939  44.980  48.743  1.00  0.00     0.164 HD
HETATM   14  C4  UNL     1      -6.461  45.756  50.210  1.00  0.00     0.268 A 
HETATM   15  N7  UNL     1      -5.324  45.882  49.336  1.00  0.00    -0.326 N 
ENDROOT
BRANCH  15  16
HETATM   16  C5  UNL     1      -5.010  45.048  48.205  1.00  0.00     0.130 C 
BRANCH  16  17
HETATM   17  C6  UNL     1      -4.421  43.711  48.625  1.00  0.00     0.046 C 
BRANCH  17  18
HETATM   18  C7  UNL     1      -2.933  43.741  48.437  1.00  0.00     0.169 C 
BRANCH  18  19
HETATM   19  O1  UNL     1      -2.240  44.385  49.443  1.00  0.00    -0.391 OA
BRANCH  19  20
HETATM   20  C8  UNL     1      -0.936  43.976  49.459  1.00  0.00     0.169 C 
BRANCH  20  21
HETATM   21  C9  UNL     1      -0.218  44.408  50.743  1.00  0.00     0.054 C 
BRANCH  21  22
HETATM   22  C10 UNL     1      -1.294  44.633  51.781  1.00  0.00     0.234 C 
BRANCH  22  23
HETATM   23  N8  UNL     1      -1.670  43.410  52.441  1.00  0.00    -0.073 N 
ATOM     24  H82 UNL     1      -1.647  42.630  51.784  1.00  0.00     0.277 HD
ATOM     25  H81 UNL     1      -0.937  43.116  53.087  1.00  0.00     0.277 HD
BRANCH  23  26
HETATM   26  C11 UNL     1      -2.923  43.457  53.107  1.00  0.00     0.258 C 
BRANCH  26  27
HETATM   27  C12 UNL     1      -4.006  44.213  52.422  1.00  0.00     0.191 C 
BRANCH  27  28
HETATM   28  O2  UNL     1      -4.978  44.516  53.403  1.00  0.00    -0.399 OA
ATOM     29  H2  UNL     1      -5.377  45.340  53.150  1.00  0.00     0.209 HD
ENDBRANCH  27  28
ENDBRANCH  26  27
ENDBRANCH  23  26
ENDBRANCH  22  23
ENDBRANCH  21  22
ENDBRANCH  20  21
ENDBRANCH  19  20
ENDBRANCH  18  19
ENDBRANCH  17  18
ENDBRANCH  16  17
ENDBRANCH  15  16
BRANCH   7  30
HETATM   30  N3  UNL     1      -6.625  46.859  52.399  1.00  0.00    -0.030 N 
ATOM     31  H33 UNL     1      -7.460  46.344  52.679  1.00  0.00     0.279 HD
ATOM     32  H32 UNL     1      -5.926  46.192  52.726  1.00  0.00     0.279 HD
ATOM     33  H31 UNL     1      -6.551  47.758  52.874  1.00  0.00     0.279 HD
ENDBRANCH   7  30
TORSDOF 12
ENDMDL
MODEL 5
REMARK VINA RESULT: -6.168780795      2.611      5.578
REMARK  12 active torsions:
REMARK  status: ('A' for Active; 'I' for Inactive)
REMARK    1  A    between atoms: C2_7  and  N3_8 
REMARK    2  A    between atoms: N7_19  and  C5_20 
REMARK    3  A    between atoms: C5_20  and  C6_21 
REMARK    4  A    between atoms: C6_21  and  C7_22 
REMARK    5  A    between atoms: C7_22  and  O1_23 
REMARK    6  A    between atoms: O1_23  and  C8_24 
REMARK    7  A    between atoms: C8_24  and  C9_25 
REMARK    8  A    between atoms: C9_25  and  C10_26 
REMARK    9  A    between atoms: C10_26  and  N8_27 
REMARK   10  A    between atoms: N8_27  and  C11_30 
REMARK   11  A    between atoms: C11_30  and  C12_31 
REMARK   12  A    between atoms: C12_31  and  O2_32 
ROOT
HETATM    1  N1  UNL     1      -3.188  45.762  48.927  1.00  0.00    -0.371 N 
ATOM      2  H11 UNL     1      -2.857  44.888  48.517  1.00  0.00     0.159 HD
ATOM      3  H12 UNL     1      -2.435  46.451  48.911  1.00  0.00     0.159 HD
HETATM    4  C1  UNL     1      -4.387  45.965  49.397  1.00  0.00     0.176 C 
HETATM    5  N2  UNL     1      -4.846  47.180  49.966  1.00  0.00    -0.310 N 
ATOM      6  H2  UNL     1      -4.378  48.084  49.906  1.00  0.00     0.167 HD
HETATM    7  C2  UNL     1      -6.093  46.914  50.646  1.00  0.00     0.316 A 
HETATM    8  N4  UNL     1      -7.197  47.635  50.052  1.00  0.00    -0.312 N 
ATOM      9  H4  UNL     1      -7.276  48.652  50.035  1.00  0.00     0.166 HD
HETATM   10  C3  UNL     1      -8.065  46.835  49.550  1.00  0.00     0.189 A 
HETATM   11  N5  UNL     1      -9.266  47.260  48.894  1.00  0.00    -0.064 NA
HETATM   12  N6  UNL     1      -7.701  45.482  49.715  1.00  0.00    -0.338 N 
ATOM     13  H6  UNL     1      -8.244  44.670  49.422  1.00  0.00     0.164 HD
HETATM   14  C4  UNL     1      -6.403  45.460  50.383  1.00  0.00     0.268 A 
HETATM   15  N7  UNL     1      -5.435  45.007  49.419  1.00  0.00    -0.326 N 
ENDROOT
BRANCH  15  16
HETATM   16  C5  UNL     1      -5.506  43.808  48.625  1.00  0.00     0.130 C 
BRANCH  16  17
HETATM   17  C6  UNL     1      -5.270  42.556  49.456  1.00  0.00     0.046 C 
BRANCH  17  18
HETATM   18  C7  UNL     1      -3.910  42.003  49.145  1.00  0.00     0.169 C 
BRANCH  18  19
HETATM   19  O1  UNL     1      -2.862  42.706  49.707  1.00  0.00    -0.391 OA
BRANCH  19  20
HETATM   20  C8  UNL     1      -1.922  41.846  50.200  1.00  0.00     0.169 C 
BRANCH  20  21
HETATM   21  C9  UNL     1      -2.516  40.885  51.236  1.00  0.00     0.054 C 
BRANCH  21  22
HETATM   22  C10 UNL     1      -1.907  41.260  52.568  1.00  0.00     0.234 C 
BRANCH  22  23
HETATM   23  N8  UNL     1      -1.796  42.687  52.728  1.00  0.00    -0.073 N 
ATOM     24  H82 UNL     1      -0.920  42.924  53.194  1.00  0.00     0.277 HD
ATOM     25  H81 UNL     1      -1.639  43.133  51.823  1.00  0.00     0.277 HD
BRANCH  23  26
HETATM   26  C11 UNL     1      -2.891  43.295  53.394  1.00  0.00     0.258 C 
BRANCH  26  27
HETATM   27  C12 UNL     1      -3.696  44.260  52.597  1.00  0.00     0.191 C 
BRANCH  27  28
HETATM   28  O2  UNL     1      -4.892  44.487  53.316  1.00  0.00    -0.399 OA
ATOM     29  H2  UNL     1      -4.671  45.054  54.045  1.00  0.00     0.209 HD
ENDBRANCH  27  28
ENDBRANCH  26  27
ENDBRANCH  23  26
ENDBRANCH  22  23
ENDBRANCH  21  22
ENDBRANCH  20  21
ENDBRANCH  19  20
ENDBRANCH  18  19
ENDBRANCH  17  18
ENDBRANCH  16  17
ENDBRANCH  15  16
BRANCH   7  30
HETATM   30  N3  UNL     1      -5.947  47.199  52.057  1.00  0.00    -0.030 N 
ATOM     31  H33 UNL     1      -5.918  46.350  52.620  1.00  0.00     0.279 HD
ATOM     32  H32 UNL     1      -5.019  47.557  52.284  1.00  0.00     0.279 HD
ATOM     33  H31 UNL     1      -6.687  47.834  52.357  1.00  0.00     0.279 HD
ENDBRANCH   7  30
TORSDOF 12
ENDMDL
