MODEL 1
REMARK VINA RESULT: -6.532754935      0.000      0.000
REMARK  13 active torsions:
REMARK  status: ('A' for Active; 'I' for Inactive)
REMARK    1  A    between atoms: N1_1  and  C1_5 
REMARK    2  A    between atoms: C1_5  and  C2_6 
REMARK    3  A    between atoms: C2_6  and  C3_7 
REMARK    4  A    between atoms: C3_7  and  C4_8 
REMARK    5  A    between atoms: C4_8  and  C5_9 
REMARK    6  A    between atoms: C5_9  and  N2_10 
REMARK    7  A    between atoms: N2_10  and  C6_12 
REMARK    8  A    between atoms: C7_15  and  N4_16 
REMARK    9  A    between atoms: N4_16  and  C8_18 
REMARK   10  A    between atoms: C8_18  and  C9_19 
REMARK   11  A    between atoms: C9_19  and  C10_20 
REMARK   12  A    between atoms: C10_20  and  O1_21 
REMARK   13  A    between atoms: C11_25  and  N6_26 
REMARK       I    between atoms: N6_26  and  C12_28 
REMARK       I    between atoms: C12_28  and  N7_29 
REMARK       I    between atoms: C12_28  and  N8_33 
ROOT
HETATM    1  C6  UNL     1      -5.504  44.475  48.776  1.00  0.00     0.707 A 
HETATM    2  N3  UNL     1      -6.534  44.865  49.549  1.00  0.00    -0.022 N 
ATOM      3  H3  UNL     1      -7.499  44.772  49.232  1.00  0.00     0.203 HD
HETATM    4  C7  UNL     1      -6.243  45.382  50.752  1.00  0.00     0.707 A 
HETATM    5  N5  UNL     1      -4.981  45.516  51.188  1.00  0.00    -0.021 N 
ATOM      6  H5  UNL     1      -4.811  45.916  52.111  1.00  0.00     0.203 HD
HETATM    7  C11 UNL     1      -3.935  45.133  50.434  1.00  0.00     0.710 A 
HETATM    8  N9  UNL     1      -4.225  44.614  49.228  1.00  0.00    -0.021 N 
ATOM      9  H9  UNL     1      -3.458  44.312  48.627  1.00  0.00     0.203 HD
ENDROOT
BRANCH   1  10
HETATM   10  N2  UNL     1      -5.714  43.969  47.606  1.00  0.00    -0.225 N 
ATOM     11  H2  UNL     1      -6.587  43.482  47.402  1.00  0.00     0.177 HD
BRANCH  10  12
HETATM   12  C5  UNL     1      -4.695  44.102  46.589  1.00  0.00     0.138 C 
BRANCH  12  13
HETATM   13  C4  UNL     1      -5.142  45.025  45.471  1.00  0.00     0.020 C 
BRANCH  13  14
HETATM   14  C3  UNL     1      -4.487  46.372  45.560  1.00  0.00     0.003 C 
BRANCH  14  15
HETATM   15  C2  UNL     1      -5.536  47.446  45.572  1.00  0.00     0.027 C 
BRANCH  15  16
HETATM   16  C1  UNL     1      -6.107  47.667  46.949  1.00  0.00     0.229 C 
BRANCH  16  17
HETATM   17  N1  UNL     1      -7.524  47.276  46.934  1.00  0.00    -0.079 N 
ATOM     18  H13 UNL     1      -8.135  48.002  47.309  1.00  0.00     0.274 HD
ATOM     19  H12 UNL     1      -7.911  47.241  45.990  1.00  0.00     0.274 HD
ATOM     20  H11 UNL     1      -7.619  46.390  47.430  1.00  0.00     0.274 HD
ENDBRANCH  16  17
ENDBRANCH  15  16
ENDBRANCH  14  15
ENDBRANCH  13  14
ENDBRANCH  12  13
ENDBRANCH  10  12
ENDBRANCH   1  10
BRANCH   4  21
HETATM   21  N4  UNL     1      -7.212  45.763  51.510  1.00  0.00    -0.225 N 
ATOM     22  H4  UNL     1      -7.805  45.042  51.922  1.00  0.00     0.177 HD
BRANCH  21  23
HETATM   23  C8  UNL     1      -7.514  47.127  51.813  1.00  0.00     0.140 C 
BRANCH  23  24
HETATM   24  C9  UNL     1      -7.941  47.811  50.511  1.00  0.00     0.046 C 
BRANCH  24  25
HETATM   25  C10 UNL     1      -9.329  47.334  50.205  1.00  0.00     0.165 C 
BRANCH  25  26
HETATM   26  O1  UNL     1      -9.330  46.232  49.352  1.00  0.00    -0.401 OA
ATOM     27  H1  UNL     1      -8.571  46.220  48.780  1.00  0.00     0.209 HD
ENDBRANCH  25  26
ENDBRANCH  24  25
ENDBRANCH  23  24
ENDBRANCH  21  23
ENDBRANCH   4  21
BRANCH   7  28
HETATM   28  N6  UNL     1      -2.713  45.261  50.855  1.00  0.00    -0.172 N 
HETATM   29  C12 UNL     1      -2.079  44.358  51.755  1.00  0.00     0.494 C 
HETATM   30  N7  UNL     1      -0.643  44.550  51.718  1.00  0.00    -0.032 N 
HETATM   31  N8  UNL     1      -2.585  44.537  53.100  1.00  0.00    -0.032 N 
ATOM     32  H73 UNL     1      -0.271  44.470  50.771  1.00  0.00     0.278 HD
ATOM     33  H72 UNL     1      -0.381  45.519  51.900  1.00  0.00     0.278 HD
ATOM     34  H71 UNL     1      -0.189  43.903  52.363  1.00  0.00     0.278 HD
ATOM     35  H83 UNL     1      -2.497  45.504  53.411  1.00  0.00     0.278 HD
ATOM     36  H82 UNL     1      -3.600  44.455  53.135  1.00  0.00     0.278 HD
ATOM     37  H81 UNL     1      -2.131  43.890  53.745  1.00  0.00     0.278 HD
ATOM     38  H6  UNL     1      -2.173  46.058  50.519  1.00  0.00     0.181 HD
ENDBRANCH   7  28
TORSDOF 13
ENDMDL
MODEL 2
REMARK VINA RESULT: -6.425497728      1.425      1.839
REMARK  13 active torsions:
REMARK  status: ('A' for Active; 'I' for Inactive)
REMARK    1  A    between atoms: N1_1  and  C1_5 
REMARK    2  A    between atoms: C1_5  and  C2_6 
REMARK    3  A    between atoms: C2_6  and  C3_7 
REMARK    4  A    between atoms: C3_7  and  C4_8 
REMARK    5  A    between atoms: C4_8  and  C5_9 
REMARK    6  A    between atoms: C5_9  and  N2_10 
REMARK    7  A    between atoms: N2_10  and  C6_12 
REMARK    8  A    between atoms: C7_15  and  N4_16 
REMARK    9  A    between atoms: N4_16  and  C8_18 
REMARK   10  A    between atoms: C8_18  and  C9_19 
REMARK   11  A    between atoms: C9_19  and  C10_20 
REMARK   12  A    between atoms: C10_20  and  O1_21 
REMARK   13  A    between atoms: C11_25  and  N6_26 
REMARK       I    between atoms: N6_26  and  C12_28 
REMARK       I    between atoms: C12_28  and  N7_29 
REMARK       I    between atoms: C12_28  and  N8_33 
ROOT
HETATM    1  C6  UNL     1      -6.363  43.546  49.453  1.00  0.00     0.707 A 
HETATM    2  N3  UNL     1      -7.033  44.625  49.898  1.00  0.00    -0.022 N 
ATOM      3  H3  UNL     1      -7.785  45.044  49.351  1.00  0.00     0.203 HD
HETATM    4  C7  UNL     1      -6.674  45.128  51.088  1.00  0.00     0.707 A 
HETATM    5  N5  UNL     1      -5.687  44.593  51.825  1.00  0.00    -0.021 N 
ATOM      6  H5  UNL     1      -5.452  45.013  52.724  1.00  0.00     0.203 HD
HETATM    7  C11 UNL     1      -5.003  43.515  51.401  1.00  0.00     0.710 A 
HETATM    8  N9  UNL     1      -5.362  43.009  50.208  1.00  0.00    -0.021 N 
ATOM      9  H9  UNL     1      -4.867  42.191  49.854  1.00  0.00     0.203 HD
ENDROOT
BRANCH   1  10
HETATM   10  N2  UNL     1      -6.658  43.011  48.314  1.00  0.00    -0.225 N 
ATOM     11  H2  UNL     1      -7.632  42.905  48.029  1.00  0.00     0.177 HD
BRANCH  10  12
HETATM   12  C5  UNL     1      -5.589  42.565  47.450  1.00  0.00     0.138 C 
BRANCH  12  13
HETATM   13  C4  UNL     1      -5.139  43.666  46.507  1.00  0.00     0.020 C 
BRANCH  13  14
HETATM   14  C3  UNL     1      -5.929  43.670  45.232  1.00  0.00     0.003 C 
BRANCH  14  15
HETATM   15  C2  UNL     1      -5.900  45.041  44.621  1.00  0.00     0.027 C 
BRANCH  15  16
HETATM   16  C1  UNL     1      -5.695  46.119  45.655  1.00  0.00     0.229 C 
BRANCH  16  17
HETATM   17  N1  UNL     1      -6.937  46.897  45.767  1.00  0.00    -0.079 N 
ATOM     18  H13 UNL     1      -7.756  46.374  45.454  1.00  0.00     0.274 HD
ATOM     19  H12 UNL     1      -7.225  47.039  46.736  1.00  0.00     0.274 HD
ATOM     20  H11 UNL     1      -6.816  47.774  45.262  1.00  0.00     0.274 HD
ENDBRANCH  16  17
ENDBRANCH  15  16
ENDBRANCH  14  15
ENDBRANCH  13  14
ENDBRANCH  12  13
ENDBRANCH  10  12
ENDBRANCH   1  10
BRANCH   4  21
HETATM   21  N4  UNL     1      -7.301  46.161  51.535  1.00  0.00    -0.225 N 
ATOM     22  H4  UNL     1      -7.846  46.052  52.391  1.00  0.00     0.177 HD
BRANCH  21  23
HETATM   23  C8  UNL     1      -7.286  47.448  50.914  1.00  0.00     0.140 C 
BRANCH  23  24
HETATM   24  C9  UNL     1      -8.737  47.920  50.784  1.00  0.00     0.046 C 
BRANCH  24  25
HETATM   25  C10 UNL     1      -9.236  47.432  49.457  1.00  0.00     0.165 C 
BRANCH  25  26
HETATM   26  O1  UNL     1      -9.645  46.101  49.507  1.00  0.00    -0.401 OA
ATOM     27  H1  UNL     1     -10.375  45.972  50.102  1.00  0.00     0.209 HD
ENDBRANCH  25  26
ENDBRANCH  24  25
ENDBRANCH  23  24
ENDBRANCH  21  23
ENDBRANCH   4  21
BRANCH   7  28
HETATM   28  N6  UNL     1      -4.049  42.995  52.113  1.00  0.00    -0.172 N 
HETATM   29  C12 UNL     1      -3.434  43.644  53.220  1.00  0.00     0.494 C 
HETATM   30  N7  UNL     1      -2.707  42.677  54.018  1.00  0.00    -0.032 N 
HETATM   31  N8  UNL     1      -2.553  44.701  52.770  1.00  0.00    -0.032 N 
ATOM     32  H73 UNL     1      -3.300  41.900  54.311  1.00  0.00     0.278 HD
ATOM     33  H72 UNL     1      -2.034  42.150  53.462  1.00  0.00     0.278 HD
ATOM     34  H71 UNL     1      -2.266  43.142  54.812  1.00  0.00     0.278 HD
ATOM     35  H83 UNL     1      -1.863  44.359  52.102  1.00  0.00     0.278 HD
ATOM     36  H82 UNL     1      -3.037  45.364  52.166  1.00  0.00     0.278 HD
ATOM     37  H81 UNL     1      -2.112  45.166  53.564  1.00  0.00     0.278 HD
ATOM     38  H6  UNL     1      -3.719  42.064  51.862  1.00  0.00     0.181 HD
ENDBRANCH   7  28
TORSDOF 13
ENDMDL
MODEL 3
REMARK VINA RESULT: -6.418166910      1.568      5.169
REMARK  13 active torsions:
REMARK  status: ('A' for Active; 'I' for Inactive)
REMARK    1  A    between atoms: N1_1  and  C1_5 
REMARK    2  A    between atoms: C1_5  and  C2_6 
REMARK    3  A    between atoms: C2_6  and  C3_7 
REMARK    4  A    between atoms: C3_7  and  C4_8 
REMARK    5  A    between atoms: C4_8  and  C5_9 
REMARK    6  A    between atoms: C5_9  and  N2_10 
REMARK    7  A    between atoms: N2_10  and  C6_12 
REMARK    8  A    between atoms: C7_15  and  N4_16 
REMARK    9  A    between atoms: N4_16  and  C8_18 
REMARK   10  A    between atoms: C8_18  and  C9_19 
REMARK   11  A    between atoms: C9_19  and  C10_20 
REMARK   12  A    between atoms: C10_20  and  O1_21 
REMARK   13  A    between atoms: C11_25  and  N6_26 
REMARK       I    between atoms: N6_26  and  C12_28 
REMARK       I    between atoms: C12_28  and  N7_29 
REMARK       I    between atoms: C12_28  and  N8_33 
ROOT
HETATM    1  C6  UNL     1      -4.038  46.517  49.531  1.00  0.00     0.707 A 
HETATM    2  N3  UNL     1      -4.959  46.456  50.511  1.00  0.00    -0.022 N 
ATOM      3  H3  UNL     1      -4.741  46.756  51.461  1.00  0.00     0.203 HD
HETATM    4  C7  UNL     1      -6.173  45.987  50.190  1.00  0.00     0.707 A 
HETATM    5  N5  UNL     1      -6.480  45.586  48.946  1.00  0.00    -0.021 N 
ATOM      6  H5  UNL     1      -7.418  45.236  48.752  1.00  0.00     0.203 HD
HETATM    7  C11 UNL     1      -5.577  45.637  47.950  1.00  0.00     0.710 A 
HETATM    8  N9  UNL     1      -4.360  46.108  48.271  1.00  0.00    -0.021 N 
ATOM      9  H9  UNL     1      -3.648  46.163  47.542  1.00  0.00     0.203 HD
ENDROOT
BRANCH   1  10
HETATM   10  N2  UNL     1      -2.848  46.960  49.773  1.00  0.00    -0.225 N 
ATOM     11  H2  UNL     1      -2.704  47.929  50.055  1.00  0.00     0.177 HD
BRANCH  10  12
HETATM   12  C5  UNL     1      -1.723  46.061  49.638  1.00  0.00     0.138 C 
BRANCH  12  13
HETATM   13  C4  UNL     1      -1.965  44.754  50.370  1.00  0.00     0.020 C 
BRANCH  13  14
HETATM   14  C3  UNL     1      -1.224  44.695  51.673  1.00  0.00     0.003 C 
BRANCH  14  15
HETATM   15  C2  UNL     1      -2.167  44.309  52.775  1.00  0.00     0.027 C 
BRANCH  15  16
HETATM   16  C1  UNL     1      -3.471  43.771  52.245  1.00  0.00     0.229 C 
BRANCH  16  17
HETATM   17  N1  UNL     1      -4.554  44.219  53.134  1.00  0.00    -0.079 N 
ATOM     18  H13 UNL     1      -4.918  43.465  53.717  1.00  0.00     0.274 HD
ATOM     19  H12 UNL     1      -4.221  44.827  53.882  1.00  0.00     0.274 HD
ATOM     20  H11 UNL     1      -5.277  44.658  52.565  1.00  0.00     0.274 HD
ENDBRANCH  16  17
ENDBRANCH  15  16
ENDBRANCH  14  15
ENDBRANCH  13  14
ENDBRANCH  12  13
ENDBRANCH  10  12
ENDBRANCH   1  10
BRANCH   4  21
HETATM   21  N4  UNL     1      -7.071  45.919  51.110  1.00  0.00    -0.225 N 
ATOM     22  H4  UNL     1      -7.349  44.993  51.436  1.00  0.00     0.177 HD
BRANCH  21  23
HETATM   23  C8  UNL     1      -7.705  47.053  51.706  1.00  0.00     0.140 C 
BRANCH  23  24
HETATM   24  C9  UNL     1      -8.301  47.900  50.578  1.00  0.00     0.046 C 
BRANCH  24  25
HETATM   25  C10 UNL     1      -9.622  47.286  50.223  1.00  0.00     0.165 C 
BRANCH  25  26
HETATM   26  O1  UNL     1      -9.482  46.204  49.356  1.00  0.00    -0.401 OA
ATOM     27  H1  UNL     1     -10.026  45.468  49.610  1.00  0.00     0.209 HD
ENDBRANCH  25  26
ENDBRANCH  24  25
ENDBRANCH  23  24
ENDBRANCH  21  23
ENDBRANCH   4  21
BRANCH   7  28
HETATM   28  N6  UNL     1      -5.873  45.251  46.746  1.00  0.00    -0.172 N 
HETATM   29  C12 UNL     1      -5.912  46.115  45.616  1.00  0.00     0.494 C 
HETATM   30  N7  UNL     1      -5.885  45.335  44.395  1.00  0.00    -0.032 N 
HETATM   31  N8  UNL     1      -7.086  46.961  45.658  1.00  0.00    -0.032 N 
ATOM     32  H73 UNL     1      -5.087  44.700  44.364  1.00  0.00     0.278 HD
ATOM     33  H72 UNL     1      -6.630  44.639  44.370  1.00  0.00     0.278 HD
ATOM     34  H71 UNL     1      -5.913  45.955  43.586  1.00  0.00     0.278 HD
ATOM     35  H83 UNL     1      -7.943  46.413  45.744  1.00  0.00     0.278 HD
ATOM     36  H82 UNL     1      -7.147  47.480  46.533  1.00  0.00     0.278 HD
ATOM     37  H81 UNL     1      -7.114  47.580  44.848  1.00  0.00     0.278 HD
ATOM     38  H6  UNL     1      -6.092  44.266  46.601  1.00  0.00     0.181 HD
ENDBRANCH   7  28
TORSDOF 13
ENDMDL
MODEL 4
REMARK VINA RESULT: -6.349401184      1.547      2.074
REMARK  13 active torsions:
REMARK  status: ('A' for Active; 'I' for Inactive)
REMARK    1  A    between atoms: N1_1  and  C1_5 
REMARK    2  A    between atoms: C1_5  and  C2_6 
REMARK    3  A    between atoms: C2_6  and  C3_7 
REMARK    4  A    between atoms: C3_7  and  C4_8 
REMARK    5  A    between atoms: C4_8  and  C5_9 
REMARK    6  A    between atoms: C5_9  and  N2_10 
REMARK    7  A    between atoms: N2_10  and  C6_12 
REMARK    8  A    between atoms: C7_15  and  N4_16 
REMARK    9  A    between atoms: N4_16  and  C8_18 
REMARK   10  A    between atoms: C8_18  and  C9_19 
REMARK   11  A    between atoms: C9_19  and  C10_20 
REMARK   12  A    between atoms: C10_20  and  O1_21 
REMARK   13  A    between atoms: C11_25  and  N6_26 
REMARK       I    between atoms: N6_26  and  C12_28 
REMARK       I    between atoms: C12_28  and  N7_29 
REMARK       I    between atoms: C12_28  and  N8_33 
ROOT
HETATM    1  C6  UNL     1      -5.517  44.447  48.648  1.00  0.00     0.707 A 
HETATM    2  N3  UNL     1      -6.260  45.564  48.740  1.00  0.00    -0.022 N 
ATOM      3  H3  UNL     1      -7.156  45.645  48.258  1.00  0.00     0.203 HD
HETATM    4  C7  UNL     1      -5.779  46.568  49.488  1.00  0.00     0.707 A 
HETATM    5  N5  UNL     1      -4.603  46.483  50.130  1.00  0.00    -0.021 N 
ATOM      6  H5  UNL     1      -4.280  47.273  50.687  1.00  0.00     0.203 HD
HETATM    7  C11 UNL     1      -3.841  45.376  50.053  1.00  0.00     0.710 A 
HETATM    8  N9  UNL     1      -4.323  44.370  49.303  1.00  0.00    -0.021 N 
ATOM      9  H9  UNL     1      -3.775  43.514  49.221  1.00  0.00     0.203 HD
ENDROOT
BRANCH   1  10
HETATM   10  N2  UNL     1      -5.922  43.442  47.943  1.00  0.00    -0.225 N 
ATOM     11  H2  UNL     1      -6.915  43.216  47.887  1.00  0.00     0.177 HD
BRANCH  10  12
HETATM   12  C5  UNL     1      -4.948  42.644  47.233  1.00  0.00     0.138 C 
BRANCH  12  13
HETATM   13  C4  UNL     1      -5.581  41.889  46.079  1.00  0.00     0.020 C 
BRANCH  13  14
HETATM   14  C3  UNL     1      -6.532  42.750  45.300  1.00  0.00     0.003 C 
BRANCH  14  15
HETATM   15  C2  UNL     1      -5.856  43.257  44.059  1.00  0.00     0.027 C 
BRANCH  15  16
HETATM   16  C1  UNL     1      -5.449  44.703  44.183  1.00  0.00     0.229 C 
BRANCH  16  17
HETATM   17  N1  UNL     1      -6.424  45.388  45.044  1.00  0.00    -0.079 N 
ATOM     18  H13 UNL     1      -7.250  45.697  44.532  1.00  0.00     0.274 HD
ATOM     19  H12 UNL     1      -6.891  44.751  45.691  1.00  0.00     0.274 HD
ATOM     20  H11 UNL     1      -5.950  46.154  45.522  1.00  0.00     0.274 HD
ENDBRANCH  16  17
ENDBRANCH  15  16
ENDBRANCH  14  15
ENDBRANCH  13  14
ENDBRANCH  12  13
ENDBRANCH  10  12
ENDBRANCH   1  10
BRANCH   4  21
HETATM   21  N4  UNL     1      -6.473  47.648  49.592  1.00  0.00    -0.225 N 
ATOM     22  H4  UNL     1      -6.678  48.165  48.736  1.00  0.00     0.177 HD
BRANCH  21  23
HETATM   23  C8  UNL     1      -6.976  48.171  50.823  1.00  0.00     0.140 C 
BRANCH  23  24
HETATM   24  C9  UNL     1      -8.191  47.329  51.226  1.00  0.00     0.046 C 
BRANCH  24  25
HETATM   25  C10 UNL     1      -9.175  47.418  50.099  1.00  0.00     0.165 C 
BRANCH  25  26
HETATM   26  O1  UNL     1      -9.316  46.205  49.427  1.00  0.00    -0.401 OA
ATOM     27  H1  UNL     1     -10.028  45.683  49.778  1.00  0.00     0.209 HD
ENDBRANCH  25  26
ENDBRANCH  24  25
ENDBRANCH  23  24
ENDBRANCH  21  23
ENDBRANCH   4  21
BRANCH   7  28
HETATM   28  N6  UNL     1      -2.704  45.292  50.674  1.00  0.00    -0.172 N 
HETATM   29  C12 UNL     1      -2.429  44.362  51.715  1.00  0.00     0.494 C 
HETATM   30  N7  UNL     1      -0.998  44.258  51.920  1.00  0.00    -0.032 N 
HETATM   31  N8  UNL     1      -3.093  44.753  52.940  1.00  0.00    -0.032 N 
ATOM     32  H73 UNL     1      -0.504  44.024  51.058  1.00  0.00     0.278 HD
ATOM     33  H72 UNL     1      -0.569  45.166  52.095  1.00  0.00     0.278 HD
ATOM     34  H71 UNL     1      -0.800  43.591  52.666  1.00  0.00     0.278 HD
ATOM     35  H83 UNL     1      -2.854  45.706  53.212  1.00  0.00     0.278 HD
ATOM     36  H82 UNL     1      -4.095  44.880  52.802  1.00  0.00     0.278 HD
ATOM     37  H81 UNL     1      -2.896  44.086  53.687  1.00  0.00     0.278 HD
ATOM     38  H6  UNL     1      -1.961  45.933  50.398  1.00  0.00     0.181 HD
ENDBRANCH   7  28
TORSDOF 13
ENDMDL
MODEL 5
REMARK VINA RESULT: -6.342274516      2.068      2.980
REMARK  13 active torsions:
REMARK  status: ('A' for Active; 'I' for Inactive)
REMARK    1  A    between atoms: N1_1  and  C1_5 
REMARK    2  A    between atoms: C1_5  and  C2_6 
REMARK    3  A    between atoms: C2_6  and  C3_7 
REMARK    4  A    between atoms: C3_7  and  C4_8 
REMARK    5  A    between atoms: C4_8  and  C5_9 
REMARK    6  A    between atoms: C5_9  and  N2_10 
REMARK    7  A    between atoms: N2_10  and  C6_12 
REMARK    8  A    between atoms: C7_15  and  N4_16 
REMARK    9  A    between atoms: N4_16  and  C8_18 
REMARK   10  A    between atoms: C8_18  and  C9_19 
REMARK   11  A    between atoms: C9_19  and  C10_20 
REMARK   12  A    between atoms: C10_20  and  O1_21 
REMARK   13  A    between atoms: C11_25  and  N6_26 
REMARK       I    between atoms: N6_26  and  C12_28 
REMARK       I    between atoms: C12_28  and  N7_29 
REMARK       I    between atoms: C12_28  and  N8_33 
ROOT
HETATM    1  C6  UNL     1      -4.282  45.576  50.119  1.00  0.00     0.707 A 
HETATM    2  N3  UNL     1      -5.450  46.228  50.270  1.00  0.00    -0.022 N 
ATOM      3  H3  UNL     1      -5.840  46.795  49.516  1.00  0.00     0.203 HD
HETATM    4  C7  UNL     1      -6.080  46.106  51.447  1.00  0.00     0.707 A 
HETATM    5  N5  UNL     1      -5.583  45.367  52.452  1.00  0.00    -0.021 N 
ATOM      6  H5  UNL     1      -6.099  45.305  53.329  1.00  0.00     0.203 HD
HETATM    7  C11 UNL     1      -4.418  44.706  52.326  1.00  0.00     0.710 A 
HETATM    8  N9  UNL     1      -3.786  44.828  51.146  1.00  0.00    -0.021 N 
ATOM      9  H9  UNL     1      -2.899  44.341  51.012  1.00  0.00     0.203 HD
ENDROOT
BRANCH   1  10
HETATM   10  N2  UNL     1      -3.624  45.652  49.010  1.00  0.00    -0.225 N 
ATOM     11  H2  UNL     1      -2.685  46.050  48.992  1.00  0.00     0.177 HD
BRANCH  10  12
HETATM   12  C5  UNL     1      -4.237  45.164  47.795  1.00  0.00     0.138 C 
BRANCH  12  13
HETATM   13  C4  UNL     1      -4.108  43.657  47.672  1.00  0.00     0.020 C 
BRANCH  13  14
HETATM   14  C3  UNL     1      -5.438  42.971  47.785  1.00  0.00     0.003 C 
BRANCH  14  15
HETATM   15  C2  UNL     1      -5.489  42.172  49.055  1.00  0.00     0.027 C 
BRANCH  15  16
HETATM   16  C1  UNL     1      -6.581  42.645  49.980  1.00  0.00     0.229 C 
BRANCH  16  17
HETATM   17  N1  UNL     1      -7.718  43.096  49.165  1.00  0.00    -0.079 N 
ATOM     18  H13 UNL     1      -7.430  43.456  48.255  1.00  0.00     0.274 HD
ATOM     19  H12 UNL     1      -8.294  42.321  48.832  1.00  0.00     0.274 HD
ATOM     20  H11 UNL     1      -8.252  43.777  49.705  1.00  0.00     0.274 HD
ENDBRANCH  16  17
ENDBRANCH  15  16
ENDBRANCH  14  15
ENDBRANCH  13  14
ENDBRANCH  12  13
ENDBRANCH  10  12
ENDBRANCH   1  10
BRANCH   4  21
HETATM   21  N4  UNL     1      -7.199  46.721  51.615  1.00  0.00    -0.225 N 
ATOM     22  H4  UNL     1      -7.884  46.298  52.241  1.00  0.00     0.177 HD
BRANCH  21  23
HETATM   23  C8  UNL     1      -7.546  47.955  50.983  1.00  0.00     0.140 C 
BRANCH  23  24
HETATM   24  C9  UNL     1      -9.051  47.926  50.699  1.00  0.00     0.046 C 
BRANCH  24  25
HETATM   25  C10 UNL     1      -9.231  47.253  49.372  1.00  0.00     0.165 C 
BRANCH  25  26
HETATM   26  O1  UNL     1      -9.143  45.866  49.469  1.00  0.00    -0.401 OA
ATOM     27  H1  UNL     1      -8.583  45.592  50.187  1.00  0.00     0.209 HD
ENDBRANCH  25  26
ENDBRANCH  24  25
ENDBRANCH  23  24
ENDBRANCH  21  23
ENDBRANCH   4  21
BRANCH   7  28
HETATM   28  N6  UNL     1      -3.936  43.990  53.297  1.00  0.00    -0.172 N 
HETATM   29  C12 UNL     1      -3.061  42.883  53.115  1.00  0.00     0.494 C 
HETATM   30  N7  UNL     1      -2.410  42.556  54.368  1.00  0.00    -0.032 N 
HETATM   31  N8  UNL     1      -3.783  41.739  52.600  1.00  0.00    -0.032 N 
ATOM     32  H73 UNL     1      -1.930  43.361  54.771  1.00  0.00     0.278 HD
ATOM     33  H72 UNL     1      -3.083  42.393  55.118  1.00  0.00     0.278 HD
ATOM     34  H71 UNL     1      -1.783  41.762  54.238  1.00  0.00     0.278 HD
ATOM     35  H83 UNL     1      -4.580  41.498  53.189  1.00  0.00     0.278 HD
ATOM     36  H82 UNL     1      -4.288  41.965  51.744  1.00  0.00     0.278 HD
ATOM     37  H81 UNL     1      -3.156  40.945  52.470  1.00  0.00     0.278 HD
ATOM     38  H6  UNL     1      -4.202  44.237  54.250  1.00  0.00     0.181 HD
ENDBRANCH   7  28
TORSDOF 13
ENDMDL
