MODEL 1
REMARK VINA RESULT: -6.561047293      0.000      0.000
REMARK  14 active torsions:
REMARK  status: ('A' for Active; 'I' for Inactive)
REMARK    1  A    between atoms: C2_2  and  C3_3 
REMARK    2  A    between atoms: C3_3  and  C4_4 
REMARK    3  A    between atoms: C4_4  and  N1_5 
REMARK    4  A    between atoms: N1_5  and  C5_7 
REMARK    5  A    between atoms: C6_10  and  N3_11 
REMARK    6  A    between atoms: C7_16  and  N5_17 
REMARK    7  A    between atoms: N5_17  and  C8_19 
REMARK    8  A    between atoms: C8_19  and  C9_20 
REMARK    9  A    between atoms: C9_20  and  O1_21 
REMARK   10  A    between atoms: N7_26  and  N8_28 
REMARK   11  A    between atoms: N8_28  and  C11_30 
REMARK   12  A    between atoms: C11_30  and  C12_31 
REMARK   13  A    between atoms: C12_31  and  N9_32 
REMARK   14  A    between atoms: N9_32  and  N10_34 
ROOT
HETATM    1  C5  UNL     1      -4.654  43.105  49.937  1.00  0.00     0.167 C 
HETATM    2  N2  UNL     1      -4.391  43.890  50.997  1.00  0.00    -0.173 N 
ATOM      3  H2  UNL     1      -3.597  43.599  51.567  1.00  0.00     0.186 HD
HETATM    4  C6  UNL     1      -5.030  45.019  51.424  1.00  0.00     0.692 C 
HETATM    5  N4  UNL     1      -5.794  45.871  50.729  1.00  0.00    -0.023 N 
ATOM      6  H4  UNL     1      -5.865  46.820  51.097  1.00  0.00     0.203 HD
HETATM    7  C7  UNL     1      -6.470  45.620  49.614  1.00  0.00     0.694 C 
HETATM    8  N6  UNL     1      -6.181  44.632  48.731  1.00  0.00    -0.171 N 
ATOM      9  H6  UNL     1      -6.497  44.807  47.776  1.00  0.00     0.186 HD
HETATM   10  C10 UNL     1      -5.549  43.465  48.905  1.00  0.00     0.180 C 
HETATM   11  N7  UNL     1      -5.752  42.520  48.051  1.00  0.00    -0.286 N 
ATOM     12  H7  UNL     1      -5.285  41.619  48.159  1.00  0.00     0.188 HD
ENDROOT
BRANCH   1  13
HETATM   13  N1  UNL     1      -4.093  41.971  49.813  1.00  0.00    -0.352 N 
ATOM     14  H1  UNL     1      -4.690  41.223  49.463  1.00  0.00     0.166 HD
BRANCH  13  15
HETATM   15  C4  UNL     1      -2.769  41.602  50.089  1.00  0.00     0.062 C 
BRANCH  15  16
HETATM   16  C3  UNL     1      -2.600  40.836  51.386  1.00  0.00     0.044 C 
BRANCH  16  17
HETATM   17  C2  UNL     1      -2.092  41.687  52.510  1.00  0.00     0.001 C 
HETATM   18  C1  UNL     1      -2.110  40.919  53.803  1.00  0.00     0.005 C 
ENDBRANCH  16  17
ENDBRANCH  15  16
ENDBRANCH  13  15
ENDBRANCH   1  13
BRANCH  11  19
HETATM   19  N8  UNL     1      -6.618  42.737  46.974  1.00  0.00    -0.333 N 
ATOM     20  H8  UNL     1      -7.611  42.871  47.165  1.00  0.00     0.180 HD
BRANCH  19  21
HETATM   21  C11 UNL     1      -6.164  42.781  45.603  1.00  0.00     0.160 C 
BRANCH  21  22
HETATM   22  C12 UNL     1      -5.488  44.091  45.303  1.00  0.00     0.160 C 
BRANCH  22  23
HETATM   23  N9  UNL     1      -6.363  45.102  44.845  1.00  0.00    -0.341 N 
ATOM     24  H9  UNL     1      -6.848  45.006  43.952  1.00  0.00     0.179 HD
BRANCH  23  25
HETATM   25  N10 UNL     1      -6.544  46.190  45.607  1.00  0.00    -0.349 N 
ATOM     26 2H10 UNL     1      -6.056  46.269  46.499  1.00  0.00     0.176 HD
ATOM     27 1H10 UNL     1      -7.173  46.922  45.275  1.00  0.00     0.176 HD
ENDBRANCH  23  25
ENDBRANCH  22  23
ENDBRANCH  21  22
ENDBRANCH  19  21
ENDBRANCH  11  19
BRANCH   7  28
HETATM   28  N5  UNL     1      -7.462  46.370  49.366  1.00  0.00    -0.223 N 
ATOM     29  H5  UNL     1      -7.952  46.202  48.487  1.00  0.00     0.177 HD
BRANCH  28  30
HETATM   30  C8  UNL     1      -7.968  47.428  50.188  1.00  0.00     0.164 C 
BRANCH  30  31
HETATM   31  C9  UNL     1      -9.484  47.456  50.115  1.00  0.00     0.184 C 
BRANCH  31  32
HETATM   32  O1  UNL     1      -9.987  46.286  49.562  1.00  0.00    -0.399 OA
ATOM     33  H1  UNL     1     -10.721  46.462  48.985  1.00  0.00     0.209 HD
ENDBRANCH  31  32
ENDBRANCH  30  31
ENDBRANCH  28  30
ENDBRANCH   7  28
BRANCH   4  34
HETATM   34  N3  UNL     1      -4.854  45.273  52.672  1.00  0.00    -0.234 N 
ATOM     35  H32 UNL     1      -4.260  44.633  53.198  1.00  0.00     0.174 HD
ATOM     36  H31 UNL     1      -5.345  46.107  52.995  1.00  0.00     0.174 HD
ENDBRANCH   4  34
TORSDOF 14
ENDMDL
MODEL 2
REMARK VINA RESULT: -6.491629108      2.794      5.582
REMARK  14 active torsions:
REMARK  status: ('A' for Active; 'I' for Inactive)
REMARK    1  A    between atoms: C2_2  and  C3_3 
REMARK    2  A    between atoms: C3_3  and  C4_4 
REMARK    3  A    between atoms: C4_4  and  N1_5 
REMARK    4  A    between atoms: N1_5  and  C5_7 
REMARK    5  A    between atoms: C6_10  and  N3_11 
REMARK    6  A    between atoms: C7_16  and  N5_17 
REMARK    7  A    between atoms: N5_17  and  C8_19 
REMARK    8  A    between atoms: C8_19  and  C9_20 
REMARK    9  A    between atoms: C9_20  and  O1_21 
REMARK   10  A    between atoms: N7_26  and  N8_28 
REMARK   11  A    between atoms: N8_28  and  C11_30 
REMARK   12  A    between atoms: C11_30  and  C12_31 
REMARK   13  A    between atoms: C12_31  and  N9_32 
REMARK   14  A    between atoms: N9_32  and  N10_34 
ROOT
HETATM    1  C5  UNL     1      -6.571  46.542  49.055  1.00  0.00     0.167 C 
HETATM    2  N2  UNL     1      -6.626  47.633  49.840  1.00  0.00    -0.173 N 
ATOM      3  H2  UNL     1      -7.079  48.446  49.424  1.00  0.00     0.186 HD
HETATM    4  C6  UNL     1      -6.163  47.813  51.112  1.00  0.00     0.692 C 
HETATM    5  N4  UNL     1      -5.913  46.898  52.058  1.00  0.00    -0.023 N 
ATOM      6  H4  UNL     1      -5.944  47.224  53.023  1.00  0.00     0.203 HD
HETATM    7  C7  UNL     1      -5.629  45.614  51.878  1.00  0.00     0.694 C 
HETATM    8  N6  UNL     1      -5.966  44.883  50.786  1.00  0.00    -0.171 N 
ATOM      9  H6  UNL     1      -6.052  43.881  50.954  1.00  0.00     0.186 HD
HETATM   10  C10 UNL     1      -6.203  45.262  49.525  1.00  0.00     0.180 C 
HETATM   11  N7  UNL     1      -6.093  44.384  48.586  1.00  0.00    -0.286 N 
ATOM     12  H7  UNL     1      -6.267  44.644  47.615  1.00  0.00     0.188 HD
ENDROOT
BRANCH   1  13
HETATM   13  N1  UNL     1      -6.857  46.617  47.818  1.00  0.00    -0.352 N 
ATOM     14  H1  UNL     1      -7.391  45.833  47.444  1.00  0.00     0.166 HD
BRANCH  13  15
HETATM   15  C4  UNL     1      -6.541  47.623  46.895  1.00  0.00     0.062 C 
BRANCH  15  16
HETATM   16  C3  UNL     1      -5.756  47.133  45.693  1.00  0.00     0.044 C 
BRANCH  16  17
HETATM   17  C2  UNL     1      -4.673  48.080  45.272  1.00  0.00     0.001 C 
HETATM   18  C1  UNL     1      -3.340  47.385  45.256  1.00  0.00     0.005 C 
ENDBRANCH  16  17
ENDBRANCH  15  16
ENDBRANCH  13  15
ENDBRANCH   1  13
BRANCH  11  19
HETATM   19  N8  UNL     1      -5.734  43.071  48.908  1.00  0.00    -0.333 N 
ATOM     20  H8  UNL     1      -6.261  42.584  49.633  1.00  0.00     0.180 HD
BRANCH  19  21
HETATM   21  C11 UNL     1      -4.647  42.376  48.257  1.00  0.00     0.160 C 
BRANCH  21  22
HETATM   22  C12 UNL     1      -4.822  42.388  46.763  1.00  0.00     0.160 C 
BRANCH  22  23
HETATM   23  N9  UNL     1      -5.972  41.702  46.309  1.00  0.00    -0.341 N 
ATOM     24  H9  UNL     1      -6.039  40.688  46.394  1.00  0.00     0.179 HD
BRANCH  23  25
HETATM   25  N10 UNL     1      -6.971  42.411  45.766  1.00  0.00    -0.349 N 
ATOM     26 2H10 UNL     1      -6.968  43.429  45.839  1.00  0.00     0.176 HD
ATOM     27 1H10 UNL     1      -7.721  41.912  45.286  1.00  0.00     0.176 HD
ENDBRANCH  23  25
ENDBRANCH  22  23
ENDBRANCH  21  22
ENDBRANCH  19  21
ENDBRANCH  11  19
BRANCH   7  28
HETATM   28  N5  UNL     1      -4.991  45.035  52.810  1.00  0.00    -0.223 N 
ATOM     29  H5  UNL     1      -5.069  45.447  53.740  1.00  0.00     0.177 HD
BRANCH  28  30
HETATM   30  C8  UNL     1      -4.175  43.864  52.697  1.00  0.00     0.164 C 
BRANCH  30  31
HETATM   31  C9  UNL     1      -2.765  44.258  52.294  1.00  0.00     0.184 C 
BRANCH  31  32
HETATM   32  O1  UNL     1      -2.059  44.786  53.366  1.00  0.00    -0.399 OA
ATOM     33  H1  UNL     1      -1.143  44.909  53.151  1.00  0.00     0.209 HD
ENDBRANCH  31  32
ENDBRANCH  30  31
ENDBRANCH  28  30
ENDBRANCH   7  28
BRANCH   4  34
HETATM   34  N3  UNL     1      -5.948  49.044  51.416  1.00  0.00    -0.234 N 
ATOM     35  H32 UNL     1      -5.302  49.228  52.183  1.00  0.00     0.174 HD
ATOM     36  H31 UNL     1      -6.466  49.706  50.838  1.00  0.00     0.174 HD
ENDBRANCH   4  34
TORSDOF 14
ENDMDL
MODEL 3
REMARK VINA RESULT: -6.461649697      3.555      7.098
REMARK  14 active torsions:
REMARK  status: ('A' for Active; 'I' for Inactive)
REMARK    1  A    between atoms: C2_2  and  C3_3 
REMARK    2  A    between atoms: C3_3  and  C4_4 
REMARK    3  A    between atoms: C4_4  and  N1_5 
REMARK    4  A    between atoms: N1_5  and  C5_7 
REMARK    5  A    between atoms: C6_10  and  N3_11 
REMARK    6  A    between atoms: C7_16  and  N5_17 
REMARK    7  A    between atoms: N5_17  and  C8_19 
REMARK    8  A    between atoms: C8_19  and  C9_20 
REMARK    9  A    between atoms: C9_20  and  O1_21 
REMARK   10  A    between atoms: N7_26  and  N8_28 
REMARK   11  A    between atoms: N8_28  and  C11_30 
REMARK   12  A    between atoms: C11_30  and  C12_31 
REMARK   13  A    between atoms: C12_31  and  N9_32 
REMARK   14  A    between atoms: N9_32  and  N10_34 
ROOT
HETATM    1  C5  UNL     1      -4.332  46.941  47.469  1.00  0.00     0.167 C 
HETATM    2  N2  UNL     1      -3.240  46.756  46.705  1.00  0.00    -0.173 N 
ATOM      3  H2  UNL     1      -3.388  46.866  45.702  1.00  0.00     0.186 HD
HETATM    4  C6  UNL     1      -1.963  46.442  47.073  1.00  0.00     0.692 C 
HETATM    5  N4  UNL     1      -1.353  46.629  48.250  1.00  0.00    -0.023 N 
ATOM      6  H4  UNL     1      -0.336  46.690  48.229  1.00  0.00     0.203 HD
HETATM    7  C7  UNL     1      -1.926  46.744  49.443  1.00  0.00     0.694 C 
HETATM    8  N6  UNL     1      -3.205  47.139  49.661  1.00  0.00    -0.171 N 
ATOM      9  H6  UNL     1      -3.371  47.561  50.575  1.00  0.00     0.186 HD
HETATM   10  C10 UNL     1      -4.285  47.066  48.875  1.00  0.00     0.180 C 
HETATM   11  N7  UNL     1      -5.452  47.110  49.424  1.00  0.00    -0.286 N 
ATOM     12  H7  UNL     1      -6.293  47.055  48.850  1.00  0.00     0.188 HD
ENDROOT
BRANCH   1  13
HETATM   13  N1  UNL     1      -5.488  47.012  46.944  1.00  0.00    -0.352 N 
ATOM     14  H1  UNL     1      -6.256  47.164  47.597  1.00  0.00     0.166 HD
BRANCH  13  15
HETATM   15  C4  UNL     1      -5.857  46.912  45.596  1.00  0.00     0.062 C 
BRANCH  15  16
HETATM   16  C3  UNL     1      -5.915  45.488  45.077  1.00  0.00     0.044 C 
BRANCH  16  17
HETATM   17  C2  UNL     1      -4.844  45.184  44.074  1.00  0.00     0.001 C 
HETATM   18  C1  UNL     1      -5.377  44.293  42.986  1.00  0.00     0.005 C 
ENDBRANCH  16  17
ENDBRANCH  15  16
ENDBRANCH  13  15
ENDBRANCH   1  13
BRANCH  11  19
HETATM   19  N8  UNL     1      -5.556  47.234  50.813  1.00  0.00    -0.333 N 
ATOM     20  H8  UNL     1      -4.970  47.920  51.288  1.00  0.00     0.180 HD
BRANCH  19  21
HETATM   21  C11 UNL     1      -6.459  46.429  51.604  1.00  0.00     0.160 C 
BRANCH  21  22
HETATM   22  C12 UNL     1      -5.870  45.072  51.876  1.00  0.00     0.160 C 
BRANCH  22  23
HETATM   23  N9  UNL     1      -4.752  45.091  52.742  1.00  0.00    -0.341 N 
ATOM     24  H9  UNL     1      -4.235  45.954  52.905  1.00  0.00     0.179 HD
BRANCH  23  25
HETATM   25  N10 UNL     1      -4.387  43.949  53.345  1.00  0.00    -0.349 N 
ATOM     26 2H10 UNL     1      -4.767  43.061  53.019  1.00  0.00     0.176 HD
ATOM     27 1H10 UNL     1      -3.730  43.996  54.124  1.00  0.00     0.176 HD
ENDBRANCH  23  25
ENDBRANCH  22  23
ENDBRANCH  21  22
ENDBRANCH  19  21
ENDBRANCH  11  19
BRANCH   7  28
HETATM   28  N5  UNL     1      -1.209  46.460  50.450  1.00  0.00    -0.223 N 
ATOM     29  H5  UNL     1      -1.142  47.171  51.178  1.00  0.00     0.177 HD
BRANCH  28  30
HETATM   30  C8  UNL     1      -0.483  45.246  50.675  1.00  0.00     0.164 C 
BRANCH  30  31
HETATM   31  C9  UNL     1      -1.301  44.312  51.548  1.00  0.00     0.184 C 
BRANCH  31  32
HETATM   32  O1  UNL     1      -1.671  44.924  52.738  1.00  0.00    -0.399 OA
ATOM     33  H1  UNL     1      -1.753  44.292  53.442  1.00  0.00     0.209 HD
ENDBRANCH  31  32
ENDBRANCH  30  31
ENDBRANCH  28  30
ENDBRANCH   7  28
BRANCH   4  34
HETATM   34  N3  UNL     1      -1.274  45.893  46.136  1.00  0.00    -0.234 N 
ATOM     35  H32 UNL     1      -1.442  44.904  45.954  1.00  0.00     0.174 HD
ATOM     36  H31 UNL     1      -0.624  46.531  45.677  1.00  0.00     0.174 HD
ENDBRANCH   4  34
TORSDOF 14
ENDMDL
MODEL 4
REMARK VINA RESULT: -6.434770332      3.310      6.742
REMARK  14 active torsions:
REMARK  status: ('A' for Active; 'I' for Inactive)
REMARK    1  A    between atoms: C2_2  and  C3_3 
REMARK    2  A    between atoms: C3_3  and  C4_4 
REMARK    3  A    between atoms: C4_4  and  N1_5 
REMARK    4  A    between atoms: N1_5  and  C5_7 
REMARK    5  A    between atoms: C6_10  and  N3_11 
REMARK    6  A    between atoms: C7_16  and  N5_17 
REMARK    7  A    between atoms: N5_17  and  C8_19 
REMARK    8  A    between atoms: C8_19  and  C9_20 
REMARK    9  A    between atoms: C9_20  and  O1_21 
REMARK   10  A    between atoms: N7_26  and  N8_28 
REMARK   11  A    between atoms: N8_28  and  C11_30 
REMARK   12  A    between atoms: C11_30  and  C12_31 
REMARK   13  A    between atoms: C12_31  and  N9_32 
REMARK   14  A    between atoms: N9_32  and  N10_34 
ROOT
HETATM    1  C5  UNL     1      -5.147  45.216  48.729  1.00  0.00     0.167 C 
HETATM    2  N2  UNL     1      -6.176  44.359  48.601  1.00  0.00    -0.173 N 
ATOM      3  H2  UNL     1      -6.755  44.496  47.773  1.00  0.00     0.186 HD
HETATM    4  C6  UNL     1      -6.560  43.333  49.416  1.00  0.00     0.692 C 
HETATM    5  N4  UNL     1      -5.834  42.643  50.305  1.00  0.00    -0.023 N 
ATOM      6  H4  UNL     1      -6.165  41.705  50.530  1.00  0.00     0.203 HD
HETATM    7  C7  UNL     1      -4.730  43.043  50.926  1.00  0.00     0.694 C 
HETATM    8  N6  UNL     1      -3.885  44.004  50.477  1.00  0.00    -0.171 N 
ATOM      9  H6  UNL     1      -2.926  43.919  50.812  1.00  0.00     0.186 HD
HETATM   10  C10 UNL     1      -4.103  45.046  49.665  1.00  0.00     0.180 C 
HETATM   11  N7  UNL     1      -3.286  46.043  49.709  1.00  0.00    -0.286 N 
ATOM     12  H7  UNL     1      -3.428  46.851  49.103  1.00  0.00     0.188 HD
ENDROOT
BRANCH   1  13
HETATM   13  N1  UNL     1      -5.065  46.249  47.991  1.00  0.00    -0.352 N 
ATOM     14  H1  UNL     1      -4.121  46.600  47.832  1.00  0.00     0.166 HD
BRANCH  13  15
HETATM   15  C4  UNL     1      -6.088  46.973  47.364  1.00  0.00     0.062 C 
BRANCH  15  16
HETATM   16  C3  UNL     1      -5.935  47.080  45.859  1.00  0.00     0.044 C 
BRANCH  16  17
HETATM   17  C2  UNL     1      -5.041  48.206  45.437  1.00  0.00     0.001 C 
HETATM   18  C1  UNL     1      -3.691  47.685  45.028  1.00  0.00     0.005 C 
ENDBRANCH  16  17
ENDBRANCH  15  16
ENDBRANCH  13  15
ENDBRANCH   1  13
BRANCH  11  19
HETATM   19  N8  UNL     1      -2.203  46.009  50.594  1.00  0.00    -0.333 N 
ATOM     20  H8  UNL     1      -2.359  45.672  51.543  1.00  0.00     0.180 HD
BRANCH  19  21
HETATM   21  C11 UNL     1      -0.873  46.432  50.218  1.00  0.00     0.160 C 
BRANCH  21  22
HETATM   22  C12 UNL     1       0.114  45.310  50.386  1.00  0.00     0.160 C 
BRANCH  22  23
HETATM   23  N9  UNL     1      -0.291  44.316  51.306  1.00  0.00    -0.341 N 
ATOM     24  H9  UNL     1      -0.555  44.566  52.259  1.00  0.00     0.179 HD
BRANCH  23  25
HETATM   25  N10 UNL     1      -0.323  43.038  50.899  1.00  0.00    -0.349 N 
ATOM     26 2H10 UNL     1       0.539  42.492  50.880  1.00  0.00     0.176 HD
ATOM     27 1H10 UNL     1      -1.216  42.637  50.614  1.00  0.00     0.176 HD
ENDBRANCH  23  25
ENDBRANCH  22  23
ENDBRANCH  21  22
ENDBRANCH  19  21
ENDBRANCH  11  19
BRANCH   7  28
HETATM   28  N5  UNL     1      -4.456  42.473  52.026  1.00  0.00    -0.223 N 
ATOM     29  H5  UNL     1      -5.248  42.196  52.605  1.00  0.00     0.177 HD
BRANCH  28  30
HETATM   30  C8  UNL     1      -3.153  42.175  52.540  1.00  0.00     0.164 C 
BRANCH  30  31
HETATM   31  C9  UNL     1      -2.845  43.083  53.716  1.00  0.00     0.184 C 
BRANCH  31  32
HETATM   32  O1  UNL     1      -2.293  44.287  53.298  1.00  0.00    -0.399 OA
ATOM     33  H1  UNL     1      -1.442  44.158  52.897  1.00  0.00     0.209 HD
ENDBRANCH  31  32
ENDBRANCH  30  31
ENDBRANCH  28  30
ENDBRANCH   7  28
BRANCH   4  34
HETATM   34  N3  UNL     1      -7.797  43.007  49.290  1.00  0.00    -0.234 N 
ATOM     35  H32 UNL     1      -8.248  43.227  48.402  1.00  0.00     0.174 HD
ATOM     36  H31 UNL     1      -8.189  42.554  50.116  1.00  0.00     0.174 HD
ENDBRANCH   4  34
TORSDOF 14
ENDMDL
MODEL 5
REMARK VINA RESULT: -6.431881879      3.141      6.450
REMARK  14 active torsions:
REMARK  status: ('A' for Active; 'I' for Inactive)
REMARK    1  A    between atoms: C2_2  and  C3_3 
REMARK    2  A    between atoms: C3_3  and  C4_4 
REMARK    3  A    between atoms: C4_4  and  N1_5 
REMARK    4  A    between atoms: N1_5  and  C5_7 
REMARK    5  A    between atoms: C6_10  and  N3_11 
REMARK    6  A    between atoms: C7_16  and  N5_17 
REMARK    7  A    between atoms: N5_17  and  C8_19 
REMARK    8  A    between atoms: C8_19  and  C9_20 
REMARK    9  A    between atoms: C9_20  and  O1_21 
REMARK   10  A    between atoms: N7_26  and  N8_28 
REMARK   11  A    between atoms: N8_28  and  C11_30 
REMARK   12  A    between atoms: C11_30  and  C12_31 
REMARK   13  A    between atoms: C12_31  and  N9_32 
REMARK   14  A    between atoms: N9_32  and  N10_34 
ROOT
HETATM    1  C5  UNL     1      -5.060  45.492  49.062  1.00  0.00     0.167 C 
HETATM    2  N2  UNL     1      -6.077  44.630  48.886  1.00  0.00    -0.173 N 
ATOM      3  H2  UNL     1      -6.777  44.918  48.203  1.00  0.00     0.186 HD
HETATM    4  C6  UNL     1      -6.311  43.426  49.487  1.00  0.00     0.692 C 
HETATM    5  N4  UNL     1      -5.444  42.594  50.078  1.00  0.00    -0.023 N 
ATOM      6  H4  UNL     1      -5.717  41.613  50.124  1.00  0.00     0.203 HD
HETATM    7  C7  UNL     1      -4.269  42.905  50.612  1.00  0.00     0.694 C 
HETATM    8  N6  UNL     1      -3.522  43.988  50.283  1.00  0.00    -0.171 N 
ATOM      9  H6  UNL     1      -2.521  43.883  50.450  1.00  0.00     0.186 HD
HETATM   10  C10 UNL     1      -3.883  45.173  49.775  1.00  0.00     0.180 C 
HETATM   11  N7  UNL     1      -3.090  46.178  49.933  1.00  0.00    -0.286 N 
ATOM     12  H7  UNL     1      -3.340  47.094  49.558  1.00  0.00     0.188 HD
ENDROOT
BRANCH   1  13
HETATM   13  N1  UNL     1      -5.113  46.668  48.580  1.00  0.00    -0.352 N 
ATOM     14  H1  UNL     1      -4.389  46.895  47.899  1.00  0.00     0.166 HD
BRANCH  13  15
HETATM   15  C4  UNL     1      -6.025  47.696  48.851  1.00  0.00     0.062 C 
BRANCH  15  16
HETATM   16  C3  UNL     1      -5.950  48.229  50.269  1.00  0.00     0.044 C 
BRANCH  16  17
HETATM   17  C2  UNL     1      -7.241  48.093  51.018  1.00  0.00     0.001 C 
HETATM   18  C1  UNL     1      -7.263  46.812  51.806  1.00  0.00     0.005 C 
ENDBRANCH  16  17
ENDBRANCH  15  16
ENDBRANCH  13  15
ENDBRANCH   1  13
BRANCH  11  19
HETATM   19  N8  UNL     1      -1.886  46.006  50.623  1.00  0.00    -0.333 N 
ATOM     20  H8  UNL     1      -1.910  45.575  51.547  1.00  0.00     0.180 HD
BRANCH  19  21
HETATM   21  C11 UNL     1      -0.610  46.414  50.081  1.00  0.00     0.160 C 
BRANCH  21  22
HETATM   22  C12 UNL     1       0.420  45.332  50.261  1.00  0.00     0.160 C 
BRANCH  22  23
HETATM   23  N9  UNL     1      -0.024  44.235  51.035  1.00  0.00    -0.341 N 
ATOM     24  H9  UNL     1      -0.562  44.384  51.889  1.00  0.00     0.179 HD
BRANCH  23  25
HETATM   25  N10 UNL     1       0.276  42.994  50.623  1.00  0.00    -0.349 N 
ATOM     26 2H10 UNL     1       0.901  42.413  51.182  1.00  0.00     0.176 HD
ATOM     27 1H10 UNL     1      -0.131  42.656  49.751  1.00  0.00     0.176 HD
ENDBRANCH  23  25
ENDBRANCH  22  23
ENDBRANCH  21  22
ENDBRANCH  19  21
ENDBRANCH  11  19
BRANCH   7  28
HETATM   28  N5  UNL     1      -3.819  42.117  51.499  1.00  0.00    -0.223 N 
ATOM     29  H5  UNL     1      -4.309  41.229  51.610  1.00  0.00     0.177 HD
BRANCH  28  30
HETATM   30  C8  UNL     1      -2.697  42.340  52.360  1.00  0.00     0.164 C 
BRANCH  30  31
HETATM   31  C9  UNL     1      -3.042  43.400  53.390  1.00  0.00     0.184 C 
BRANCH  31  32
HETATM   32  O1  UNL     1      -2.290  44.552  53.206  1.00  0.00    -0.399 OA
ATOM     33  H1  UNL     1      -1.568  44.597  53.822  1.00  0.00     0.209 HD
ENDBRANCH  31  32
ENDBRANCH  30  31
ENDBRANCH  28  30
ENDBRANCH   7  28
BRANCH   4  34
HETATM   34  N3  UNL     1      -7.546  43.068  49.464  1.00  0.00    -0.234 N 
ATOM     35  H32 UNL     1      -8.008  43.046  48.556  1.00  0.00     0.174 HD
ATOM     36  H31 UNL     1      -7.925  42.843  50.384  1.00  0.00     0.174 HD
ENDBRANCH   4  34
TORSDOF 14
ENDMDL
