MODEL 1
REMARK VINA RESULT: -5.589820707      0.000      0.000
REMARK  14 active torsions:
REMARK  status: ('A' for Active; 'I' for Inactive)
REMARK    1  A    between atoms: N1_1  and  C1_5 
REMARK    2  A    between atoms: C1_5  and  C2_6 
REMARK    3  A    between atoms: C2_6  and  C3_7 
REMARK    4  A    between atoms: C3_7  and  C4_8 
REMARK    5  A    between atoms: C4_8  and  N2_9 
REMARK    6  A    between atoms: N2_9  and  C5_12 
REMARK    7  A    between atoms: C5_12  and  C6_13 
REMARK    8  A    between atoms: C6_13  and  O1_14 
REMARK    9  A    between atoms: O1_14  and  C7_15 
REMARK   10  A    between atoms: C9_17  and  N3_18 
REMARK   11  A    between atoms: C10_22  and  C11_23 
REMARK   12  A    between atoms: C11_23  and  N4_24 
REMARK   13  A    between atoms: C12_28  and  O2_29 
REMARK   14  A    between atoms: C13_31  and  O3_32 
ROOT
HETATM    1  C7  UNL     1      -0.329  15.498  11.927  1.00  0.00     0.154 C 
HETATM    2  C8  UNL     1      -1.472  15.115  12.850  1.00  0.00     0.068 C 
HETATM    3  C9  UNL     1      -2.795  15.727  12.383  1.00  0.00     0.194 C 
HETATM    4  C10 UNL     1      -2.729  17.209  12.308  1.00  0.00     0.073 C 
HETATM    5  C12 UNL     1      -1.279  17.696  12.365  1.00  0.00     0.157 C 
HETATM    6  C13 UNL     1      -0.440  16.883  11.405  1.00  0.00     0.176 C 
ENDROOT
BRANCH   1   7
HETATM    7  O1  UNL     1      -0.131  14.514  10.951  1.00  0.00    -0.382 OA
BRANCH   7   8
HETATM    8  C6  UNL     1       1.003  13.767  11.116  1.00  0.00     0.196 C 
BRANCH   8   9
HETATM    9  C5  UNL     1       2.098  14.004  10.119  1.00  0.00     0.258 C 
BRANCH   9  10
HETATM   10  N2  UNL     1       2.836  15.196  10.389  1.00  0.00    -0.073 N 
ATOM     11  H22 UNL     1       3.627  14.994  10.999  1.00  0.00     0.277 HD
ATOM     12  H21 UNL     1       2.300  15.816  10.997  1.00  0.00     0.277 HD
BRANCH  10  13
HETATM   13  C4  UNL     1       3.270  15.894   9.228  1.00  0.00     0.232 C 
BRANCH  13  14
HETATM   14  C3  UNL     1       2.235  15.885   8.149  1.00  0.00     0.029 C 
BRANCH  14  15
HETATM   15  C2  UNL     1       2.758  15.448   6.826  1.00  0.00     0.029 C 
BRANCH  15  16
HETATM   16  C1  UNL     1       1.838  14.469   6.143  1.00  0.00     0.229 C 
BRANCH  16  17
HETATM   17  N1  UNL     1       0.645  14.280   6.977  1.00  0.00    -0.079 N 
ATOM     18  H13 UNL     1       0.733  14.727   7.890  1.00  0.00     0.274 HD
ATOM     19  H12 UNL     1      -0.156  14.811   6.636  1.00  0.00     0.274 HD
ATOM     20  H11 UNL     1       0.449  13.282   7.050  1.00  0.00     0.274 HD
ENDBRANCH  16  17
ENDBRANCH  15  16
ENDBRANCH  14  15
ENDBRANCH  13  14
ENDBRANCH  10  13
ENDBRANCH   9  10
ENDBRANCH   8   9
ENDBRANCH   7   8
ENDBRANCH   1   7
BRANCH   6  21
HETATM   21  O3  UNL     1      -1.003  16.980  10.145  1.00  0.00    -0.390 OA
ATOM     22  H3  UNL     1      -0.589  17.619   9.576  1.00  0.00     0.210 HD
ENDBRANCH   6  21
BRANCH   3  23
HETATM   23  N3  UNL     1      -3.858  15.204  13.197  1.00  0.00    -0.074 N 
ATOM     24  H33 UNL     1      -3.845  14.185  13.248  1.00  0.00     0.274 HD
ATOM     25  H32 UNL     1      -3.720  15.398  14.189  1.00  0.00     0.274 HD
ATOM     26  H31 UNL     1      -4.745  15.566  12.848  1.00  0.00     0.274 HD
ENDBRANCH   3  23
BRANCH   5  27
HETATM   27  O2  UNL     1      -0.707  17.635  13.597  1.00  0.00    -0.392 OA
ATOM     28  H2  UNL     1      -1.240  17.216  14.262  1.00  0.00     0.210 HD
ENDBRANCH   5  27
BRANCH   4  29
HETATM   29  C11 UNL     1      -3.601  17.967  13.232  1.00  0.00     0.238 C 
BRANCH  29  30
HETATM   30  N4  UNL     1      -3.213  19.297  13.538  1.00  0.00    -0.079 N 
ATOM     31  H43 UNL     1      -3.653  19.588  14.411  1.00  0.00     0.274 HD
ATOM     32  H42 UNL     1      -2.230  19.310  13.809  1.00  0.00     0.274 HD
ATOM     33  H41 UNL     1      -3.378  20.003  12.822  1.00  0.00     0.274 HD
ENDBRANCH  29  30
ENDBRANCH   4  29
TORSDOF 14
ENDMDL
MODEL 2
REMARK VINA RESULT: -5.511491691      1.865      6.269
REMARK  14 active torsions:
REMARK  status: ('A' for Active; 'I' for Inactive)
REMARK    1  A    between atoms: N1_1  and  C1_5 
REMARK    2  A    between atoms: C1_5  and  C2_6 
REMARK    3  A    between atoms: C2_6  and  C3_7 
REMARK    4  A    between atoms: C3_7  and  C4_8 
REMARK    5  A    between atoms: C4_8  and  N2_9 
REMARK    6  A    between atoms: N2_9  and  C5_12 
REMARK    7  A    between atoms: C5_12  and  C6_13 
REMARK    8  A    between atoms: C6_13  and  O1_14 
REMARK    9  A    between atoms: O1_14  and  C7_15 
REMARK   10  A    between atoms: C9_17  and  N3_18 
REMARK   11  A    between atoms: C10_22  and  C11_23 
REMARK   12  A    between atoms: C11_23  and  N4_24 
REMARK   13  A    between atoms: C12_28  and  O2_29 
REMARK   14  A    between atoms: C13_31  and  O3_32 
ROOT
HETATM    1  C7  UNL     1       1.104  13.821  10.636  1.00  0.00     0.154 C 
HETATM    2  C8  UNL     1       2.464  14.414  10.309  1.00  0.00     0.068 C 
HETATM    3  C9  UNL     1       2.335  15.625   9.380  1.00  0.00     0.194 C 
HETATM    4  C10 UNL     1       1.655  15.280   8.106  1.00  0.00     0.073 C 
HETATM    5  C12 UNL     1       0.954  13.924   8.208  1.00  0.00     0.157 C 
HETATM    6  C13 UNL     1       0.159  13.867   9.493  1.00  0.00     0.176 C 
ENDROOT
BRANCH   1   7
HETATM    7  O1  UNL     1       0.609  14.349  11.833  1.00  0.00    -0.382 OA
BRANCH   7   8
HETATM    8  C6  UNL     1       0.053  13.427  12.677  1.00  0.00     0.196 C 
BRANCH   8   9
HETATM    9  C5  UNL     1      -1.290  13.780  13.243  1.00  0.00     0.258 C 
BRANCH   9  10
HETATM   10  N2  UNL     1      -2.169  14.335  12.265  1.00  0.00    -0.073 N 
ATOM     11  H22 UNL     1      -2.782  13.613  11.887  1.00  0.00     0.277 HD
ATOM     12  H21 UNL     1      -1.650  14.582  11.421  1.00  0.00     0.277 HD
BRANCH  10  13
HETATM   13  C4  UNL     1      -2.932  15.445  12.721  1.00  0.00     0.232 C 
BRANCH  13  14
HETATM   14  C3  UNL     1      -2.704  16.663  11.884  1.00  0.00     0.029 C 
BRANCH  14  15
HETATM   15  C2  UNL     1      -2.043  17.776  12.621  1.00  0.00     0.029 C 
BRANCH  15  16
HETATM   16  C1  UNL     1      -0.625  17.443  13.006  1.00  0.00     0.229 C 
BRANCH  16  17
HETATM   17  N1  UNL     1       0.161  17.235  11.784  1.00  0.00    -0.079 N 
ATOM     18  H13 UNL     1      -0.224  17.736  10.983  1.00  0.00     0.274 HD
ATOM     19  H12 UNL     1       1.067  17.702  11.820  1.00  0.00     0.274 HD
ATOM     20  H11 UNL     1       0.246  16.233  11.613  1.00  0.00     0.274 HD
ENDBRANCH  16  17
ENDBRANCH  15  16
ENDBRANCH  14  15
ENDBRANCH  13  14
ENDBRANCH  10  13
ENDBRANCH   9  10
ENDBRANCH   8   9
ENDBRANCH   7   8
ENDBRANCH   1   7
BRANCH   6  21
HETATM   21  O3  UNL     1      -0.716  14.939   9.512  1.00  0.00    -0.390 OA
ATOM     22  H3  UNL     1      -1.580  14.750   9.166  1.00  0.00     0.210 HD
ENDBRANCH   6  21
BRANCH   3  23
HETATM   23  N3  UNL     1       3.628  16.235   9.237  1.00  0.00    -0.074 N 
ATOM     24  H33 UNL     1       4.336  15.577   8.910  1.00  0.00     0.274 HD
ATOM     25  H32 UNL     1       3.667  16.886   8.452  1.00  0.00     0.274 HD
ATOM     26  H31 UNL     1       3.883  16.674  10.121  1.00  0.00     0.274 HD
ENDBRANCH   3  23
BRANCH   5  27
HETATM   27  O2  UNL     1       1.786  12.850   8.167  1.00  0.00    -0.392 OA
ATOM     28  H2  UNL     1       1.369  12.033   7.922  1.00  0.00     0.210 HD
ENDBRANCH   5  27
BRANCH   4  29
HETATM   29  C11 UNL     1       2.455  15.394   6.867  1.00  0.00     0.238 C 
BRANCH  29  30
HETATM   30  N4  UNL     1       2.057  14.590   5.767  1.00  0.00    -0.079 N 
ATOM     31  H43 UNL     1       1.801  13.661   6.100  1.00  0.00     0.274 HD
ATOM     32  H42 UNL     1       1.158  14.918   5.414  1.00  0.00     0.274 HD
ATOM     33  H41 UNL     1       2.717  14.505   4.994  1.00  0.00     0.274 HD
ENDBRANCH  29  30
ENDBRANCH   4  29
TORSDOF 14
ENDMDL
MODEL 3
REMARK VINA RESULT: -5.503207794      4.387      6.224
REMARK  14 active torsions:
REMARK  status: ('A' for Active; 'I' for Inactive)
REMARK    1  A    between atoms: N1_1  and  C1_5 
REMARK    2  A    between atoms: C1_5  and  C2_6 
REMARK    3  A    between atoms: C2_6  and  C3_7 
REMARK    4  A    between atoms: C3_7  and  C4_8 
REMARK    5  A    between atoms: C4_8  and  N2_9 
REMARK    6  A    between atoms: N2_9  and  C5_12 
REMARK    7  A    between atoms: C5_12  and  C6_13 
REMARK    8  A    between atoms: C6_13  and  O1_14 
REMARK    9  A    between atoms: O1_14  and  C7_15 
REMARK   10  A    between atoms: C9_17  and  N3_18 
REMARK   11  A    between atoms: C10_22  and  C11_23 
REMARK   12  A    between atoms: C11_23  and  N4_24 
REMARK   13  A    between atoms: C12_28  and  O2_29 
REMARK   14  A    between atoms: C13_31  and  O3_32 
ROOT
HETATM    1  C7  UNL     1       0.445  12.160  10.253  1.00  0.00     0.154 C 
HETATM    2  C8  UNL     1      -0.620  13.241  10.184  1.00  0.00     0.068 C 
HETATM    3  C9  UNL     1      -0.378  14.188   9.006  1.00  0.00     0.194 C 
HETATM    4  C10 UNL     1       0.952  14.844   9.082  1.00  0.00     0.073 C 
HETATM    5  C12 UNL     1       1.854  14.140  10.098  1.00  0.00     0.157 C 
HETATM    6  C13 UNL     1       1.794  12.647   9.869  1.00  0.00     0.176 C 
ENDROOT
BRANCH   1   7
HETATM    7  O1  UNL     1       0.022  11.006   9.585  1.00  0.00    -0.382 OA
BRANCH   7   8
HETATM    8  C6  UNL     1       0.047   9.867  10.342  1.00  0.00     0.196 C 
BRANCH   8   9
HETATM    9  C5  UNL     1       0.900   8.749   9.820  1.00  0.00     0.258 C 
BRANCH   9  10
HETATM   10  N2  UNL     1       2.082   9.218   9.173  1.00  0.00    -0.073 N 
ATOM     11  H22 UNL     1       2.008  10.216   8.979  1.00  0.00     0.277 HD
ATOM     12  H21 UNL     1       2.133   8.858   8.220  1.00  0.00     0.277 HD
BRANCH  10  13
HETATM   13  C4  UNL     1       3.287   8.937   9.875  1.00  0.00     0.232 C 
BRANCH  13  14
HETATM   14  C3  UNL     1       3.779   7.550   9.609  1.00  0.00     0.029 C 
BRANCH  14  15
HETATM   15  C2  UNL     1       5.127   7.277  10.180  1.00  0.00     0.029 C 
BRANCH  15  16
HETATM   16  C1  UNL     1       5.303   7.889  11.545  1.00  0.00     0.229 C 
BRANCH  16  17
HETATM   17  N1  UNL     1       6.720   8.221  11.736  1.00  0.00    -0.079 N 
ATOM     18  H13 UNL     1       7.211   7.523  12.296  1.00  0.00     0.274 HD
ATOM     19  H12 UNL     1       7.262   8.121  10.878  1.00  0.00     0.274 HD
ATOM     20  H11 UNL     1       6.788   9.158  12.134  1.00  0.00     0.274 HD
ENDBRANCH  16  17
ENDBRANCH  15  16
ENDBRANCH  14  15
ENDBRANCH  13  14
ENDBRANCH  10  13
ENDBRANCH   9  10
ENDBRANCH   8   9
ENDBRANCH   7   8
ENDBRANCH   1   7
BRANCH   6  21
HETATM   21  O3  UNL     1       2.145  12.392   8.555  1.00  0.00    -0.390 OA
ATOM     22  H3  UNL     1       2.967  11.928   8.449  1.00  0.00     0.210 HD
ENDBRANCH   6  21
BRANCH   3  23
HETATM   23  N3  UNL     1      -1.496  15.084   8.898  1.00  0.00    -0.074 N 
ATOM     24  H33 UNL     1      -2.349  14.610   8.602  1.00  0.00     0.274 HD
ATOM     25  H32 UNL     1      -1.824  15.410   9.808  1.00  0.00     0.274 HD
ATOM     26  H31 UNL     1      -1.241  15.852   8.277  1.00  0.00     0.274 HD
ENDBRANCH   3  23
BRANCH   5  27
HETATM   27  O2  UNL     1       1.548  14.391  11.398  1.00  0.00    -0.392 OA
ATOM     28  H2  UNL     1       0.997  13.736  11.810  1.00  0.00     0.210 HD
ENDBRANCH   5  27
BRANCH   4  29
HETATM   29  C11 UNL     1       0.966  16.313   9.259  1.00  0.00     0.238 C 
BRANCH  29  30
HETATM   30  N4  UNL     1       1.962  16.849  10.115  1.00  0.00    -0.079 N 
ATOM     31  H43 UNL     1       1.667  17.767  10.448  1.00  0.00     0.274 HD
ATOM     32  H42 UNL     1       1.974  16.327  10.991  1.00  0.00     0.274 HD
ATOM     33  H41 UNL     1       2.909  16.910   9.742  1.00  0.00     0.274 HD
ENDBRANCH  29  30
ENDBRANCH   4  29
TORSDOF 14
ENDMDL
MODEL 4
REMARK VINA RESULT: -5.472075306      4.525      5.767
REMARK  14 active torsions:
REMARK  status: ('A' for Active; 'I' for Inactive)
REMARK    1  A    between atoms: N1_1  and  C1_5 
REMARK    2  A    between atoms: C1_5  and  C2_6 
REMARK    3  A    between atoms: C2_6  and  C3_7 
REMARK    4  A    between atoms: C3_7  and  C4_8 
REMARK    5  A    between atoms: C4_8  and  N2_9 
REMARK    6  A    between atoms: N2_9  and  C5_12 
REMARK    7  A    between atoms: C5_12  and  C6_13 
REMARK    8  A    between atoms: C6_13  and  O1_14 
REMARK    9  A    between atoms: O1_14  and  C7_15 
REMARK   10  A    between atoms: C9_17  and  N3_18 
REMARK   11  A    between atoms: C10_22  and  C11_23 
REMARK   12  A    between atoms: C11_23  and  N4_24 
REMARK   13  A    between atoms: C12_28  and  O2_29 
REMARK   14  A    between atoms: C13_31  and  O3_32 
ROOT
HETATM    1  C7  UNL     1       1.992  13.932   9.352  1.00  0.00     0.154 C 
HETATM    2  C8  UNL     1       1.328  14.059  10.713  1.00  0.00     0.068 C 
HETATM    3  C9  UNL     1      -0.073  14.665  10.595  1.00  0.00     0.194 C 
HETATM    4  C10 UNL     1      -0.049  16.006   9.957  1.00  0.00     0.073 C 
HETATM    5  C12 UNL     1       1.294  16.263   9.272  1.00  0.00     0.157 C 
HETATM    6  C13 UNL     1       1.670  15.058   8.440  1.00  0.00     0.176 C 
ENDROOT
BRANCH   1   7
HETATM    7  O1  UNL     1       1.777  12.657   8.815  1.00  0.00    -0.382 OA
BRANCH   7   8
HETATM    8  C6  UNL     1       1.829  11.639   9.726  1.00  0.00     0.196 C 
BRANCH   8   9
HETATM    9  C5  UNL     1       2.676  10.460   9.347  1.00  0.00     0.258 C 
BRANCH   9  10
HETATM   10  N2  UNL     1       1.935   9.241   9.314  1.00  0.00    -0.073 N 
ATOM     11  H22 UNL     1       1.739   8.970   8.351  1.00  0.00     0.277 HD
ATOM     12  H21 UNL     1       0.983   9.394   9.649  1.00  0.00     0.277 HD
BRANCH  10  13
HETATM   13  C4  UNL     1       2.541   8.165  10.019  1.00  0.00     0.232 C 
BRANCH  13  14
HETATM   14  C3  UNL     1       3.912   7.860   9.504  1.00  0.00     0.029 C 
BRANCH  14  15
HETATM   15  C2  UNL     1       4.900   7.567  10.578  1.00  0.00     0.029 C 
BRANCH  15  16
HETATM   16  C1  UNL     1       5.905   6.525  10.161  1.00  0.00     0.229 C 
BRANCH  16  17
HETATM   17  N1  UNL     1       7.091   6.641  11.018  1.00  0.00    -0.079 N 
ATOM     18  H13 UNL     1       7.579   5.752  11.129  1.00  0.00     0.274 HD
ATOM     19  H12 UNL     1       7.845   7.162  10.571  1.00  0.00     0.274 HD
ATOM     20  H11 UNL     1       6.812   7.048  11.912  1.00  0.00     0.274 HD
ENDBRANCH  16  17
ENDBRANCH  15  16
ENDBRANCH  14  15
ENDBRANCH  13  14
ENDBRANCH  10  13
ENDBRANCH   9  10
ENDBRANCH   8   9
ENDBRANCH   7   8
ENDBRANCH   1   7
BRANCH   6  21
HETATM   21  O3  UNL     1       0.641  14.803   7.551  1.00  0.00    -0.390 OA
ATOM     22  H3  UNL     1      -0.125  14.395   7.940  1.00  0.00     0.210 HD
ENDBRANCH   6  21
BRANCH   3  23
HETATM   23  N3  UNL     1      -0.707  14.613  11.884  1.00  0.00    -0.074 N 
ATOM     24  H33 UNL     1      -1.631  14.183  11.847  1.00  0.00     0.274 HD
ATOM     25  H32 UNL     1      -0.263  13.941  12.510  1.00  0.00     0.274 HD
ATOM     26  H31 UNL     1      -0.730  15.555  12.275  1.00  0.00     0.274 HD
ENDBRANCH   3  23
BRANCH   5  27
HETATM   27  O2  UNL     1       2.320  16.541  10.118  1.00  0.00    -0.392 OA
ATOM     28  H2  UNL     1       2.991  15.870  10.163  1.00  0.00     0.210 HD
ENDBRANCH   5  27
BRANCH   4  29
HETATM   29  C11 UNL     1      -0.470  17.153  10.792  1.00  0.00     0.238 C 
BRANCH  29  30
HETATM   30  N4  UNL     1       0.383  17.513  11.868  1.00  0.00    -0.079 N 
ATOM     31  H43 UNL     1       1.088  16.787  12.001  1.00  0.00     0.274 HD
ATOM     32  H42 UNL     1       0.971  18.297  11.587  1.00  0.00     0.274 HD
ATOM     33  H41 UNL     1      -0.062  17.723  12.761  1.00  0.00     0.274 HD
ENDBRANCH  29  30
ENDBRANCH   4  29
TORSDOF 14
ENDMDL
MODEL 5
REMARK VINA RESULT: -5.465969983      3.279      4.884
REMARK  14 active torsions:
REMARK  status: ('A' for Active; 'I' for Inactive)
REMARK    1  A    between atoms: N1_1  and  C1_5 
REMARK    2  A    between atoms: C1_5  and  C2_6 
REMARK    3  A    between atoms: C2_6  and  C3_7 
REMARK    4  A    between atoms: C3_7  and  C4_8 
REMARK    5  A    between atoms: C4_8  and  N2_9 
REMARK    6  A    between atoms: N2_9  and  C5_12 
REMARK    7  A    between atoms: C5_12  and  C6_13 
REMARK    8  A    between atoms: C6_13  and  O1_14 
REMARK    9  A    between atoms: O1_14  and  C7_15 
REMARK   10  A    between atoms: C9_17  and  N3_18 
REMARK   11  A    between atoms: C10_22  and  C11_23 
REMARK   12  A    between atoms: C11_23  and  N4_24 
REMARK   13  A    between atoms: C12_28  and  O2_29 
REMARK   14  A    between atoms: C13_31  and  O3_32 
ROOT
HETATM    1  C7  UNL     1       1.957  13.897   8.997  1.00  0.00     0.154 C 
HETATM    2  C8  UNL     1       1.805  14.190  10.479  1.00  0.00     0.068 C 
HETATM    3  C9  UNL     1       0.366  14.582  10.826  1.00  0.00     0.194 C 
HETATM    4  C10 UNL     1      -0.087  15.773  10.063  1.00  0.00     0.073 C 
HETATM    5  C12 UNL     1       0.855  16.066   8.894  1.00  0.00     0.157 C 
HETATM    6  C13 UNL     1       1.130  14.784   8.141  1.00  0.00     0.176 C 
ENDROOT
BRANCH   1   7
HETATM    7  O1  UNL     1       1.808  12.528   8.746  1.00  0.00    -0.382 OA
BRANCH   7   8
HETATM    8  C6  UNL     1       2.078  11.720   9.815  1.00  0.00     0.196 C 
BRANCH   8   9
HETATM    9  C5  UNL     1       2.514  10.322   9.489  1.00  0.00     0.258 C 
BRANCH   9  10
HETATM   10  N2  UNL     1       1.412   9.453   9.224  1.00  0.00    -0.073 N 
ATOM     11  H22 UNL     1       1.698   8.479   9.319  1.00  0.00     0.277 HD
ATOM     12  H21 UNL     1       1.177   9.471   8.232  1.00  0.00     0.277 HD
BRANCH  10  13
HETATM   13  C4  UNL     1       0.257   9.711  10.013  1.00  0.00     0.232 C 
BRANCH  13  14
HETATM   14  C3  UNL     1      -0.992   9.227   9.350  1.00  0.00     0.029 C 
BRANCH  14  15
HETATM   15  C2  UNL     1      -2.095  10.227   9.357  1.00  0.00     0.029 C 
BRANCH  15  16
HETATM   16  C1  UNL     1      -1.612  11.607   9.720  1.00  0.00     0.229 C 
BRANCH  16  17
HETATM   17  N1  UNL     1      -2.358  12.594   8.930  1.00  0.00    -0.079 N 
ATOM     18  H13 UNL     1      -1.753  13.313   8.533  1.00  0.00     0.274 HD
ATOM     19  H12 UNL     1      -2.710  12.206   8.055  1.00  0.00     0.274 HD
ATOM     20  H11 UNL     1      -3.101  12.985   9.510  1.00  0.00     0.274 HD
ENDBRANCH  16  17
ENDBRANCH  15  16
ENDBRANCH  14  15
ENDBRANCH  13  14
ENDBRANCH  10  13
ENDBRANCH   9  10
ENDBRANCH   8   9
ENDBRANCH   7   8
ENDBRANCH   1   7
BRANCH   6  21
HETATM   21  O3  UNL     1      -0.080  14.241   7.748  1.00  0.00    -0.390 OA
ATOM     22  H3  UNL     1      -0.009  13.421   7.273  1.00  0.00     0.210 HD
ENDBRANCH   6  21
BRANCH   3  23
HETATM   23  N3  UNL     1       0.250  14.690  12.254  1.00  0.00    -0.074 N 
ATOM     24  H33 UNL     1       0.689  13.910  12.742  1.00  0.00     0.274 HD
ATOM     25  H32 UNL     1       0.828  15.439  12.637  1.00  0.00     0.274 HD
ATOM     26  H31 UNL     1      -0.736  14.796  12.495  1.00  0.00     0.274 HD
ENDBRANCH   3  23
BRANCH   5  27
HETATM   27  O2  UNL     1       2.043  16.623   9.247  1.00  0.00    -0.392 OA
ATOM     28  H2  UNL     1       2.802  16.074   9.090  1.00  0.00     0.210 HD
ENDBRANCH   5  27
BRANCH   4  29
HETATM   29  C11 UNL     1      -0.391  16.992  10.844  1.00  0.00     0.238 C 
BRANCH  29  30
HETATM   30  N4  UNL     1       0.703  17.647  11.468  1.00  0.00    -0.079 N 
ATOM     31  H43 UNL     1       0.662  17.494  12.475  1.00  0.00     0.274 HD
ATOM     32  H42 UNL     1       1.567  17.157  11.238  1.00  0.00     0.274 HD
ATOM     33  H41 UNL     1       0.815  18.643  11.279  1.00  0.00     0.274 HD
ENDBRANCH  29  30
ENDBRANCH   4  29
TORSDOF 14
ENDMDL
