MODEL 1
REMARK VINA RESULT: -6.233975792      0.000      0.000
REMARK  10 active torsions:
REMARK  status: ('A' for Active; 'I' for Inactive)
REMARK    1  A    between atoms: C1_4  and  O1_6 
REMARK    2  A    between atoms: O1_6  and  C2_7 
REMARK    3  A    between atoms: C2_7  and  C3_8 
REMARK    4  A    between atoms: C3_8  and  O2_9 
REMARK    5  A    between atoms: O2_9  and  C4_10 
REMARK    6  A    between atoms: C4_10  and  C5_11 
REMARK    7  A    between atoms: C5_11  and  O3_12 
REMARK    8  A    between atoms: O3_12  and  C6_13 
REMARK    9  A    between atoms: C6_13  and  N3_14 
REMARK   10  A    between atoms: C8_19  and  N6_20 
ROOT
HETATM    1  N3  UNL     1      -0.791  16.213  12.400  1.00  0.00    -0.250 N 
HETATM    2  C7  UNL     1      -0.874  17.195  11.506  1.00  0.00     0.214 A 
HETATM    3  N4  UNL     1      -0.142  17.223  10.283  1.00  0.00    -0.062 NA
HETATM    4  N5  UNL     1      -1.703  18.229  11.769  1.00  0.00    -0.163 N 
ATOM      5  H5  UNL     1      -1.791  18.998  11.104  1.00  0.00     0.187 HD
HETATM    6  C8  UNL     1      -2.409  18.240  12.907  1.00  0.00     0.682 A 
HETATM    7  N7  UNL     1      -2.335  17.246  13.829  1.00  0.00    -0.141 N 
ATOM      8  H7  UNL     1      -2.880  17.269  14.690  1.00  0.00     0.189 HD
HETATM    9  C9  UNL     1      -1.497  16.221  13.542  1.00  0.00     0.344 A 
HETATM   10  O4  UNL     1      -1.424  15.294  14.393  1.00  0.00    -0.246 OA
ENDROOT
BRANCH   1  11
HETATM   11  C6  UNL     1       0.096  15.101  12.124  1.00  0.00     0.306 C 
BRANCH  11  12
HETATM   12  O3  UNL     1      -0.606  14.178  11.368  1.00  0.00    -0.369 OA
BRANCH  12  13
HETATM   13  C5  UNL     1       0.223  13.433  10.534  1.00  0.00     0.196 C 
BRANCH  13  14
HETATM   14  C4  UNL     1       1.653  13.768  10.869  1.00  0.00     0.193 C 
BRANCH  14  15
HETATM   15  O2  UNL     1       2.445  14.009   9.775  1.00  0.00    -0.387 OA
BRANCH  15  16
HETATM   16  C3  UNL     1       3.034  15.245   9.733  1.00  0.00     0.194 C 
BRANCH  16  17
HETATM   17  C2  UNL     1       2.750  15.846   8.366  1.00  0.00     0.204 C 
BRANCH  17  18
HETATM   18  O1  UNL     1       2.673  14.884   7.354  1.00  0.00    -0.323 OA
BRANCH  18  19
HETATM   19  C1  UNL     1       1.506  14.586   6.671  1.00  0.00     0.225 C 
HETATM   20  N1  UNL     1       0.453  14.331   7.384  1.00  0.00    -0.368 N 
ATOM     21  H12 UNL     1      -0.407  14.111   6.880  1.00  0.00     0.159 HD
ATOM     22  H11 UNL     1       0.472  14.344   8.404  1.00  0.00     0.159 HD
HETATM   23  N2  UNL     1       1.478  14.567   5.249  1.00  0.00    -0.057 NA
ENDBRANCH  18  19
ENDBRANCH  17  18
ENDBRANCH  16  17
ENDBRANCH  15  16
ENDBRANCH  14  15
ENDBRANCH  13  14
ENDBRANCH  12  13
ENDBRANCH  11  12
ENDBRANCH   1  11
BRANCH   6  24
HETATM   24  N6  UNL     1      -3.223  19.210  13.213  1.00  0.00    -0.234 N 
ATOM     25  H62 UNL     1      -2.768  20.089  13.460  1.00  0.00     0.174 HD
ATOM     26  H61 UNL     1      -4.237  19.095  13.206  1.00  0.00     0.174 HD
ENDBRANCH   6  24
TORSDOF 10
ENDMDL
MODEL 2
REMARK VINA RESULT: -6.142935387      2.816      4.475
REMARK  10 active torsions:
REMARK  status: ('A' for Active; 'I' for Inactive)
REMARK    1  A    between atoms: C1_4  and  O1_6 
REMARK    2  A    between atoms: O1_6  and  C2_7 
REMARK    3  A    between atoms: C2_7  and  C3_8 
REMARK    4  A    between atoms: C3_8  and  O2_9 
REMARK    5  A    between atoms: O2_9  and  C4_10 
REMARK    6  A    between atoms: C4_10  and  C5_11 
REMARK    7  A    between atoms: C5_11  and  O3_12 
REMARK    8  A    between atoms: O3_12  and  C6_13 
REMARK    9  A    between atoms: C6_13  and  N3_14 
REMARK   10  A    between atoms: C8_19  and  N6_20 
ROOT
HETATM    1  N3  UNL     1      -2.233  13.991  10.042  1.00  0.00    -0.250 N 
HETATM    2  C7  UNL     1      -2.169  13.460  11.261  1.00  0.00     0.214 A 
HETATM    3  N4  UNL     1      -2.000  14.221  12.454  1.00  0.00    -0.062 NA
HETATM    4  N5  UNL     1      -2.272  12.117  11.378  1.00  0.00    -0.163 N 
ATOM      5  H5  UNL     1      -2.228  11.678  12.298  1.00  0.00     0.187 HD
HETATM    6  C8  UNL     1      -2.433  11.366  10.280  1.00  0.00     0.682 A 
HETATM    7  N7  UNL     1      -2.500  11.893   9.031  1.00  0.00    -0.141 N 
ATOM      8  H7  UNL     1      -2.623  11.307   8.206  1.00  0.00     0.189 HD
HETATM    9  C9  UNL     1      -2.394  13.240   8.940  1.00  0.00     0.344 A 
HETATM   10  O4  UNL     1      -2.456  13.736   7.783  1.00  0.00    -0.246 OA
ENDROOT
BRANCH   1  11
HETATM   11  C6  UNL     1      -2.123  15.429   9.909  1.00  0.00     0.306 C 
BRANCH  11  12
HETATM   12  O3  UNL     1      -0.805  15.727   9.609  1.00  0.00    -0.369 OA
BRANCH  12  13
HETATM   13  C5  UNL     1      -0.343  16.848  10.293  1.00  0.00     0.196 C 
BRANCH  13  14
HETATM   14  C4  UNL     1       1.163  16.833  10.258  1.00  0.00     0.193 C 
BRANCH  14  15
HETATM   15  O2  UNL     1       1.712  15.577  10.208  1.00  0.00    -0.387 OA
BRANCH  15  16
HETATM   16  C3  UNL     1       2.985  15.509   9.706  1.00  0.00     0.194 C 
BRANCH  16  17
HETATM   17  C2  UNL     1       2.930  15.930   8.247  1.00  0.00     0.204 C 
BRANCH  17  18
HETATM   18  O1  UNL     1       2.754  14.850   7.375  1.00  0.00    -0.323 OA
BRANCH  18  19
HETATM   19  C1  UNL     1       1.538  14.531   6.792  1.00  0.00     0.225 C 
HETATM   20  N1  UNL     1       0.549  14.274   7.591  1.00  0.00    -0.368 N 
ATOM     21  H12 UNL     1      -0.346  14.038   7.161  1.00  0.00     0.159 HD
ATOM     22  H11 UNL     1       0.650  14.302   8.606  1.00  0.00     0.159 HD
HETATM   23  N2  UNL     1       1.397  14.491   5.377  1.00  0.00    -0.057 NA
ENDBRANCH  18  19
ENDBRANCH  17  18
ENDBRANCH  16  17
ENDBRANCH  15  16
ENDBRANCH  14  15
ENDBRANCH  13  14
ENDBRANCH  12  13
ENDBRANCH  11  12
ENDBRANCH   1  11
BRANCH   6  24
HETATM   24  N6  UNL     1      -2.538  10.069  10.333  1.00  0.00    -0.234 N 
ATOM     25  H62 UNL     1      -2.485   9.673  11.272  1.00  0.00     0.174 HD
ATOM     26  H61 UNL     1      -2.662   9.496   9.498  1.00  0.00     0.174 HD
ENDBRANCH   6  24
TORSDOF 10
ENDMDL
MODEL 3
REMARK VINA RESULT: -6.087061270      1.648      2.009
REMARK  10 active torsions:
REMARK  status: ('A' for Active; 'I' for Inactive)
REMARK    1  A    between atoms: C1_4  and  O1_6 
REMARK    2  A    between atoms: O1_6  and  C2_7 
REMARK    3  A    between atoms: C2_7  and  C3_8 
REMARK    4  A    between atoms: C3_8  and  O2_9 
REMARK    5  A    between atoms: O2_9  and  C4_10 
REMARK    6  A    between atoms: C4_10  and  C5_11 
REMARK    7  A    between atoms: C5_11  and  O3_12 
REMARK    8  A    between atoms: O3_12  and  C6_13 
REMARK    9  A    between atoms: C6_13  and  N3_14 
REMARK   10  A    between atoms: C8_19  and  N6_20 
ROOT
HETATM    1  N3  UNL     1      -1.627  16.001  11.445  1.00  0.00    -0.250 N 
HETATM    2  C7  UNL     1      -1.047  17.173  11.196  1.00  0.00     0.214 A 
HETATM    3  N4  UNL     1       0.054  17.345  10.307  1.00  0.00    -0.062 NA
HETATM    4  N5  UNL     1      -1.531  18.269  11.821  1.00  0.00    -0.163 N 
ATOM      5  H5  UNL     1      -1.110  19.183  11.652  1.00  0.00     0.187 HD
HETATM    6  C8  UNL     1      -2.565  18.150  12.664  1.00  0.00     0.682 A 
HETATM    7  N7  UNL     1      -3.166  16.962  12.928  1.00  0.00    -0.141 N 
ATOM      8  H7  UNL     1      -3.953  16.889  13.572  1.00  0.00     0.189 HD
HETATM    9  C9  UNL     1      -2.664  15.878  12.289  1.00  0.00     0.344 A 
HETATM   10  O4  UNL     1      -3.218  14.772  12.530  1.00  0.00    -0.246 OA
ENDROOT
BRANCH   1  11
HETATM   11  C6  UNL     1      -1.114  14.822  10.778  1.00  0.00     0.306 C 
BRANCH  11  12
HETATM   12  O3  UNL     1      -1.750  14.719   9.552  1.00  0.00    -0.369 OA
BRANCH  12  13
HETATM   13  C5  UNL     1      -1.918  13.397   9.148  1.00  0.00     0.196 C 
BRANCH  13  14
HETATM   14  C4  UNL     1      -1.059  12.524  10.027  1.00  0.00     0.193 C 
BRANCH  14  15
HETATM   15  O2  UNL     1      -0.131  11.781   9.345  1.00  0.00    -0.387 OA
BRANCH  15  16
HETATM   16  C3  UNL     1       1.145  11.832   9.841  1.00  0.00     0.194 C 
BRANCH  16  17
HETATM   17  C2  UNL     1       1.796  13.100   9.313  1.00  0.00     0.204 C 
BRANCH  17  18
HETATM   18  O1  UNL     1       1.755  13.193   7.918  1.00  0.00    -0.323 OA
BRANCH  18  19
HETATM   19  C1  UNL     1       1.299  14.312   7.241  1.00  0.00     0.225 C 
HETATM   20  N1  UNL     1       0.923  15.324   7.959  1.00  0.00    -0.368 N 
ATOM     21  H12 UNL     1       0.587  16.149   7.460  1.00  0.00     0.159 HD
ATOM     22  H11 UNL     1       0.956  15.308   8.979  1.00  0.00     0.159 HD
HETATM   23  N2  UNL     1       1.254  14.335   5.819  1.00  0.00    -0.057 NA
ENDBRANCH  18  19
ENDBRANCH  17  18
ENDBRANCH  16  17
ENDBRANCH  15  16
ENDBRANCH  14  15
ENDBRANCH  13  14
ENDBRANCH  12  13
ENDBRANCH  11  12
ENDBRANCH   1  11
BRANCH   6  24
HETATM   24  N6  UNL     1      -3.071  19.172  13.294  1.00  0.00    -0.234 N 
ATOM     25  H62 UNL     1      -2.955  19.151  14.307  1.00  0.00     0.174 HD
ATOM     26  H61 UNL     1      -3.548  19.931  12.808  1.00  0.00     0.174 HD
ENDBRANCH   6  24
TORSDOF 10
ENDMDL
MODEL 4
REMARK VINA RESULT: -6.009512955      1.258      1.929
REMARK  10 active torsions:
REMARK  status: ('A' for Active; 'I' for Inactive)
REMARK    1  A    between atoms: C1_4  and  O1_6 
REMARK    2  A    between atoms: O1_6  and  C2_7 
REMARK    3  A    between atoms: C2_7  and  C3_8 
REMARK    4  A    between atoms: C3_8  and  O2_9 
REMARK    5  A    between atoms: O2_9  and  C4_10 
REMARK    6  A    between atoms: C4_10  and  C5_11 
REMARK    7  A    between atoms: C5_11  and  O3_12 
REMARK    8  A    between atoms: O3_12  and  C6_13 
REMARK    9  A    between atoms: C6_13  and  N3_14 
REMARK   10  A    between atoms: C8_19  and  N6_20 
ROOT
HETATM    1  N3  UNL     1      -1.692  16.072  11.443  1.00  0.00    -0.250 N 
HETATM    2  C7  UNL     1      -2.636  15.838  12.352  1.00  0.00     0.214 A 
HETATM    3  N4  UNL     1      -3.138  14.541  12.664  1.00  0.00    -0.062 NA
HETATM    4  N5  UNL     1      -3.150  16.892  13.024  1.00  0.00    -0.163 N 
ATOM      5  H5  UNL     1      -3.874  16.748  13.728  1.00  0.00     0.187 HD
HETATM    6  C8  UNL     1      -2.705  18.128  12.760  1.00  0.00     0.682 A 
HETATM    7  N7  UNL     1      -1.743  18.382  11.835  1.00  0.00    -0.141 N 
ATOM      8  H7  UNL     1      -1.415  19.329  11.648  1.00  0.00     0.189 HD
HETATM    9  C9  UNL     1      -1.244  17.309  11.176  1.00  0.00     0.344 A 
HETATM   10  O4  UNL     1      -0.351  17.538  10.317  1.00  0.00    -0.246 OA
ENDROOT
BRANCH   1  11
HETATM   11  C6  UNL     1      -1.137  14.947  10.720  1.00  0.00     0.306 C 
BRANCH  11  12
HETATM   12  O3  UNL     1      -0.087  14.441  11.467  1.00  0.00    -0.369 OA
BRANCH  12  13
HETATM   13  C5  UNL     1       0.459  13.289  10.906  1.00  0.00     0.196 C 
BRANCH  13  14
HETATM   14  C4  UNL     1       1.959  13.440  10.888  1.00  0.00     0.193 C 
BRANCH  14  15
HETATM   15  O2  UNL     1       2.458  13.947   9.716  1.00  0.00    -0.387 OA
BRANCH  15  16
HETATM   16  C3  UNL     1       2.885  15.248   9.770  1.00  0.00     0.194 C 
BRANCH  16  17
HETATM   17  C2  UNL     1       2.779  15.827   8.369  1.00  0.00     0.204 C 
BRANCH  17  18
HETATM   18  O1  UNL     1       2.664  14.844   7.380  1.00  0.00    -0.323 OA
BRANCH  18  19
HETATM   19  C1  UNL     1       1.481  14.563   6.718  1.00  0.00     0.225 C 
HETATM   20  N1  UNL     1       0.438  14.320   7.450  1.00  0.00    -0.368 N 
ATOM     21  H12 UNL     1      -0.434  14.112   6.962  1.00  0.00     0.159 HD
ATOM     22  H11 UNL     1       0.476  14.332   8.469  1.00  0.00     0.159 HD
HETATM   23  N2  UNL     1       1.427  14.546   5.297  1.00  0.00    -0.057 NA
ENDBRANCH  18  19
ENDBRANCH  17  18
ENDBRANCH  16  17
ENDBRANCH  15  16
ENDBRANCH  14  15
ENDBRANCH  13  14
ENDBRANCH  12  13
ENDBRANCH  11  12
ENDBRANCH   1  11
BRANCH   6  24
HETATM   24  N6  UNL     1      -3.164  19.180  13.376  1.00  0.00    -0.234 N 
ATOM     25  H62 UNL     1      -4.053  19.530  13.021  1.00  0.00     0.174 HD
ATOM     26  H61 UNL     1      -2.667  19.618  14.152  1.00  0.00     0.174 HD
ENDBRANCH   6  24
TORSDOF 10
ENDMDL
MODEL 5
REMARK VINA RESULT: -5.870307523      1.036      1.278
REMARK  10 active torsions:
REMARK  status: ('A' for Active; 'I' for Inactive)
REMARK    1  A    between atoms: C1_4  and  O1_6 
REMARK    2  A    between atoms: O1_6  and  C2_7 
REMARK    3  A    between atoms: C2_7  and  C3_8 
REMARK    4  A    between atoms: C3_8  and  O2_9 
REMARK    5  A    between atoms: O2_9  and  C4_10 
REMARK    6  A    between atoms: C4_10  and  C5_11 
REMARK    7  A    between atoms: C5_11  and  O3_12 
REMARK    8  A    between atoms: O3_12  and  C6_13 
REMARK    9  A    between atoms: C6_13  and  N3_14 
REMARK   10  A    between atoms: C8_19  and  N6_20 
ROOT
HETATM    1  N3  UNL     1      -1.032  16.233  12.246  1.00  0.00    -0.250 N 
HETATM    2  C7  UNL     1      -1.072  17.300  11.452  1.00  0.00     0.214 A 
HETATM    3  N4  UNL     1      -0.375  17.398  10.212  1.00  0.00    -0.062 NA
HETATM    4  N5  UNL     1      -1.820  18.356  11.840  1.00  0.00    -0.163 N 
ATOM      5  H5  UNL     1      -1.874  19.189  11.254  1.00  0.00     0.187 HD
HETATM    6  C8  UNL     1      -2.491  18.304  12.999  1.00  0.00     0.682 A 
HETATM    7  N7  UNL     1      -2.459  17.223  13.820  1.00  0.00    -0.141 N 
ATOM      8  H7  UNL     1      -2.977  17.199  14.698  1.00  0.00     0.189 HD
HETATM    9  C9  UNL     1      -1.703  16.177  13.408  1.00  0.00     0.344 A 
HETATM   10  O4  UNL     1      -1.670  15.170  14.165  1.00  0.00    -0.246 OA
ENDROOT
BRANCH   1  11
HETATM   11  C6  UNL     1      -0.232  15.097  11.836  1.00  0.00     0.306 C 
BRANCH  11  12
HETATM   12  O3  UNL     1      -1.035  14.270  11.069  1.00  0.00    -0.369 OA
BRANCH  12  13
HETATM   13  C5  UNL     1      -0.709  12.924  11.217  1.00  0.00     0.196 C 
BRANCH  13  14
HETATM   14  C4  UNL     1       0.718  12.835  11.693  1.00  0.00     0.193 C 
BRANCH  14  15
HETATM   15  O2  UNL     1       1.511  12.007  10.940  1.00  0.00    -0.387 OA
BRANCH  15  16
HETATM   16  C3  UNL     1       1.735  12.415   9.652  1.00  0.00     0.194 C 
BRANCH  16  17
HETATM   17  C2  UNL     1       2.323  13.815   9.707  1.00  0.00     0.204 C 
BRANCH  17  18
HETATM   18  O1  UNL     1       2.316  14.458   8.466  1.00  0.00    -0.323 OA
BRANCH  18  19
HETATM   19  C1  UNL     1       1.177  14.613   7.693  1.00  0.00     0.225 C 
HETATM   20  N1  UNL     1       0.133  15.119   8.274  1.00  0.00    -0.368 N 
ATOM     21  H12 UNL     1      -0.706  15.233   7.704  1.00  0.00     0.159 HD
ATOM     22  H11 UNL     1       0.139  15.394   9.256  1.00  0.00     0.159 HD
HETATM   23  N2  UNL     1       1.168  14.231   6.323  1.00  0.00    -0.057 NA
ENDBRANCH  18  19
ENDBRANCH  17  18
ENDBRANCH  16  17
ENDBRANCH  15  16
ENDBRANCH  14  15
ENDBRANCH  13  14
ENDBRANCH  12  13
ENDBRANCH  11  12
ENDBRANCH   1  11
BRANCH   6  24
HETATM   24  N6  UNL     1      -3.227  19.291  13.423  1.00  0.00    -0.234 N 
ATOM     25  H62 UNL     1      -3.096  20.169  12.920  1.00  0.00     0.174 HD
ATOM     26  H61 UNL     1      -3.881  19.190  14.199  1.00  0.00     0.174 HD
ENDBRANCH   6  24
TORSDOF 10
ENDMDL
