MODEL 1
REMARK VINA RESULT: -5.556914911      0.000      0.000
REMARK  12 active torsions:
REMARK  status: ('A' for Active; 'I' for Inactive)
REMARK    1  A    between atoms: N1_1  and  C1_5 
REMARK    2  A    between atoms: C1_5  and  C2_6 
REMARK    3  A    between atoms: C2_6  and  C3_7 
REMARK    4  A    between atoms: C3_7  and  S1_8 
REMARK    5  A    between atoms: S1_8  and  C4_9 
REMARK    6  A    between atoms: C7_18  and  C8_19 
REMARK    7  A    between atoms: C8_19  and  O3_20 
REMARK    8  A    between atoms: O3_20  and  C9_21 
REMARK    9  A    between atoms: C9_21  and  C10_22 
REMARK   10  A    between atoms: C10_22  and  N4_23 
REMARK   11  A    between atoms: C10_22  and  C11_27 
REMARK   12  A    between atoms: C11_27  and  N5_28 
ROOT
HETATM    1  C4  UNL     1       1.002  13.466   8.927  1.00  0.00     0.091 A 
HETATM    2  N2  UNL     1       1.273  13.327   7.628  1.00  0.00    -0.302 N 
ATOM      3  H2  UNL     1       1.380  12.383   7.258  1.00  0.00     0.171 HD
HETATM    4  C5  UNL     1       1.414  14.369   6.774  1.00  0.00     0.328 A 
HETATM    5  O1  UNL     1       1.668  14.208   5.556  1.00  0.00    -0.247 OA
HETATM    6  N3  UNL     1       1.273  15.611   7.258  1.00  0.00    -0.275 N 
ATOM      7  H3  UNL     1       1.377  16.404   6.624  1.00  0.00     0.173 HD
HETATM    8  C6  UNL     1       0.994  15.850   8.581  1.00  0.00     0.264 A 
HETATM    9  O2  UNL     1       0.881  17.023   8.985  1.00  0.00    -0.267 OA
HETATM   10  C7  UNL     1       0.854  14.791   9.427  1.00  0.00     0.087 A 
ENDROOT
BRANCH  10  11
HETATM   11  C8  UNL     1       0.623  14.890  10.856  1.00  0.00     0.154 C 
BRANCH  11  12
HETATM   12  O3  UNL     1      -0.540  15.127  11.430  1.00  0.00    -0.360 OA
BRANCH  12  13
HETATM   13  C9  UNL     1      -0.715  15.313  12.746  1.00  0.00     0.209 C 
BRANCH  13  14
HETATM   14  C10 UNL     1      -0.620  16.775  13.180  1.00  0.00     0.232 C 
BRANCH  14  15
HETATM   15  N4  UNL     1      -0.888  16.806  14.605  1.00  0.00    -0.071 N 
ATOM     16  H43 UNL     1      -1.078  17.744  14.959  1.00  0.00     0.274 HD
ATOM     17  H42 UNL     1      -1.786  16.390  14.855  1.00  0.00     0.274 HD
ATOM     18  H41 UNL     1      -0.095  16.356  15.062  1.00  0.00     0.274 HD
ENDBRANCH  14  15
BRANCH  14  19
HETATM   19  C11 UNL     1      -1.619  17.643  12.493  1.00  0.00     0.264 C 
BRANCH  19  20
HETATM   20  N5  UNL     1      -1.049  18.060  11.224  1.00  0.00    -0.077 N 
ATOM     21  H53 UNL     1      -0.411  17.368  10.831  1.00  0.00     0.274 HD
ATOM     22  H52 UNL     1      -1.731  18.062  10.466  1.00  0.00     0.274 HD
ATOM     23  H51 UNL     1      -0.608  18.969  11.363  1.00  0.00     0.274 HD
ENDBRANCH  19  20
ENDBRANCH  14  19
ENDBRANCH  13  14
ENDBRANCH  12  13
ENDBRANCH  11  12
ENDBRANCH  10  11
BRANCH   1  24
HETATM   24  S1  UNL     1       0.824  12.111  10.041  1.00  0.00    -0.111 SA
BRANCH  24  25
HETATM   25  C3  UNL     1      -0.833  11.658  10.451  1.00  0.00     0.082 C 
BRANCH  25  26
HETATM   26  C2  UNL     1      -1.840  11.692   9.355  1.00  0.00     0.038 C 
BRANCH  26  27
HETATM   27  C1  UNL     1      -2.524  13.066   9.433  1.00  0.00     0.230 C 
BRANCH  27  28
HETATM   28  N1  UNL     1      -2.463  13.750   8.176  1.00  0.00    -0.079 N 
ATOM     29  H13 UNL     1      -1.505  13.814   7.831  1.00  0.00     0.274 HD
ATOM     30  H12 UNL     1      -2.863  13.188   7.424  1.00  0.00     0.274 HD
ATOM     31  H11 UNL     1      -2.903  14.668   8.232  1.00  0.00     0.274 HD
ENDBRANCH  27  28
ENDBRANCH  26  27
ENDBRANCH  25  26
ENDBRANCH  24  25
ENDBRANCH   1  24
TORSDOF 12
ENDMDL
MODEL 2
REMARK VINA RESULT: -5.482839695      1.948      2.522
REMARK  12 active torsions:
REMARK  status: ('A' for Active; 'I' for Inactive)
REMARK    1  A    between atoms: N1_1  and  C1_5 
REMARK    2  A    between atoms: C1_5  and  C2_6 
REMARK    3  A    between atoms: C2_6  and  C3_7 
REMARK    4  A    between atoms: C3_7  and  S1_8 
REMARK    5  A    between atoms: S1_8  and  C4_9 
REMARK    6  A    between atoms: C7_18  and  C8_19 
REMARK    7  A    between atoms: C8_19  and  O3_20 
REMARK    8  A    between atoms: O3_20  and  C9_21 
REMARK    9  A    between atoms: C9_21  and  C10_22 
REMARK   10  A    between atoms: C10_22  and  N4_23 
REMARK   11  A    between atoms: C10_22  and  C11_27 
REMARK   12  A    between atoms: C11_27  and  N5_28 
ROOT
HETATM    1  C4  UNL     1      -0.591  13.729   9.150  1.00  0.00     0.091 A 
HETATM    2  N2  UNL     1       0.499  13.640   8.387  1.00  0.00    -0.302 N 
ATOM      3  H2  UNL     1       0.779  12.718   8.054  1.00  0.00     0.171 HD
HETATM    4  C5  UNL     1       1.255  14.705   8.028  1.00  0.00     0.328 A 
HETATM    5  O1  UNL     1       2.276  14.591   7.307  1.00  0.00    -0.247 OA
HETATM    6  N3  UNL     1       0.889  15.920   8.464  1.00  0.00    -0.275 N 
ATOM      7  H3  UNL     1       1.451  16.729   8.200  1.00  0.00     0.173 HD
HETATM    8  C6  UNL     1      -0.217  16.107   9.255  1.00  0.00     0.264 A 
HETATM    9  O2  UNL     1      -0.511  17.254   9.641  1.00  0.00    -0.267 OA
HETATM   10  C7  UNL     1      -0.967  15.025   9.605  1.00  0.00     0.087 A 
ENDROOT
BRANCH  10  11
HETATM   11  C8  UNL     1      -2.122  15.060  10.484  1.00  0.00     0.154 C 
BRANCH  11  12
HETATM   12  O3  UNL     1      -2.109  15.416  11.753  1.00  0.00    -0.360 OA
BRANCH  12  13
HETATM   13  C9  UNL     1      -2.895  16.362  12.287  1.00  0.00     0.209 C 
BRANCH  13  14
HETATM   14  C10 UNL     1      -2.125  17.542  12.877  1.00  0.00     0.232 C 
BRANCH  14  15
HETATM   15  N4  UNL     1      -1.927  18.492  11.799  1.00  0.00    -0.071 N 
ATOM     16  H43 UNL     1      -1.017  18.402  11.346  1.00  0.00     0.274 HD
ATOM     17  H42 UNL     1      -2.499  18.294  10.978  1.00  0.00     0.274 HD
ATOM     18  H41 UNL     1      -2.091  19.419  12.191  1.00  0.00     0.274 HD
ENDBRANCH  14  15
BRANCH  14  19
HETATM   19  C11 UNL     1      -0.790  17.147  13.410  1.00  0.00     0.264 C 
BRANCH  19  20
HETATM   20  N5  UNL     1       0.202  17.452  12.395  1.00  0.00    -0.077 N 
ATOM     21  H53 UNL     1       0.814  16.662  12.189  1.00  0.00     0.274 HD
ATOM     22  H52 UNL     1      -0.202  17.555  11.464  1.00  0.00     0.274 HD
ATOM     23  H51 UNL     1       0.715  18.280  12.697  1.00  0.00     0.274 HD
ENDBRANCH  19  20
ENDBRANCH  14  19
ENDBRANCH  13  14
ENDBRANCH  12  13
ENDBRANCH  11  12
ENDBRANCH  10  11
BRANCH   1  24
HETATM   24  S1  UNL     1      -1.572  12.343   9.623  1.00  0.00    -0.111 SA
BRANCH  24  25
HETATM   25  C3  UNL     1      -0.684  10.909  10.149  1.00  0.00     0.082 C 
BRANCH  25  26
HETATM   26  C2  UNL     1      -1.174   9.588   9.667  1.00  0.00     0.038 C 
BRANCH  26  27
HETATM   27  C1  UNL     1       0.038   8.643   9.677  1.00  0.00     0.230 C 
BRANCH  27  28
HETATM   28  N1  UNL     1       1.233   9.326   9.281  1.00  0.00    -0.079 N 
ATOM     29  H13 UNL     1       2.054   8.953   9.760  1.00  0.00     0.274 HD
ATOM     30  H12 UNL     1       1.494   9.099   8.322  1.00  0.00     0.274 HD
ATOM     31  H11 UNL     1       1.146  10.333   9.417  1.00  0.00     0.274 HD
ENDBRANCH  27  28
ENDBRANCH  26  27
ENDBRANCH  25  26
ENDBRANCH  24  25
ENDBRANCH   1  24
TORSDOF 12
ENDMDL
MODEL 3
REMARK VINA RESULT: -5.466775925      2.310      5.364
REMARK  12 active torsions:
REMARK  status: ('A' for Active; 'I' for Inactive)
REMARK    1  A    between atoms: N1_1  and  C1_5 
REMARK    2  A    between atoms: C1_5  and  C2_6 
REMARK    3  A    between atoms: C2_6  and  C3_7 
REMARK    4  A    between atoms: C3_7  and  S1_8 
REMARK    5  A    between atoms: S1_8  and  C4_9 
REMARK    6  A    between atoms: C7_18  and  C8_19 
REMARK    7  A    between atoms: C8_19  and  O3_20 
REMARK    8  A    between atoms: O3_20  and  C9_21 
REMARK    9  A    between atoms: C9_21  and  C10_22 
REMARK   10  A    between atoms: C10_22  and  N4_23 
REMARK   11  A    between atoms: C10_22  and  C11_27 
REMARK   12  A    between atoms: C11_27  and  N5_28 
ROOT
HETATM    1  C4  UNL     1      -0.314  14.806  11.762  1.00  0.00     0.091 A 
HETATM    2  N2  UNL     1      -0.281  14.992  13.082  1.00  0.00    -0.302 N 
ATOM      3  H2  UNL     1      -0.064  14.191  13.675  1.00  0.00     0.171 HD
HETATM    4  C5  UNL     1      -0.521  16.183  13.680  1.00  0.00     0.328 A 
HETATM    5  O1  UNL     1      -0.482  16.329  14.925  1.00  0.00    -0.247 OA
HETATM    6  N3  UNL     1      -0.807  17.238  12.902  1.00  0.00    -0.275 N 
ATOM      7  H3  UNL     1      -0.988  18.141  13.341  1.00  0.00     0.173 HD
HETATM    8  C6  UNL     1      -0.863  17.141  11.534  1.00  0.00     0.264 A 
HETATM    9  O2  UNL     1      -1.141  18.147  10.856  1.00  0.00    -0.267 OA
HETATM   10  C7  UNL     1      -0.618  15.935  10.949  1.00  0.00     0.087 A 
ENDROOT
BRANCH  10  11
HETATM   11  C8  UNL     1      -0.704  15.666   9.525  1.00  0.00     0.154 C 
BRANCH  11  12
HETATM   12  O3  UNL     1      -0.151  16.392   8.574  1.00  0.00    -0.360 OA
BRANCH  12  13
HETATM   13  C9  UNL     1       1.133  16.777   8.558  1.00  0.00     0.209 C 
BRANCH  13  14
HETATM   14  C10 UNL     1       2.121  15.619   8.424  1.00  0.00     0.232 C 
BRANCH  14  15
HETATM   15  N4  UNL     1       3.369  16.065   9.013  1.00  0.00    -0.071 N 
ATOM     16  H43 UNL     1       3.585  17.041   8.807  1.00  0.00     0.274 HD
ATOM     17  H42 UNL     1       3.326  16.155  10.028  1.00  0.00     0.274 HD
ATOM     18  H41 UNL     1       4.091  15.419   8.696  1.00  0.00     0.274 HD
ENDBRANCH  14  15
BRANCH  14  19
HETATM   19  C11 UNL     1       2.377  15.245   7.003  1.00  0.00     0.264 C 
BRANCH  19  20
HETATM   20  N5  UNL     1       1.238  14.477   6.533  1.00  0.00    -0.077 N 
ATOM     21  H53 UNL     1       0.456  14.487   7.188  1.00  0.00     0.274 HD
ATOM     22  H52 UNL     1       0.762  14.916   5.746  1.00  0.00     0.274 HD
ATOM     23  H51 UNL     1       1.563  13.533   6.322  1.00  0.00     0.274 HD
ENDBRANCH  19  20
ENDBRANCH  14  19
ENDBRANCH  13  14
ENDBRANCH  12  13
ENDBRANCH  11  12
ENDBRANCH  10  11
BRANCH   1  24
HETATM   24  S1  UNL     1      -0.009  13.254  10.983  1.00  0.00    -0.111 SA
BRANCH  24  25
HETATM   25  C3  UNL     1       1.687  12.853  10.692  1.00  0.00     0.082 C 
BRANCH  25  26
HETATM   26  C2  UNL     1       2.005  12.090   9.454  1.00  0.00     0.038 C 
BRANCH  26  27
HETATM   27  C1  UNL     1       2.674  10.783   9.907  1.00  0.00     0.230 C 
BRANCH  27  28
HETATM   28  N1  UNL     1       2.511   9.749   8.928  1.00  0.00    -0.079 N 
ATOM     29  H13 UNL     1       2.049   8.929   9.322  1.00  0.00     0.274 HD
ATOM     30  H12 UNL     1       1.812  10.002   8.229  1.00  0.00     0.274 HD
ATOM     31  H11 UNL     1       3.401   9.505   8.495  1.00  0.00     0.274 HD
ENDBRANCH  27  28
ENDBRANCH  26  27
ENDBRANCH  25  26
ENDBRANCH  24  25
ENDBRANCH   1  24
TORSDOF 12
ENDMDL
MODEL 4
REMARK VINA RESULT: -5.441814389      1.845      2.639
REMARK  12 active torsions:
REMARK  status: ('A' for Active; 'I' for Inactive)
REMARK    1  A    between atoms: N1_1  and  C1_5 
REMARK    2  A    between atoms: C1_5  and  C2_6 
REMARK    3  A    between atoms: C2_6  and  C3_7 
REMARK    4  A    between atoms: C3_7  and  S1_8 
REMARK    5  A    between atoms: S1_8  and  C4_9 
REMARK    6  A    between atoms: C7_18  and  C8_19 
REMARK    7  A    between atoms: C8_19  and  O3_20 
REMARK    8  A    between atoms: O3_20  and  C9_21 
REMARK    9  A    between atoms: C9_21  and  C10_22 
REMARK   10  A    between atoms: C10_22  and  N4_23 
REMARK   11  A    between atoms: C10_22  and  C11_27 
REMARK   12  A    between atoms: C11_27  and  N5_28 
ROOT
HETATM    1  C4  UNL     1       0.026  13.701   9.221  1.00  0.00     0.091 A 
HETATM    2  N2  UNL     1       1.121  13.770   8.463  1.00  0.00    -0.302 N 
ATOM      3  H2  UNL     1       1.555  12.897   8.166  1.00  0.00     0.171 HD
HETATM    4  C5  UNL     1       1.687  14.934   8.064  1.00  0.00     0.328 A 
HETATM    5  O1  UNL     1       2.717  14.968   7.348  1.00  0.00    -0.247 OA
HETATM    6  N3  UNL     1       1.117  16.084   8.452  1.00  0.00    -0.275 N 
ATOM      7  H3  UNL     1       1.534  16.967   8.157  1.00  0.00     0.173 HD
HETATM    8  C6  UNL     1      -0.011  16.110   9.234  1.00  0.00     0.264 A 
HETATM    9  O2  UNL     1      -0.499  17.204   9.576  1.00  0.00    -0.267 OA
HETATM   10  C7  UNL     1      -0.569  14.930   9.625  1.00  0.00     0.087 A 
ENDROOT
BRANCH  10  11
HETATM   11  C8  UNL     1      -1.719  14.801  10.501  1.00  0.00     0.154 C 
BRANCH  11  12
HETATM   12  O3  UNL     1      -1.786  15.230  11.746  1.00  0.00    -0.360 OA
BRANCH  12  13
HETATM   13  C9  UNL     1      -2.716  16.077  12.211  1.00  0.00     0.209 C 
BRANCH  13  14
HETATM   14  C10 UNL     1      -2.136  17.323  12.878  1.00  0.00     0.232 C 
BRANCH  14  15
HETATM   15  N4  UNL     1      -2.080  18.353  11.858  1.00  0.00    -0.071 N 
ATOM     16  H43 UNL     1      -1.477  18.109  11.072  1.00  0.00     0.274 HD
ATOM     17  H42 UNL     1      -2.948  18.446  11.331  1.00  0.00     0.274 HD
ATOM     18  H41 UNL     1      -1.800  19.215  12.327  1.00  0.00     0.274 HD
ENDBRANCH  14  15
BRANCH  14  19
HETATM   19  C11 UNL     1      -0.759  17.103  13.404  1.00  0.00     0.264 C 
BRANCH  19  20
HETATM   20  N5  UNL     1       0.181  17.508  12.374  1.00  0.00    -0.077 N 
ATOM     21  H53 UNL     1      -0.199  18.218  11.748  1.00  0.00     0.274 HD
ATOM     22  H52 UNL     1       0.960  18.055  12.741  1.00  0.00     0.274 HD
ATOM     23  H51 UNL     1       0.485  16.669  11.881  1.00  0.00     0.274 HD
ENDBRANCH  19  20
ENDBRANCH  14  19
ENDBRANCH  13  14
ENDBRANCH  12  13
ENDBRANCH  11  12
ENDBRANCH  10  11
BRANCH   1  24
HETATM   24  S1  UNL     1      -0.708  12.187   9.747  1.00  0.00    -0.111 SA
BRANCH  24  25
HETATM   25  C3  UNL     1       0.409  10.863  10.093  1.00  0.00     0.082 C 
BRANCH  25  26
HETATM   26  C2  UNL     1       1.640  11.194  10.864  1.00  0.00     0.038 C 
BRANCH  26  27
HETATM   27  C1  UNL     1       2.830  10.826   9.964  1.00  0.00     0.230 C 
BRANCH  27  28
HETATM   28  N1  UNL     1       2.416  10.012   8.860  1.00  0.00    -0.079 N 
ATOM     29  H13 UNL     1       1.405   9.873   8.856  1.00  0.00     0.274 HD
ATOM     30  H12 UNL     1       2.510  10.507   7.974  1.00  0.00     0.274 HD
ATOM     31  H11 UNL     1       2.916   9.123   8.848  1.00  0.00     0.274 HD
ENDBRANCH  27  28
ENDBRANCH  26  27
ENDBRANCH  25  26
ENDBRANCH  24  25
ENDBRANCH   1  24
TORSDOF 12
ENDMDL
MODEL 5
REMARK VINA RESULT: -5.440413004      2.274      5.458
REMARK  12 active torsions:
REMARK  status: ('A' for Active; 'I' for Inactive)
REMARK    1  A    between atoms: N1_1  and  C1_5 
REMARK    2  A    between atoms: C1_5  and  C2_6 
REMARK    3  A    between atoms: C2_6  and  C3_7 
REMARK    4  A    between atoms: C3_7  and  S1_8 
REMARK    5  A    between atoms: S1_8  and  C4_9 
REMARK    6  A    between atoms: C7_18  and  C8_19 
REMARK    7  A    between atoms: C8_19  and  O3_20 
REMARK    8  A    between atoms: O3_20  and  C9_21 
REMARK    9  A    between atoms: C9_21  and  C10_22 
REMARK   10  A    between atoms: C10_22  and  N4_23 
REMARK   11  A    between atoms: C10_22  and  C11_27 
REMARK   12  A    between atoms: C11_27  and  N5_28 
ROOT
HETATM    1  C4  UNL     1      -1.690  13.841  11.187  1.00  0.00     0.091 A 
HETATM    2  N2  UNL     1      -2.771  13.136  11.525  1.00  0.00    -0.302 N 
ATOM      3  H2  UNL     1      -2.951  12.979  12.516  1.00  0.00     0.171 HD
HETATM    4  C5  UNL     1      -3.642  12.617  10.627  1.00  0.00     0.328 A 
HETATM    5  O1  UNL     1      -4.651  11.958  10.975  1.00  0.00    -0.247 OA
HETATM    6  N3  UNL     1      -3.407  12.822   9.322  1.00  0.00    -0.275 N 
ATOM      7  H3  UNL     1      -4.057  12.437   8.637  1.00  0.00     0.173 HD
HETATM    8  C6  UNL     1      -2.320  13.535   8.881  1.00  0.00     0.264 A 
HETATM    9  O2  UNL     1      -2.141  13.691   7.659  1.00  0.00    -0.267 OA
HETATM   10  C7  UNL     1      -1.455  14.052   9.798  1.00  0.00     0.087 A 
ENDROOT
BRANCH  10  11
HETATM   11  C8  UNL     1      -0.234  14.769   9.480  1.00  0.00     0.154 C 
BRANCH  11  12
HETATM   12  O3  UNL     1      -0.164  15.914   8.831  1.00  0.00    -0.360 OA
BRANCH  12  13
HETATM   13  C9  UNL     1       0.978  16.522   8.480  1.00  0.00     0.209 C 
BRANCH  13  14
HETATM   14  C10 UNL     1       2.156  15.565   8.304  1.00  0.00     0.232 C 
BRANCH  14  15
HETATM   15  N4  UNL     1       3.303  16.198   8.927  1.00  0.00    -0.071 N 
ATOM     16  H43 UNL     1       4.056  16.406   8.270  1.00  0.00     0.274 HD
ATOM     17  H42 UNL     1       3.123  17.157   9.224  1.00  0.00     0.274 HD
ATOM     18  H41 UNL     1       3.594  15.588   9.691  1.00  0.00     0.274 HD
ENDBRANCH  14  15
BRANCH  14  19
HETATM   19  C11 UNL     1       2.479  15.311   6.871  1.00  0.00     0.264 C 
BRANCH  19  20
HETATM   20  N5  UNL     1       1.354  14.607   6.280  1.00  0.00    -0.077 N 
ATOM     21  H53 UNL     1       1.575  13.642   6.035  1.00  0.00     0.274 HD
ATOM     22  H52 UNL     1       0.613  14.410   6.952  1.00  0.00     0.274 HD
ATOM     23  H51 UNL     1       1.029  15.153   5.481  1.00  0.00     0.274 HD
ENDBRANCH  19  20
ENDBRANCH  14  19
ENDBRANCH  13  14
ENDBRANCH  12  13
ENDBRANCH  11  12
ENDBRANCH  10  11
BRANCH   1  24
HETATM   24  S1  UNL     1      -0.552  14.512  12.354  1.00  0.00    -0.111 SA
BRANCH  24  25
HETATM   25  C3  UNL     1      -1.233  15.619  13.550  1.00  0.00     0.082 C 
BRANCH  25  26
HETATM   26  C2  UNL     1      -0.837  17.052  13.456  1.00  0.00     0.038 C 
BRANCH  26  27
HETATM   27  C1  UNL     1      -0.210  17.241  12.066  1.00  0.00     0.230 C 
BRANCH  27  28
HETATM   28  N1  UNL     1      -1.078  17.984  11.201  1.00  0.00    -0.079 N 
ATOM     29  H13 UNL     1      -1.804  17.391  10.799  1.00  0.00     0.274 HD
ATOM     30  H12 UNL     1      -1.673  18.624  11.728  1.00  0.00     0.274 HD
ATOM     31  H11 UNL     1      -0.551  18.473  10.479  1.00  0.00     0.274 HD
ENDBRANCH  27  28
ENDBRANCH  26  27
ENDBRANCH  25  26
ENDBRANCH  24  25
ENDBRANCH   1  24
TORSDOF 12
ENDMDL
