MODEL 1
REMARK VINA RESULT: -5.167481846      0.000      0.000
REMARK  6 active torsions:
REMARK  status: ('A' for Active; 'I' for Inactive)
REMARK    1  A    between atoms: N1_2  and  N2_3 
REMARK       I    between atoms: N1_2  and  C7_14 
REMARK       I    between atoms: N2_3  and  C2_5 
REMARK    2  A    between atoms: C2_5  and  O2_7 
REMARK    3  A    between atoms: O2_7  and  C3_8 
REMARK    4  A    between atoms: C3_8  and  C6_11 
REMARK    5  A    between atoms: C7_14  and  C8_16 
REMARK    6  A    between atoms: C9_23  and  C10_24 
ROOT
HETATM    1  C1  UNL     1      15.656   6.611  29.047  1.00  0.00     0.181 C 
HETATM    2  N1  UNL     1      14.470   7.187  28.454  1.00  0.00    -0.256 N 
HETATM    3  C7  UNL     1      13.358   7.546  29.315  1.00  0.00     0.292 C 
HETATM    4  O5  UNL     1      13.466   7.348  30.528  1.00  0.00    -0.264 OA
ENDROOT
BRANCH   2   5
HETATM    5  N2  UNL     1      14.428   7.382  27.078  1.00  0.00    -0.240 N 
HETATM    6  C2  UNL     1      14.992   8.552  26.465  1.00  0.00     0.381 C 
HETATM    7  O1  UNL     1      15.545   9.450  27.130  1.00  0.00    -0.237 OA
ATOM      8  H2  UNL     1      13.987   6.676  26.488  1.00  0.00     0.192 HD
BRANCH   6   9
HETATM    9  O2  UNL     1      14.951   8.748  25.096  1.00  0.00    -0.281 OA
BRANCH   9  10
HETATM   10  C3  UNL     1      14.068   9.648  24.477  1.00  0.00     0.153 C 
HETATM   11  C4  UNL     1      13.674   8.982  23.148  1.00  0.00     0.058 C 
HETATM   12  C5  UNL     1      14.688  10.960  24.120  1.00  0.00     0.058 C 
BRANCH  10  13
HETATM   13  C6  UNL     1      12.804   9.834  25.220  1.00  0.00     0.209 C 
HETATM   14  O3  UNL     1      11.788   9.108  25.078  1.00  0.00    -0.646 OA
HETATM   15  O4  UNL     1      12.745  10.879  26.128  1.00  0.00    -0.646 OA
ENDBRANCH  10  13
ENDBRANCH   9  10
ENDBRANCH   6   9
ENDBRANCH   2   5
BRANCH   3  16
HETATM   16  C8  UNL     1      12.182   8.119  28.701  1.00  0.00     0.152 A 
HETATM   17  N3  UNL     1      11.859   9.465  28.747  1.00  0.00    -0.279 N 
HETATM   18  N4  UNL     1      10.747   9.686  28.110  1.00  0.00    -0.241 N 
ATOM     19  H3  UNL     1      12.414  10.181  29.214  1.00  0.00     0.189 HD
HETATM   20  N5  UNL     1      10.342   8.539  27.656  1.00  0.00    -0.279 N 
ATOM     21  H4  UNL     1      10.284  10.586  27.990  1.00  0.00     0.208 HD
HETATM   22  C9  UNL     1      11.215   7.522  28.003  1.00  0.00     0.148 A 
ATOM     23  H5  UNL     1       9.488   8.405  27.113  1.00  0.00     0.189 HD
BRANCH  22  24
HETATM   24  C10 UNL     1      10.961   6.165  27.599  1.00  0.00     0.285 C 
HETATM   25  N6  UNL     1       9.903   5.333  27.966  1.00  0.00    -0.056 NA
HETATM   26  O6  UNL     1      11.796   5.596  26.792  1.00  0.00    -0.269 OA
ENDBRANCH  22  24
ENDBRANCH   3  16
TORSDOF 6
ENDMDL
MODEL 2
REMARK VINA RESULT: -5.039150624      2.262      4.857
REMARK  6 active torsions:
REMARK  status: ('A' for Active; 'I' for Inactive)
REMARK    1  A    between atoms: N1_2  and  N2_3 
REMARK       I    between atoms: N1_2  and  C7_14 
REMARK       I    between atoms: N2_3  and  C2_5 
REMARK    2  A    between atoms: C2_5  and  O2_7 
REMARK    3  A    between atoms: O2_7  and  C3_8 
REMARK    4  A    between atoms: C3_8  and  C6_11 
REMARK    5  A    between atoms: C7_14  and  C8_16 
REMARK    6  A    between atoms: C9_23  and  C10_24 
ROOT
HETATM    1  C1  UNL     1      12.599   7.707  31.038  1.00  0.00     0.181 C 
HETATM    2  N1  UNL     1      12.100   7.534  29.692  1.00  0.00    -0.256 N 
HETATM    3  C7  UNL     1      11.799   8.710  28.898  1.00  0.00     0.292 C 
HETATM    4  O5  UNL     1      11.982   9.822  29.401  1.00  0.00    -0.264 OA
ENDROOT
BRANCH   2   5
HETATM    5  N2  UNL     1      11.926   6.246  29.196  1.00  0.00    -0.240 N 
HETATM    6  C2  UNL     1      12.985   5.546  28.527  1.00  0.00     0.381 C 
HETATM    7  O1  UNL     1      14.111   6.052  28.355  1.00  0.00    -0.237 OA
ATOM      8  H2  UNL     1      11.021   5.788  29.312  1.00  0.00     0.192 HD
BRANCH   6   9
HETATM    9  O2  UNL     1      12.812   4.265  28.033  1.00  0.00    -0.281 OA
BRANCH   9  10
HETATM   10  C3  UNL     1      11.868   3.947  27.044  1.00  0.00     0.153 C 
HETATM   11  C4  UNL     1      12.204   2.510  26.609  1.00  0.00     0.058 C 
HETATM   12  C5  UNL     1      11.967   4.790  25.814  1.00  0.00     0.058 C 
BRANCH  10  13
HETATM   13  C6  UNL     1      10.481   3.894  27.552  1.00  0.00     0.209 C 
HETATM   14  O3  UNL     1       9.932   2.857  28.003  1.00  0.00    -0.646 OA
HETATM   15  O4  UNL     1       9.747   5.069  27.523  1.00  0.00    -0.646 OA
ENDBRANCH  10  13
ENDBRANCH   9  10
ENDBRANCH   6   9
ENDBRANCH   2   5
BRANCH   3  16
HETATM   16  C8  UNL     1      11.302   8.513  27.555  1.00  0.00     0.152 A 
HETATM   17  N3  UNL     1      10.136   7.831  27.250  1.00  0.00    -0.279 N 
HETATM   18  N4  UNL     1       9.944   7.813  25.964  1.00  0.00    -0.241 N 
ATOM     19  H3  UNL     1       9.516   7.403  27.937  1.00  0.00     0.189 HD
HETATM   20  N5  UNL     1      10.938   8.456  25.429  1.00  0.00    -0.279 N 
ATOM     21  H4  UNL     1       9.164   7.380  25.471  1.00  0.00     0.208 HD
HETATM   22  C9  UNL     1      11.818   8.916  26.393  1.00  0.00     0.148 A 
ATOM     23  H5  UNL     1      11.055   8.603  24.426  1.00  0.00     0.189 HD
BRANCH  22  24
HETATM   24  C10 UNL     1      12.993   9.660  26.022  1.00  0.00     0.285 C 
HETATM   25  N6  UNL     1      14.285   9.555  26.536  1.00  0.00    -0.056 NA
HETATM   26  O6  UNL     1      12.887  10.557  25.095  1.00  0.00    -0.269 OA
ENDBRANCH  22  24
ENDBRANCH   3  16
TORSDOF 6
ENDMDL
MODEL 3
REMARK VINA RESULT: -5.024622447      2.415      5.021
REMARK  6 active torsions:
REMARK  status: ('A' for Active; 'I' for Inactive)
REMARK    1  A    between atoms: N1_2  and  N2_3 
REMARK       I    between atoms: N1_2  and  C7_14 
REMARK       I    between atoms: N2_3  and  C2_5 
REMARK    2  A    between atoms: C2_5  and  O2_7 
REMARK    3  A    between atoms: O2_7  and  C3_8 
REMARK    4  A    between atoms: C3_8  and  C6_11 
REMARK    5  A    between atoms: C7_14  and  C8_16 
REMARK    6  A    between atoms: C9_23  and  C10_24 
ROOT
HETATM    1  C1  UNL     1      14.858   6.180  29.815  1.00  0.00     0.181 C 
HETATM    2  N1  UNL     1      13.640   6.257  29.038  1.00  0.00    -0.256 N 
HETATM    3  C7  UNL     1      12.652   7.263  29.377  1.00  0.00     0.292 C 
HETATM    4  O5  UNL     1      12.888   8.024  30.321  1.00  0.00    -0.264 OA
ENDROOT
BRANCH   2   5
HETATM    5  N2  UNL     1      13.452   5.365  27.987  1.00  0.00    -0.240 N 
HETATM    6  C2  UNL     1      13.209   3.970  28.217  1.00  0.00     0.381 C 
HETATM    7  O1  UNL     1      13.153   3.484  29.364  1.00  0.00    -0.237 OA
ATOM      8  H2  UNL     1      13.488   5.712  27.028  1.00  0.00     0.192 HD
BRANCH   6   9
HETATM    9  O2  UNL     1      13.022   3.081  27.173  1.00  0.00    -0.281 OA
BRANCH   9  10
HETATM   10  C3  UNL     1      11.754   2.728  26.685  1.00  0.00     0.153 C 
HETATM   11  C4  UNL     1      11.366   1.450  27.448  1.00  0.00     0.058 C 
HETATM   12  C5  UNL     1      11.737   2.370  25.234  1.00  0.00     0.058 C 
BRANCH  10  13
HETATM   13  C6  UNL     1      10.705   3.718  27.008  1.00  0.00     0.209 C 
HETATM   14  O3  UNL     1       9.874   3.589  27.942  1.00  0.00    -0.646 OA
HETATM   15  O4  UNL     1      10.641   4.859  26.224  1.00  0.00    -0.646 OA
ENDBRANCH  10  13
ENDBRANCH   9  10
ENDBRANCH   6   9
ENDBRANCH   2   5
BRANCH   3  16
HETATM   16  C8  UNL     1      11.444   7.321  28.588  1.00  0.00     0.152 A 
HETATM   17  N3  UNL     1      10.344   6.504  28.788  1.00  0.00    -0.279 N 
HETATM   18  N4  UNL     1       9.409   6.782  27.929  1.00  0.00    -0.241 N 
ATOM     19  H3  UNL     1      10.277   5.785  29.509  1.00  0.00     0.189 HD
HETATM   20  N5  UNL     1       9.861   7.744  27.184  1.00  0.00    -0.279 N 
ATOM     21  H4  UNL     1       8.497   6.332  27.855  1.00  0.00     0.208 HD
HETATM   22  C9  UNL     1      11.139   8.118  27.562  1.00  0.00     0.148 A 
ATOM     23  H5  UNL     1       9.341   8.171  26.417  1.00  0.00     0.189 HD
BRANCH  22  24
HETATM   24  C10 UNL     1      11.833   9.172  26.871  1.00  0.00     0.285 C 
HETATM   25  N6  UNL     1      12.524  10.257  27.412  1.00  0.00    -0.056 NA
HETATM   26  O6  UNL     1      11.845   9.158  25.578  1.00  0.00    -0.269 OA
ENDBRANCH  22  24
ENDBRANCH   3  16
TORSDOF 6
ENDMDL
MODEL 4
REMARK VINA RESULT: -4.768297483      2.477      5.329
REMARK  6 active torsions:
REMARK  status: ('A' for Active; 'I' for Inactive)
REMARK    1  A    between atoms: N1_2  and  N2_3 
REMARK       I    between atoms: N1_2  and  C7_14 
REMARK       I    between atoms: N2_3  and  C2_5 
REMARK    2  A    between atoms: C2_5  and  O2_7 
REMARK    3  A    between atoms: O2_7  and  C3_8 
REMARK    4  A    between atoms: C3_8  and  C6_11 
REMARK    5  A    between atoms: C7_14  and  C8_16 
REMARK    6  A    between atoms: C9_23  and  C10_24 
ROOT
HETATM    1  C1  UNL     1      14.157   6.927  23.770  1.00  0.00     0.181 C 
HETATM    2  N1  UNL     1      13.203   6.991  24.856  1.00  0.00    -0.256 N 
HETATM    3  C7  UNL     1      12.156   7.994  24.813  1.00  0.00     0.292 C 
HETATM    4  O5  UNL     1      12.113   8.759  23.846  1.00  0.00    -0.264 OA
ENDROOT
BRANCH   2   5
HETATM    5  N2  UNL     1      13.317   6.089  25.909  1.00  0.00    -0.240 N 
HETATM    6  C2  UNL     1      12.831   4.743  25.804  1.00  0.00     0.381 C 
HETATM    7  O1  UNL     1      12.284   4.312  24.770  1.00  0.00    -0.237 OA
ATOM      8  H2  UNL     1      13.758   6.393  26.777  1.00  0.00     0.192 HD
BRANCH   6   9
HETATM    9  O2  UNL     1      12.943   3.845  26.850  1.00  0.00    -0.281 OA
BRANCH   9  10
HETATM   10  C3  UNL     1      11.926   3.642  27.797  1.00  0.00     0.153 C 
HETATM   11  C4  UNL     1      12.649   3.206  29.083  1.00  0.00     0.058 C 
HETATM   12  C5  UNL     1      10.984   2.535  27.451  1.00  0.00     0.058 C 
BRANCH  10  13
HETATM   13  C6  UNL     1      11.198   4.879  28.150  1.00  0.00     0.209 C 
HETATM   14  O3  UNL     1       9.980   5.075  27.914  1.00  0.00    -0.646 OA
HETATM   15  O4  UNL     1      11.916   5.882  28.782  1.00  0.00    -0.646 OA
ENDBRANCH  10  13
ENDBRANCH   9  10
ENDBRANCH   6   9
ENDBRANCH   2   5
BRANCH   3  16
HETATM   16  C8  UNL     1      11.215   8.039  25.909  1.00  0.00     0.152 A 
HETATM   17  N3  UNL     1       9.940   7.500  25.863  1.00  0.00    -0.279 N 
HETATM   18  N4  UNL     1       9.325   7.693  26.991  1.00  0.00    -0.241 N 
ATOM     19  H3  UNL     1       9.541   7.019  25.056  1.00  0.00     0.189 HD
HETATM   20  N5  UNL     1      10.150   8.334  27.762  1.00  0.00    -0.279 N 
ATOM     21  H4  UNL     1       8.378   7.398  27.226  1.00  0.00     0.208 HD
HETATM   22  C9  UNL     1      11.354   8.574  27.123  1.00  0.00     0.148 A 
ATOM     23  H5  UNL     1       9.938   8.624  28.717  1.00  0.00     0.189 HD
BRANCH  22  24
HETATM   24  C10 UNL     1      12.419   9.269  27.796  1.00  0.00     0.285 C 
HETATM   25  N6  UNL     1      13.757   8.895  27.923  1.00  0.00    -0.056 NA
HETATM   26  O6  UNL     1      12.150  10.394  28.376  1.00  0.00    -0.269 OA
ENDBRANCH  22  24
ENDBRANCH   3  16
TORSDOF 6
ENDMDL
MODEL 5
REMARK VINA RESULT: -4.740982258      2.401      5.110
REMARK  6 active torsions:
REMARK  status: ('A' for Active; 'I' for Inactive)
REMARK    1  A    between atoms: N1_2  and  N2_3 
REMARK       I    between atoms: N1_2  and  C7_14 
REMARK       I    between atoms: N2_3  and  C2_5 
REMARK    2  A    between atoms: C2_5  and  O2_7 
REMARK    3  A    between atoms: O2_7  and  C3_8 
REMARK    4  A    between atoms: C3_8  and  C6_11 
REMARK    5  A    between atoms: C7_14  and  C8_16 
REMARK    6  A    between atoms: C9_23  and  C10_24 
ROOT
HETATM    1  C1  UNL     1      14.043   7.069  24.100  1.00  0.00     0.181 C 
HETATM    2  N1  UNL     1      12.934   6.986  25.024  1.00  0.00    -0.256 N 
HETATM    3  C7  UNL     1      12.149   8.177  25.288  1.00  0.00     0.292 C 
HETATM    4  O5  UNL     1      12.456   9.224  24.710  1.00  0.00    -0.264 OA
ENDROOT
BRANCH   2   5
HETATM    5  N2  UNL     1      12.650   5.767  25.631  1.00  0.00    -0.240 N 
HETATM    6  C2  UNL     1      13.202   5.414  26.907  1.00  0.00     0.381 C 
HETATM    7  O1  UNL     1      13.962   6.176  27.537  1.00  0.00    -0.237 OA
ATOM      8  H2  UNL     1      12.033   5.107  25.156  1.00  0.00     0.192 HD
BRANCH   6   9
HETATM    9  O2  UNL     1      12.921   4.202  27.512  1.00  0.00    -0.281 OA
BRANCH   9  10
HETATM   10  C3  UNL     1      11.683   3.551  27.384  1.00  0.00     0.153 C 
HETATM   11  C4  UNL     1      11.481   2.798  28.711  1.00  0.00     0.058 C 
HETATM   12  C5  UNL     1      11.647   2.516  26.307  1.00  0.00     0.058 C 
BRANCH  10  13
HETATM   13  C6  UNL     1      10.540   4.481  27.277  1.00  0.00     0.209 C 
HETATM   14  O3  UNL     1      10.047   5.111  28.247  1.00  0.00    -0.646 OA
HETATM   15  O4  UNL     1       9.981   4.662  26.022  1.00  0.00    -0.646 OA
ENDBRANCH  10  13
ENDBRANCH   9  10
ENDBRANCH   6   9
ENDBRANCH   2   5
BRANCH   3  16
HETATM   16  C8  UNL     1      11.046   8.071  26.215  1.00  0.00     0.152 A 
HETATM   17  N3  UNL     1       9.809   7.537  25.894  1.00  0.00    -0.279 N 
HETATM   18  N4  UNL     1       9.017   7.574  26.925  1.00  0.00    -0.241 N 
ATOM     19  H3  UNL     1       9.555   7.167  24.978  1.00  0.00     0.189 HD
HETATM   20  N5  UNL     1       9.693   8.110  27.896  1.00  0.00    -0.279 N 
ATOM     21  H4  UNL     1       8.053   7.246  26.964  1.00  0.00     0.208 HD
HETATM   22  C9  UNL     1      10.977   8.438  27.495  1.00  0.00     0.148 A 
ATOM     23  H5  UNL     1       9.325   8.268  28.834  1.00  0.00     0.189 HD
BRANCH  22  24
HETATM   24  C10 UNL     1      11.903   9.042  28.416  1.00  0.00     0.285 C 
HETATM   25  N6  UNL     1      12.539   8.462  29.514  1.00  0.00    -0.056 NA
HETATM   26  O6  UNL     1      12.219  10.285  28.247  1.00  0.00    -0.269 OA
ENDBRANCH  22  24
ENDBRANCH   3  16
TORSDOF 6
ENDMDL
