MODEL 1
REMARK VINA RESULT: -5.908494317      0.000      0.000
REMARK  6 active torsions:
REMARK  status: ('A' for Active; 'I' for Inactive)
REMARK    1  A    between atoms: C4_5  and  C5_6 
REMARK    2  A    between atoms: C5_6  and  O1_7 
REMARK    3  A    between atoms: C5_6  and  C6_9 
REMARK       I    between atoms: C6_9  and  N2_11 
REMARK    4  A    between atoms: N2_11  and  C7_13 
REMARK    5  A    between atoms: C7_13  and  C8_14 
REMARK       I    between atoms: C8_14  and  N3_16 
REMARK    6  A    between atoms: N3_16  and  N4_18 
ROOT
HETATM    1  C1  UNL     1      13.595   8.044  22.563  1.00  0.00     0.037 C 
HETATM    2  C2  UNL     1      13.090   8.110  23.657  1.00  0.00     0.008 C 
HETATM    3  N1  UNL     1      12.491   8.187  24.921  1.00  0.00    -0.265 N 
HETATM    4  C3  UNL     1      11.615   7.255  25.398  1.00  0.00     0.120 A 
HETATM    5  C4  UNL     1      11.214   7.626  26.663  1.00  0.00     0.012 A 
HETATM    6  C9  UNL     1      11.875   8.806  26.931  1.00  0.00     0.045 A 
HETATM    7  C10 UNL     1      12.072   9.799  27.855  1.00  0.00     0.037 A 
HETATM    8  C11 UNL     1      11.452   9.922  29.220  1.00  0.00     0.070 C 
HETATM    9  N5  UNL     1      12.930  10.660  27.322  1.00  0.00    -0.301 N 
ATOM     10  H5  UNL     1      13.256  11.503  27.796  1.00  0.00     0.187 HD
HETATM   11  N6  UNL     1      13.315  10.305  26.109  1.00  0.00    -0.279 N 
HETATM   12  C12 UNL     1      14.251  11.018  25.228  1.00  0.00     0.179 C 
HETATM   13  C13 UNL     1      12.670   9.155  25.846  1.00  0.00     0.148 A 
ENDROOT
BRANCH   5  14
HETATM   14  C5  UNL     1      10.273   6.932  27.578  1.00  0.00     0.245 C 
BRANCH  14  15
HETATM   15  O1  UNL     1       9.068   6.725  26.918  1.00  0.00    -0.381 OA
ATOM     16  H1  UNL     1       8.575   6.055  27.376  1.00  0.00     0.211 HD
ENDBRANCH  14  15
BRANCH  14  17
HETATM   17  C6  UNL     1      10.795   5.633  28.036  1.00  0.00     0.251 C 
HETATM   18  O2  UNL     1      10.099   4.568  27.991  1.00  0.00    -0.270 OA
HETATM   19  N2  UNL     1      12.118   5.567  28.544  1.00  0.00    -0.350 N 
ATOM     20  H2  UNL     1      12.688   6.411  28.586  1.00  0.00     0.163 HD
BRANCH  19  21
HETATM   21  C7  UNL     1      12.661   4.311  29.000  1.00  0.00     0.227 C 
BRANCH  21  22
HETATM   22  C8  UNL     1      13.653   4.598  30.061  1.00  0.00     0.253 C 
HETATM   23  O3  UNL     1      14.731   3.996  30.112  1.00  0.00    -0.270 OA
HETATM   24  N3  UNL     1      13.277   5.611  31.013  1.00  0.00    -0.275 N 
ATOM     25  H3  UNL     1      12.382   6.098  30.957  1.00  0.00     0.189 HD
BRANCH  24  26
HETATM   26  N4  UNL     1      14.208   5.887  32.019  1.00  0.00    -0.343 N 
ATOM     27  H42 UNL     1      15.102   5.399  32.056  1.00  0.00     0.176 HD
ATOM     28  H41 UNL     1      13.937   6.596  32.700  1.00  0.00     0.176 HD
ENDBRANCH  24  26
ENDBRANCH  21  22
ENDBRANCH  19  21
ENDBRANCH  14  17
ENDBRANCH   5  14
TORSDOF 6
ENDMDL
MODEL 2
REMARK VINA RESULT: -5.860059633      2.753      6.583
REMARK  6 active torsions:
REMARK  status: ('A' for Active; 'I' for Inactive)
REMARK    1  A    between atoms: C4_5  and  C5_6 
REMARK    2  A    between atoms: C5_6  and  O1_7 
REMARK    3  A    between atoms: C5_6  and  C6_9 
REMARK       I    between atoms: C6_9  and  N2_11 
REMARK    4  A    between atoms: N2_11  and  C7_13 
REMARK    5  A    between atoms: C7_13  and  C8_14 
REMARK       I    between atoms: C8_14  and  N3_16 
REMARK    6  A    between atoms: N3_16  and  N4_18 
ROOT
HETATM    1  C1  UNL     1      15.346   5.888  31.441  1.00  0.00     0.037 C 
HETATM    2  C2  UNL     1      14.493   6.225  30.656  1.00  0.00     0.008 C 
HETATM    3  N1  UNL     1      13.495   6.622  29.757  1.00  0.00    -0.265 N 
HETATM    4  C3  UNL     1      13.181   7.927  29.507  1.00  0.00     0.120 A 
HETATM    5  C4  UNL     1      12.164   7.972  28.580  1.00  0.00     0.012 A 
HETATM    6  C9  UNL     1      11.876   6.657  28.280  1.00  0.00     0.045 A 
HETATM    7  C10 UNL     1      11.086   5.820  27.536  1.00  0.00     0.037 A 
HETATM    8  C11 UNL     1      10.006   6.202  26.560  1.00  0.00     0.070 C 
HETATM    9  N5  UNL     1      11.448   4.578  27.831  1.00  0.00    -0.301 N 
ATOM     10  H5  UNL     1      11.020   3.749  27.419  1.00  0.00     0.187 HD
HETATM   11  N6  UNL     1      12.425   4.535  28.721  1.00  0.00    -0.279 N 
HETATM   12  C12 UNL     1      13.070   3.336  29.277  1.00  0.00     0.179 C 
HETATM   13  C13 UNL     1      12.705   5.817  29.014  1.00  0.00     0.148 A 
ENDROOT
BRANCH   5  14
HETATM   14  C5  UNL     1      11.490   9.161  27.998  1.00  0.00     0.245 C 
BRANCH  14  15
HETATM   15  O1  UNL     1      11.557  10.209  28.907  1.00  0.00    -0.381 OA
ATOM     16  H1  UNL     1      12.434  10.572  28.897  1.00  0.00     0.211 HD
ENDBRANCH  14  15
BRANCH  14  17
HETATM   17  C6  UNL     1      12.108   9.588  26.731  1.00  0.00     0.251 C 
HETATM   18  O2  UNL     1      11.701   9.166  25.601  1.00  0.00    -0.270 OA
HETATM   19  N2  UNL     1      13.192  10.502  26.771  1.00  0.00    -0.350 N 
ATOM     20  H2  UNL     1      13.530  10.850  27.669  1.00  0.00     0.163 HD
BRANCH  19  21
HETATM   21  C7  UNL     1      13.820  10.942  25.550  1.00  0.00     0.227 C 
BRANCH  21  22
HETATM   22  C8  UNL     1      13.990  12.411  25.624  1.00  0.00     0.253 C 
HETATM   23  O3  UNL     1      13.188  13.178  25.079  1.00  0.00    -0.270 OA
HETATM   24  N3  UNL     1      15.137  12.873  26.361  1.00  0.00    -0.275 N 
ATOM     25  H3  UNL     1      15.790  12.226  26.804  1.00  0.00     0.189 HD
BRANCH  24  26
HETATM   26  N4  UNL     1      15.306  14.259  26.434  1.00  0.00    -0.343 N 
ATOM     27  H42 UNL     1      14.642  14.893  25.992  1.00  0.00     0.176 HD
ATOM     28  H41 UNL     1      16.121  14.585  26.951  1.00  0.00     0.176 HD
ENDBRANCH  24  26
ENDBRANCH  21  22
ENDBRANCH  19  21
ENDBRANCH  14  17
ENDBRANCH   5  14
TORSDOF 6
ENDMDL
MODEL 3
REMARK VINA RESULT: -5.801942355      3.189      6.809
REMARK  6 active torsions:
REMARK  status: ('A' for Active; 'I' for Inactive)
REMARK    1  A    between atoms: C4_5  and  C5_6 
REMARK    2  A    between atoms: C5_6  and  O1_7 
REMARK    3  A    between atoms: C5_6  and  C6_9 
REMARK       I    between atoms: C6_9  and  N2_11 
REMARK    4  A    between atoms: N2_11  and  C7_13 
REMARK    5  A    between atoms: C7_13  and  C8_14 
REMARK       I    between atoms: C8_14  and  N3_16 
REMARK    6  A    between atoms: N3_16  and  N4_18 
ROOT
HETATM    1  C1  UNL     1      16.664   5.809  29.411  1.00  0.00     0.037 C 
HETATM    2  C2  UNL     1      15.622   6.274  29.018  1.00  0.00     0.008 C 
HETATM    3  N1  UNL     1      14.413   6.823  28.572  1.00  0.00    -0.265 N 
HETATM    4  C3  UNL     1      14.290   8.102  28.111  1.00  0.00     0.120 A 
HETATM    5  C4  UNL     1      12.978   8.324  27.755  1.00  0.00     0.012 A 
HETATM    6  C9  UNL     1      12.318   7.143  28.016  1.00  0.00     0.045 A 
HETATM    7  C10 UNL     1      11.108   6.498  27.976  1.00  0.00     0.037 A 
HETATM    8  C11 UNL     1       9.789   7.047  27.507  1.00  0.00     0.070 C 
HETATM    9  N5  UNL     1      11.307   5.269  28.437  1.00  0.00    -0.301 N 
ATOM     10  H5  UNL     1      10.571   4.568  28.519  1.00  0.00     0.187 HD
HETATM   11  N6  UNL     1      12.566   5.056  28.778  1.00  0.00    -0.279 N 
HETATM   12  C12 UNL     1      13.143   3.818  29.323  1.00  0.00     0.179 C 
HETATM   13  C13 UNL     1      13.211   6.208  28.525  1.00  0.00     0.148 A 
ENDROOT
BRANCH   5  14
HETATM   14  C5  UNL     1      12.363   9.558  27.203  1.00  0.00     0.245 C 
BRANCH  14  15
HETATM   15  O1  UNL     1      12.163  10.465  28.235  1.00  0.00    -0.381 OA
ATOM     16  H1  UNL     1      12.938  11.007  28.326  1.00  0.00     0.211 HD
ENDBRANCH  14  15
BRANCH  14  17
HETATM   17  C6  UNL     1      13.203  10.188  26.171  1.00  0.00     0.251 C 
HETATM   18  O2  UNL     1      13.447   9.623  25.056  1.00  0.00    -0.270 OA
HETATM   19  N2  UNL     1      13.760  11.468  26.427  1.00  0.00    -0.350 N 
ATOM     20  H2  UNL     1      13.574  11.933  27.315  1.00  0.00     0.163 HD
BRANCH  19  21
HETATM   21  C7  UNL     1      14.587  12.113  25.438  1.00  0.00     0.227 C 
BRANCH  21  22
HETATM   22  C8  UNL     1      13.738  13.054  24.672  1.00  0.00     0.253 C 
HETATM   23  O3  UNL     1      13.759  13.079  23.437  1.00  0.00    -0.270 OA
HETATM   24  N3  UNL     1      12.902  13.925  25.458  1.00  0.00    -0.275 N 
ATOM     25  H3  UNL     1      12.897  13.893  26.477  1.00  0.00     0.189 HD
BRANCH  24  26
HETATM   26  N4  UNL     1      12.098  14.817  24.742  1.00  0.00    -0.343 N 
ATOM     27  H42 UNL     1      11.564  14.509  23.930  1.00  0.00     0.176 HD
ATOM     28  H41 UNL     1      12.081  15.778  25.081  1.00  0.00     0.176 HD
ENDBRANCH  24  26
ENDBRANCH  21  22
ENDBRANCH  19  21
ENDBRANCH  14  17
ENDBRANCH   5  14
TORSDOF 6
ENDMDL
MODEL 4
REMARK VINA RESULT: -5.663027980      3.154      6.514
REMARK  6 active torsions:
REMARK  status: ('A' for Active; 'I' for Inactive)
REMARK    1  A    between atoms: C4_5  and  C5_6 
REMARK    2  A    between atoms: C5_6  and  O1_7 
REMARK    3  A    between atoms: C5_6  and  C6_9 
REMARK       I    between atoms: C6_9  and  N2_11 
REMARK    4  A    between atoms: N2_11  and  C7_13 
REMARK    5  A    between atoms: C7_13  and  C8_14 
REMARK       I    between atoms: C8_14  and  N3_16 
REMARK    6  A    between atoms: N3_16  and  N4_18 
ROOT
HETATM    1  C1  UNL     1      16.505   5.835  29.440  1.00  0.00     0.037 C 
HETATM    2  C2  UNL     1      15.442   6.274  29.072  1.00  0.00     0.008 C 
HETATM    3  N1  UNL     1      14.208   6.790  28.656  1.00  0.00    -0.265 N 
HETATM    4  C3  UNL     1      14.024   8.090  28.279  1.00  0.00     0.120 A 
HETATM    5  C4  UNL     1      12.704   8.270  27.931  1.00  0.00     0.012 A 
HETATM    6  C9  UNL     1      12.102   7.043  28.109  1.00  0.00     0.045 A 
HETATM    7  C10 UNL     1      10.926   6.344  28.019  1.00  0.00     0.037 A 
HETATM    8  C11 UNL     1       9.582   6.856  27.579  1.00  0.00     0.070 C 
HETATM    9  N5  UNL     1      11.184   5.098  28.399  1.00  0.00    -0.301 N 
ATOM     10  H5  UNL     1      10.484   4.357  28.429  1.00  0.00     0.187 HD
HETATM   11  N6  UNL     1      12.451   4.925  28.733  1.00  0.00    -0.279 N 
HETATM   12  C12 UNL     1      13.086   3.683  29.199  1.00  0.00     0.179 C 
HETATM   13  C13 UNL     1      13.039   6.122  28.561  1.00  0.00     0.148 A 
ENDROOT
BRANCH   5  14
HETATM   14  C5  UNL     1      12.030   9.506  27.457  1.00  0.00     0.245 C 
BRANCH  14  15
HETATM   15  O1  UNL     1      12.163  10.493  28.424  1.00  0.00    -0.381 OA
ATOM     16  H1  UNL     1      12.807  11.128  28.132  1.00  0.00     0.211 HD
ENDBRANCH  14  15
BRANCH  14  17
HETATM   17  C6  UNL     1      12.595  10.000  26.190  1.00  0.00     0.251 C 
HETATM   18  O2  UNL     1      12.433   9.383  25.088  1.00  0.00    -0.270 OA
HETATM   19  N2  UNL     1      13.344  11.205  26.197  1.00  0.00    -0.350 N 
ATOM     20  H2  UNL     1      13.482  11.711  27.072  1.00  0.00     0.163 HD
BRANCH  19  21
HETATM   21  C7  UNL     1      13.911  11.717  24.975  1.00  0.00     0.227 C 
BRANCH  21  22
HETATM   22  C8  UNL     1      14.714  12.917  25.308  1.00  0.00     0.253 C 
HETATM   23  O3  UNL     1      14.942  13.791  24.465  1.00  0.00    -0.270 OA
HETATM   24  N3  UNL     1      15.202  12.987  26.661  1.00  0.00    -0.275 N 
ATOM     25  H3  UNL     1      15.005  12.256  27.344  1.00  0.00     0.189 HD
BRANCH  24  26
HETATM   26  N4  UNL     1      15.961  14.116  26.983  1.00  0.00    -0.343 N 
ATOM     27  H42 UNL     1      16.218  14.799  26.270  1.00  0.00     0.176 HD
ATOM     28  H41 UNL     1      16.236  14.209  27.960  1.00  0.00     0.176 HD
ENDBRANCH  24  26
ENDBRANCH  21  22
ENDBRANCH  19  21
ENDBRANCH  14  17
ENDBRANCH   5  14
TORSDOF 6
ENDMDL
MODEL 5
REMARK VINA RESULT: -5.650335424      2.289      3.106
REMARK  6 active torsions:
REMARK  status: ('A' for Active; 'I' for Inactive)
REMARK    1  A    between atoms: C4_5  and  C5_6 
REMARK    2  A    between atoms: C5_6  and  O1_7 
REMARK    3  A    between atoms: C5_6  and  C6_9 
REMARK       I    between atoms: C6_9  and  N2_11 
REMARK    4  A    between atoms: N2_11  and  C7_13 
REMARK    5  A    between atoms: C7_13  and  C8_14 
REMARK       I    between atoms: C8_14  and  N3_16 
REMARK    6  A    between atoms: N3_16  and  N4_18 
ROOT
HETATM    1  C1  UNL     1      14.492  10.917  23.604  1.00  0.00     0.037 C 
HETATM    2  C2  UNL     1      14.125  10.329  24.592  1.00  0.00     0.008 C 
HETATM    3  N1  UNL     1      13.696   9.659  25.745  1.00  0.00    -0.265 N 
HETATM    4  C3  UNL     1      12.395   9.634  26.162  1.00  0.00     0.120 A 
HETATM    5  C4  UNL     1      12.313   8.895  27.321  1.00  0.00     0.012 A 
HETATM    6  C9  UNL     1      13.600   8.478  27.588  1.00  0.00     0.045 A 
HETATM    7  C10 UNL     1      14.395   7.767  28.448  1.00  0.00     0.037 A 
HETATM    8  C11 UNL     1      13.978   7.034  29.694  1.00  0.00     0.070 C 
HETATM    9  N5  UNL     1      15.635   7.837  27.979  1.00  0.00    -0.301 N 
ATOM     10  H5  UNL     1      16.437   7.393  28.427  1.00  0.00     0.187 HD
HETATM   11  N6  UNL     1      15.715   8.546  26.867  1.00  0.00    -0.279 N 
HETATM   12  C12 UNL     1      16.922   8.831  26.078  1.00  0.00     0.179 C 
HETATM   13  C13 UNL     1      14.460   8.954  26.607  1.00  0.00     0.148 A 
ENDROOT
BRANCH   5  14
HETATM   14  C5  UNL     1      11.114   8.588  28.142  1.00  0.00     0.245 C 
BRANCH  14  15
HETATM   15  O1  UNL     1      10.235   9.661  28.079  1.00  0.00    -0.381 OA
ATOM     16  H1  UNL     1      10.445  10.190  27.318  1.00  0.00     0.211 HD
ENDBRANCH  14  15
BRANCH  14  17
HETATM   17  C6  UNL     1      10.419   7.373  27.682  1.00  0.00     0.251 C 
HETATM   18  O2  UNL     1       9.149   7.284  27.663  1.00  0.00    -0.270 OA
HETATM   19  N2  UNL     1      11.191   6.267  27.243  1.00  0.00    -0.350 N 
ATOM     20  H2  UNL     1      12.209   6.323  27.251  1.00  0.00     0.163 HD
BRANCH  19  21
HETATM   21  C7  UNL     1      10.543   5.063  26.786  1.00  0.00     0.227 C 
BRANCH  21  22
HETATM   22  C8  UNL     1      10.678   4.037  27.846  1.00  0.00     0.253 C 
HETATM   23  O3  UNL     1       9.809   3.176  28.020  1.00  0.00    -0.270 OA
HETATM   24  N3  UNL     1      11.873   4.116  28.645  1.00  0.00    -0.275 N 
ATOM     25  H3  UNL     1      12.581   4.834  28.488  1.00  0.00     0.189 HD
BRANCH  24  26
HETATM   26  N4  UNL     1      12.008   3.152  29.648  1.00  0.00    -0.343 N 
ATOM     27  H42 UNL     1      11.774   2.175  29.473  1.00  0.00     0.176 HD
ATOM     28  H41 UNL     1      12.349   3.485  30.549  1.00  0.00     0.176 HD
ENDBRANCH  24  26
ENDBRANCH  21  22
ENDBRANCH  19  21
ENDBRANCH  14  17
ENDBRANCH   5  14
TORSDOF 6
ENDMDL
