MODEL 1
REMARK VINA RESULT: -6.901522951      0.000      0.000
REMARK  6 active torsions:
REMARK  status: ('A' for Active; 'I' for Inactive)
REMARK    1  A    between atoms: N1_2  and  C3_5 
REMARK    2  A    between atoms: C3_5  and  C4_6 
REMARK    3  A    between atoms: C4_6  and  N3_7 
REMARK    4  A    between atoms: N3_7  and  S1_9 
REMARK    5  A    between atoms: S1_9  and  C5_12 
REMARK    6  A    between atoms: C7_17  and  N6_18 
ROOT
HETATM    1  C1  UNL     1      31.983  17.156  62.269  1.00  0.00     0.168 C 
HETATM    2  N1  UNL     1      30.562  17.428  62.279  1.00  0.00    -0.302 N 
HETATM    3  C2  UNL     1      29.706  16.423  62.755  1.00  0.00     0.183 C 
HETATM    4  N2  UNL     1      28.926  15.601  62.989  1.00  0.00    -0.172 NA
ENDROOT
BRANCH   2   5
HETATM    5  C3  UNL     1      30.130  18.682  61.947  1.00  0.00     0.095 C 
BRANCH   5   6
HETATM    6  C4  UNL     1      29.025  19.396  62.772  1.00  0.00     0.177 C 
BRANCH   6   7
HETATM    7  N3  UNL     1      27.852  19.434  61.894  1.00  0.00    -0.310 N 
ATOM      8  H3  UNL     1      27.795  19.771  60.933  1.00  0.00     0.172 HD
BRANCH   7   9
HETATM    9  S1  UNL     1      26.579  18.772  62.873  1.00  0.00     0.266 S 
HETATM   10  O1  UNL     1      25.613  19.963  63.128  1.00  0.00    -0.200 OA
HETATM   11  O2  UNL     1      27.135  18.322  64.207  1.00  0.00    -0.200 OA
BRANCH   9  12
HETATM   12  C5  UNL     1      25.665  17.414  62.291  1.00  0.00     0.164 C 
HETATM   13  C6  UNL     1      25.955  16.870  61.163  1.00  0.00     0.159 C 
HETATM   14  N4  UNL     1      27.038  17.507  60.367  1.00  0.00    -0.080 NA
HETATM   15  N5  UNL     1      25.281  15.939  60.596  1.00  0.00    -0.177 N 
HETATM   16  C7  UNL     1      24.143  15.486  61.230  1.00  0.00     0.678 C 
ATOM     17  H5  UNL     1      25.577  15.544  59.703  1.00  0.00     0.185 HD
HETATM   18  N7  UNL     1      23.748  16.168  62.332  1.00  0.00    -0.176 N 
HETATM   19  C8  UNL     1      24.509  17.155  62.928  1.00  0.00     0.141 C 
ATOM     20  H7  UNL     1      22.842  15.942  62.743  1.00  0.00     0.186 HD
HETATM   21  N8  UNL     1      24.112  17.737  64.003  1.00  0.00    -0.384 N 
ATOM     22  H82 UNL     1      24.674  18.466  64.442  1.00  0.00     0.157 HD
ATOM     23  H81 UNL     1      23.235  17.540  64.486  1.00  0.00     0.157 HD
BRANCH  16  24
HETATM   24  N6  UNL     1      23.630  14.389  60.803  1.00  0.00    -0.234 N 
ATOM     25  H62 UNL     1      23.507  14.132  59.824  1.00  0.00     0.174 HD
ATOM     26  H61 UNL     1      23.218  13.766  61.497  1.00  0.00     0.174 HD
ENDBRANCH  16  24
ENDBRANCH   9  12
ENDBRANCH   7   9
ENDBRANCH   6   7
ENDBRANCH   5   6
ENDBRANCH   2   5
TORSDOF 6
ENDMDL
MODEL 2
REMARK VINA RESULT: -6.748904336      0.606      1.314
REMARK  6 active torsions:
REMARK  status: ('A' for Active; 'I' for Inactive)
REMARK    1  A    between atoms: N1_2  and  C3_5 
REMARK    2  A    between atoms: C3_5  and  C4_6 
REMARK    3  A    between atoms: C4_6  and  N3_7 
REMARK    4  A    between atoms: N3_7  and  S1_9 
REMARK    5  A    between atoms: S1_9  and  C5_12 
REMARK    6  A    between atoms: C7_17  and  N6_18 
ROOT
HETATM    1  C1  UNL     1      29.786  16.427  62.859  1.00  0.00     0.168 C 
HETATM    2  N1  UNL     1      30.636  17.487  62.363  1.00  0.00    -0.302 N 
HETATM    3  C2  UNL     1      32.003  17.210  62.207  1.00  0.00     0.183 C 
HETATM    4  N2  UNL     1      33.156  17.115  62.192  1.00  0.00    -0.172 NA
ENDROOT
BRANCH   2   5
HETATM    5  C3  UNL     1      30.059  18.656  61.952  1.00  0.00     0.095 C 
BRANCH   5   6
HETATM    6  C4  UNL     1      28.995  19.377  62.824  1.00  0.00     0.177 C 
BRANCH   6   7
HETATM    7  N3  UNL     1      27.807  19.485  61.970  1.00  0.00    -0.310 N 
ATOM      8  H3  UNL     1      27.742  19.872  61.029  1.00  0.00     0.172 HD
BRANCH   7   9
HETATM    9  S1  UNL     1      26.537  18.802  62.937  1.00  0.00     0.266 S 
HETATM   10  O1  UNL     1      25.557  19.980  63.199  1.00  0.00    -0.200 OA
HETATM   11  O2  UNL     1      27.091  18.345  64.270  1.00  0.00    -0.200 OA
BRANCH   9  12
HETATM   12  C5  UNL     1      25.639  17.439  62.340  1.00  0.00     0.164 C 
HETATM   13  C6  UNL     1      25.951  16.897  61.217  1.00  0.00     0.159 C 
HETATM   14  N4  UNL     1      27.045  17.538  60.440  1.00  0.00    -0.080 NA
HETATM   15  N5  UNL     1      25.291  15.963  60.638  1.00  0.00    -0.177 N 
HETATM   16  C7  UNL     1      24.145  15.505  61.252  1.00  0.00     0.678 C 
ATOM     17  H5  UNL     1      25.605  15.570  59.751  1.00  0.00     0.185 HD
HETATM   18  N7  UNL     1      23.727  16.185  62.347  1.00  0.00    -0.176 N 
HETATM   19  C8  UNL     1      24.474  17.175  62.956  1.00  0.00     0.141 C 
ATOM     20  H7  UNL     1      22.815  15.955  62.742  1.00  0.00     0.186 HD
HETATM   21  N8  UNL     1      24.054  17.756  64.024  1.00  0.00    -0.384 N 
ATOM     22  H82 UNL     1      24.606  18.487  64.473  1.00  0.00     0.157 HD
ATOM     23  H81 UNL     1      23.170  17.555  64.491  1.00  0.00     0.157 HD
BRANCH  16  24
HETATM   24  N6  UNL     1      23.644  14.406  60.816  1.00  0.00    -0.234 N 
ATOM     25  H62 UNL     1      23.871  13.472  61.156  1.00  0.00     0.174 HD
ATOM     26  H61 UNL     1      23.044  14.462  59.993  1.00  0.00     0.174 HD
ENDBRANCH  16  24
ENDBRANCH   9  12
ENDBRANCH   7   9
ENDBRANCH   6   7
ENDBRANCH   5   6
ENDBRANCH   2   5
TORSDOF 6
ENDMDL
MODEL 3
REMARK VINA RESULT: -6.726450031      2.636      3.838
REMARK  6 active torsions:
REMARK  status: ('A' for Active; 'I' for Inactive)
REMARK    1  A    between atoms: N1_2  and  C3_5 
REMARK    2  A    between atoms: C3_5  and  C4_6 
REMARK    3  A    between atoms: C4_6  and  N3_7 
REMARK    4  A    between atoms: N3_7  and  S1_9 
REMARK    5  A    between atoms: S1_9  and  C5_12 
REMARK    6  A    between atoms: C7_17  and  N6_18 
ROOT
HETATM    1  C1  UNL     1      27.130  18.306  64.927  1.00  0.00     0.168 C 
HETATM    2  N1  UNL     1      26.812  19.505  64.184  1.00  0.00    -0.302 N 
HETATM    3  C2  UNL     1      25.616  20.170  64.495  1.00  0.00     0.183 C 
HETATM    4  N2  UNL     1      24.586  20.691  64.583  1.00  0.00    -0.172 NA
ENDROOT
BRANCH   2   5
HETATM    5  C3  UNL     1      27.738  20.003  63.310  1.00  0.00     0.095 C 
BRANCH   5   6
HETATM    6  C4  UNL     1      27.875  19.432  61.873  1.00  0.00     0.177 C 
BRANCH   6   7
HETATM    7  N3  UNL     1      26.545  18.915  61.536  1.00  0.00    -0.310 N 
ATOM      8  H3  UNL     1      25.643  19.376  61.650  1.00  0.00     0.172 HD
BRANCH   7   9
HETATM    9  S1  UNL     1      26.865  17.332  60.897  1.00  0.00     0.266 S 
HETATM   10  O1  UNL     1      28.235  16.925  61.508  1.00  0.00    -0.200 OA
HETATM   11  O2  UNL     1      27.023  17.405  59.392  1.00  0.00    -0.200 OA
BRANCH   9  12
HETATM   12  C5  UNL     1      25.722  16.051  61.162  1.00  0.00     0.164 C 
HETATM   13  C6  UNL     1      24.659  16.261  61.853  1.00  0.00     0.159 C 
HETATM   14  N4  UNL     1      24.509  17.607  62.466  1.00  0.00    -0.080 NA
HETATM   15  N5  UNL     1      23.811  15.362  62.196  1.00  0.00    -0.177 N 
HETATM   16  C7  UNL     1      24.055  14.061  61.810  1.00  0.00     0.678 C 
ATOM     17  H5  UNL     1      22.980  15.603  62.737  1.00  0.00     0.185 HD
HETATM   18  N7  UNL     1      25.252  13.814  61.226  1.00  0.00    -0.176 N 
HETATM   19  C8  UNL     1      26.135  14.809  60.853  1.00  0.00     0.141 C 
ATOM     20  H7  UNL     1      25.515  12.844  61.053  1.00  0.00     0.186 HD
HETATM   21  N8  UNL     1      27.237  14.524  60.255  1.00  0.00    -0.384 N 
ATOM     22  H82 UNL     1      27.888  15.259  59.980  1.00  0.00     0.157 HD
ATOM     23  H81 UNL     1      27.550  13.582  60.021  1.00  0.00     0.157 HD
BRANCH  16  24
HETATM   24  N6  UNL     1      23.087  13.225  61.920  1.00  0.00    -0.234 N 
ATOM     25  H62 UNL     1      22.207  13.263  61.406  1.00  0.00     0.174 HD
ATOM     26  H61 UNL     1      23.159  12.522  62.655  1.00  0.00     0.174 HD
ENDBRANCH  16  24
ENDBRANCH   9  12
ENDBRANCH   7   9
ENDBRANCH   6   7
ENDBRANCH   5   6
ENDBRANCH   2   5
TORSDOF 6
ENDMDL
MODEL 4
REMARK VINA RESULT: -6.682189930      1.760      2.589
REMARK  6 active torsions:
REMARK  status: ('A' for Active; 'I' for Inactive)
REMARK    1  A    between atoms: N1_2  and  C3_5 
REMARK    2  A    between atoms: C3_5  and  C4_6 
REMARK    3  A    between atoms: C4_6  and  N3_7 
REMARK    4  A    between atoms: N3_7  and  S1_9 
REMARK    5  A    between atoms: S1_9  and  C5_12 
REMARK    6  A    between atoms: C7_17  and  N6_18 
ROOT
HETATM    1  C1  UNL     1      30.128  19.354  65.190  1.00  0.00     0.168 C 
HETATM    2  N1  UNL     1      29.525  20.458  64.477  1.00  0.00    -0.302 N 
HETATM    3  C2  UNL     1      29.055  21.545  65.229  1.00  0.00     0.183 C 
HETATM    4  N2  UNL     1      28.511  22.407  65.779  1.00  0.00    -0.172 NA
ENDROOT
BRANCH   2   5
HETATM    5  C3  UNL     1      29.553  20.452  63.109  1.00  0.00     0.095 C 
BRANCH   5   6
HETATM    6  C4  UNL     1      28.261  20.221  62.280  1.00  0.00     0.177 C 
BRANCH   6   7
HETATM    7  N3  UNL     1      28.160  18.766  62.123  1.00  0.00    -0.310 N 
ATOM      8  H3  UNL     1      28.806  18.139  61.644  1.00  0.00     0.172 HD
BRANCH   7   9
HETATM    9  S1  UNL     1      26.684  18.361  62.943  1.00  0.00     0.266 S 
HETATM   10  O1  UNL     1      25.855  19.676  62.946  1.00  0.00    -0.200 OA
HETATM   11  O2  UNL     1      26.978  17.986  64.381  1.00  0.00    -0.200 OA
BRANCH   9  12
HETATM   12  C5  UNL     1      25.693  17.067  62.341  1.00  0.00     0.164 C 
HETATM   13  C6  UNL     1      25.887  16.594  61.162  1.00  0.00     0.159 C 
HETATM   14  N4  UNL     1      26.929  17.257  60.333  1.00  0.00    -0.080 NA
HETATM   15  N5  UNL     1      25.149  15.719  60.585  1.00  0.00    -0.177 N 
HETATM   16  C7  UNL     1      24.046  15.251  61.269  1.00  0.00     0.678 C 
ATOM     17  H5  UNL     1      25.370  15.379  59.650  1.00  0.00     0.185 HD
HETATM   18  N7  UNL     1      23.749  15.866  62.439  1.00  0.00    -0.176 N 
HETATM   19  C8  UNL     1      24.579  16.793  63.041  1.00  0.00     0.141 C 
ATOM     20  H7  UNL     1      22.868  15.634  62.898  1.00  0.00     0.186 HD
HETATM   21  N8  UNL     1      24.274  17.310  64.178  1.00  0.00    -0.384 N 
ATOM     22  H82 UNL     1      24.886  17.994  64.623  1.00  0.00     0.157 HD
ATOM     23  H81 UNL     1      23.429  17.102  64.709  1.00  0.00     0.157 HD
BRANCH  16  24
HETATM   24  N6  UNL     1      23.474  14.199  60.808  1.00  0.00    -0.234 N 
ATOM     25  H62 UNL     1      23.948  13.353  60.490  1.00  0.00     0.174 HD
ATOM     26  H61 UNL     1      22.467  14.246  60.651  1.00  0.00     0.174 HD
ENDBRANCH  16  24
ENDBRANCH   9  12
ENDBRANCH   7   9
ENDBRANCH   6   7
ENDBRANCH   5   6
ENDBRANCH   2   5
TORSDOF 6
ENDMDL
MODEL 5
REMARK VINA RESULT: -6.628806968      2.381      4.224
REMARK  6 active torsions:
REMARK  status: ('A' for Active; 'I' for Inactive)
REMARK    1  A    between atoms: N1_2  and  C3_5 
REMARK    2  A    between atoms: C3_5  and  C4_6 
REMARK    3  A    between atoms: C4_6  and  N3_7 
REMARK    4  A    between atoms: N3_7  and  S1_9 
REMARK    5  A    between atoms: S1_9  and  C5_12 
REMARK    6  A    between atoms: C7_17  and  N6_18 
ROOT
HETATM    1  C1  UNL     1      24.934  17.560  63.838  1.00  0.00     0.168 C 
HETATM    2  N1  UNL     1      25.625  18.682  64.434  1.00  0.00    -0.302 N 
HETATM    3  C2  UNL     1      24.920  19.887  64.572  1.00  0.00     0.183 C 
HETATM    4  N2  UNL     1      24.464  20.951  64.586  1.00  0.00    -0.172 NA
ENDROOT
BRANCH   2   5
HETATM    5  C3  UNL     1      26.878  18.487  64.946  1.00  0.00     0.095 C 
BRANCH   5   6
HETATM    6  C4  UNL     1      28.086  19.330  64.456  1.00  0.00     0.177 C 
BRANCH   6   7
HETATM    7  N3  UNL     1      29.003  18.367  63.838  1.00  0.00    -0.310 N 
ATOM      8  H3  UNL     1      29.725  17.806  64.291  1.00  0.00     0.172 HD
BRANCH   7   9
HETATM    9  S1  UNL     1      28.574  18.404  62.156  1.00  0.00     0.266 S 
HETATM   10  O1  UNL     1      29.926  18.550  61.403  1.00  0.00    -0.200 OA
HETATM   11  O2  UNL     1      27.737  19.632  61.864  1.00  0.00    -0.200 OA
BRANCH   9  12
HETATM   12  C5  UNL     1      27.680  17.083  61.468  1.00  0.00     0.164 C 
HETATM   13  C6  UNL     1      27.693  15.927  62.029  1.00  0.00     0.159 C 
HETATM   14  N4  UNL     1      28.559  15.769  63.227  1.00  0.00    -0.080 NA
HETATM   15  N5  UNL     1      27.158  14.865  61.548  1.00  0.00    -0.177 N 
HETATM   16  C7  UNL     1      26.531  14.955  60.324  1.00  0.00     0.678 C 
ATOM     17  H5  UNL     1      27.196  13.982  62.056  1.00  0.00     0.185 HD
HETATM   18  N7  UNL     1      26.660  16.127  59.658  1.00  0.00    -0.176 N 
HETATM   19  C8  UNL     1      27.225  17.258  60.215  1.00  0.00     0.141 C 
ATOM     20  H7  UNL     1      26.323  16.178  58.696  1.00  0.00     0.186 HD
HETATM   21  N8  UNL     1      27.277  18.362  59.557  1.00  0.00    -0.384 N 
ATOM     22  H82 UNL     1      27.695  19.197  59.968  1.00  0.00     0.157 HD
ATOM     23  H81 UNL     1      26.932  18.495  58.607  1.00  0.00     0.157 HD
BRANCH  16  24
HETATM   24  N6  UNL     1      25.778  13.974  59.977  1.00  0.00    -0.234 N 
ATOM     25  H62 UNL     1      25.906  13.388  59.152  1.00  0.00     0.174 HD
ATOM     26  H61 UNL     1      24.923  13.830  60.514  1.00  0.00     0.174 HD
ENDBRANCH  16  24
ENDBRANCH   9  12
ENDBRANCH   7   9
ENDBRANCH   6   7
ENDBRANCH   5   6
ENDBRANCH   2   5
TORSDOF 6
ENDMDL
