MODEL 1
REMARK VINA RESULT: -7.192245436      0.000      0.000
REMARK  8 active torsions:
REMARK  status: ('A' for Active; 'I' for Inactive)
REMARK    1  A    between atoms: O1_2  and  C2_3 
REMARK    2  A    between atoms: C2_3  and  C3_4 
REMARK    3  A    between atoms: C3_4  and  N1_5 
REMARK    4  A    between atoms: C3_4  and  C4_9 
REMARK    5  A    between atoms: C4_9  and  C5_10 
REMARK    6  A    between atoms: C8_17  and  N4_18 
REMARK    7  A    between atoms: C11_26  and  C12_27 
REMARK    8  A    between atoms: N6_28  and  O3_30 
ROOT
HETATM    1  C5  UNL     1      26.917  15.699  62.086  1.00  0.00    -0.028 A 
HETATM    2  C6  UNL     1      27.222  15.717  63.434  1.00  0.00     0.097 A 
HETATM    3  N2  UNL     1      27.815  16.717  64.041  1.00  0.00    -0.350 N 
ATOM      4  H2  UNL     1      28.012  16.666  65.041  1.00  0.00     0.166 HD
HETATM    5  C7  UNL     1      28.156  17.792  63.350  1.00  0.00     0.137 A 
HETATM    6  N3  UNL     1      28.761  18.795  64.010  1.00  0.00    -0.176 N 
ATOM      7  H3  UNL     1      28.943  18.706  65.010  1.00  0.00     0.186 HD
HETATM    8  C8  UNL     1      29.129  19.911  63.366  1.00  0.00     0.680 A 
HETATM    9  N5  UNL     1      28.879  19.999  62.056  1.00  0.00    -0.155 N 
ATOM     10  H5  UNL     1      29.157  20.845  61.560  1.00  0.00     0.187 HD
HETATM   11  C9  UNL     1      28.266  18.998  61.354  1.00  0.00     0.274 A 
HETATM   12  O2  UNL     1      28.090  19.196  60.150  1.00  0.00    -0.267 OA
HETATM   13  C10 UNL     1      27.879  17.850  61.983  1.00  0.00     0.089 A 
HETATM   14  C11 UNL     1      27.255  16.826  61.286  1.00  0.00     0.008 A 
ENDROOT
BRANCH   1  15
HETATM   15  C4  UNL     1      26.281  14.475  61.543  1.00  0.00     0.076 C 
BRANCH  15  16
HETATM   16  C3  UNL     1      24.858  14.258  62.049  1.00  0.00     0.211 C 
BRANCH  16  17
HETATM   17  C2  UNL     1      23.894  14.776  61.014  1.00  0.00     0.200 C 
BRANCH  17  18
HETATM   18  O1  UNL     1      23.708  16.113  60.944  1.00  0.00    -0.394 OA
HETATM   19  C1  UNL     1      23.621  16.887  62.040  1.00  0.00     0.201 C 
ENDBRANCH  17  18
ENDBRANCH  16  17
BRANCH  16  20
HETATM   20  N1  UNL     1      24.647  12.834  62.216  1.00  0.00    -0.073 N 
ATOM     21  H13 UNL     1      25.472  12.288  61.969  1.00  0.00     0.274 HD
ATOM     22  H12 UNL     1      24.585  12.563  63.197  1.00  0.00     0.274 HD
ATOM     23  H11 UNL     1      23.823  12.558  61.684  1.00  0.00     0.274 HD
ENDBRANCH  16  20
ENDBRANCH  15  16
ENDBRANCH   1  15
BRANCH  14  24
HETATM   24  C12 UNL     1      26.887  16.809  59.909  1.00  0.00     0.127 C 
HETATM   25  N6  UNL     1      26.053  17.078  59.049  1.00  0.00    -0.280 N 
ATOM     26  H6  UNL     1      25.161  17.521  59.269  1.00  0.00     0.193 HD
BRANCH  25  27
HETATM   27  O3  UNL     1      26.435  16.717  57.688  1.00  0.00    -0.290 OA
ATOM     28  H3  UNL     1      27.371  16.699  57.527  1.00  0.00     0.244 HD
ENDBRANCH  25  27
ENDBRANCH  14  24
BRANCH   8  29
HETATM   29  N4  UNL     1      29.717  20.894  63.985  1.00  0.00    -0.234 N 
ATOM     30  H42 UNL     1      29.165  21.669  64.353  1.00  0.00     0.174 HD
ATOM     31  H41 UNL     1      30.728  20.915  64.115  1.00  0.00     0.174 HD
ENDBRANCH   8  29
TORSDOF 8
ENDMDL
MODEL 2
REMARK VINA RESULT: -6.827268225      2.669      6.256
REMARK  8 active torsions:
REMARK  status: ('A' for Active; 'I' for Inactive)
REMARK    1  A    between atoms: O1_2  and  C2_3 
REMARK    2  A    between atoms: C2_3  and  C3_4 
REMARK    3  A    between atoms: C3_4  and  N1_5 
REMARK    4  A    between atoms: C3_4  and  C4_9 
REMARK    5  A    between atoms: C4_9  and  C5_10 
REMARK    6  A    between atoms: C8_17  and  N4_18 
REMARK    7  A    between atoms: C11_26  and  C12_27 
REMARK    8  A    between atoms: N6_28  and  O3_30 
ROOT
HETATM    1  C5  UNL     1      28.000  16.310  61.940  1.00  0.00    -0.028 A 
HETATM    2  C6  UNL     1      28.206  15.016  61.502  1.00  0.00     0.097 A 
HETATM    3  N2  UNL     1      27.271  14.098  61.451  1.00  0.00    -0.350 N 
ATOM      4  H2  UNL     1      27.491  13.160  61.116  1.00  0.00     0.166 HD
HETATM    5  C7  UNL     1      26.042  14.395  61.837  1.00  0.00     0.137 A 
HETATM    6  N3  UNL     1      25.112  13.426  61.770  1.00  0.00    -0.176 N 
ATOM      7  H3  UNL     1      25.371  12.499  61.431  1.00  0.00     0.186 HD
HETATM    8  C8  UNL     1      23.848  13.665  62.144  1.00  0.00     0.680 A 
HETATM    9  N5  UNL     1      23.539  14.889  62.586  1.00  0.00    -0.155 N 
ATOM     10  H5  UNL     1      22.579  15.078  62.873  1.00  0.00     0.187 HD
HETATM   11  C9  UNL     1      24.459  15.897  62.667  1.00  0.00     0.274 A 
HETATM   12  O2  UNL     1      24.053  16.982  63.090  1.00  0.00    -0.267 OA
HETATM   13  C10 UNL     1      25.754  15.683  62.292  1.00  0.00     0.089 A 
HETATM   14  C11 UNL     1      26.699  16.696  62.368  1.00  0.00     0.008 A 
ENDROOT
BRANCH   1  15
HETATM   15  C4  UNL     1      29.172  17.218  61.974  1.00  0.00     0.076 C 
BRANCH  15  16
HETATM   16  C3  UNL     1      30.388  16.608  62.666  1.00  0.00     0.211 C 
BRANCH  16  17
HETATM   17  C2  UNL     1      31.590  17.466  62.372  1.00  0.00     0.200 C 
BRANCH  17  18
HETATM   18  O1  UNL     1      32.701  16.851  61.908  1.00  0.00    -0.394 OA
HETATM   19  C1  UNL     1      33.936  17.184  62.325  1.00  0.00     0.201 C 
ENDBRANCH  17  18
ENDBRANCH  16  17
BRANCH  16  20
HETATM   20  N1  UNL     1      30.147  16.611  64.094  1.00  0.00    -0.073 N 
ATOM     21  H13 UNL     1      29.747  15.732  64.423  1.00  0.00     0.274 HD
ATOM     22  H12 UNL     1      31.011  16.585  64.634  1.00  0.00     0.274 HD
ATOM     23  H11 UNL     1      29.565  17.415  64.330  1.00  0.00     0.274 HD
ENDBRANCH  16  20
ENDBRANCH  15  16
ENDBRANCH   1  15
BRANCH  14  24
HETATM   24  C12 UNL     1      26.494  18.048  62.770  1.00  0.00     0.127 C 
HETATM   25  N6  UNL     1      26.092  19.172  62.483  1.00  0.00    -0.280 N 
ATOM     26  H6  UNL     1      25.690  19.395  61.572  1.00  0.00     0.193 HD
BRANCH  25  27
HETATM   27  O3  UNL     1      26.230  20.163  63.543  1.00  0.00    -0.290 OA
ATOM     28  H3  UNL     1      25.885  19.898  64.387  1.00  0.00     0.244 HD
ENDBRANCH  25  27
ENDBRANCH  14  24
BRANCH   8  29
HETATM   29  N4  UNL     1      22.933  12.742  62.088  1.00  0.00    -0.234 N 
ATOM     30  H42 UNL     1      22.958  11.958  62.740  1.00  0.00     0.174 HD
ATOM     31  H41 UNL     1      22.180  12.776  61.401  1.00  0.00     0.174 HD
ENDBRANCH   8  29
TORSDOF 8
ENDMDL
MODEL 3
REMARK VINA RESULT: -6.775447599      2.297      6.077
REMARK  8 active torsions:
REMARK  status: ('A' for Active; 'I' for Inactive)
REMARK    1  A    between atoms: O1_2  and  C2_3 
REMARK    2  A    between atoms: C2_3  and  C3_4 
REMARK    3  A    between atoms: C3_4  and  N1_5 
REMARK    4  A    between atoms: C3_4  and  C4_9 
REMARK    5  A    between atoms: C4_9  and  C5_10 
REMARK    6  A    between atoms: C8_17  and  N4_18 
REMARK    7  A    between atoms: C11_26  and  C12_27 
REMARK    8  A    between atoms: N6_28  and  O3_30 
ROOT
HETATM    1  C5  UNL     1      27.284  17.764  60.953  1.00  0.00    -0.028 A 
HETATM    2  C6  UNL     1      27.323  16.794  59.971  1.00  0.00     0.097 A 
HETATM    3  N2  UNL     1      26.506  15.770  59.914  1.00  0.00    -0.350 N 
ATOM      4  H2  UNL     1      26.588  15.088  59.160  1.00  0.00     0.166 HD
HETATM    5  C7  UNL     1      25.573  15.626  60.841  1.00  0.00     0.137 A 
HETATM    6  N3  UNL     1      24.755  14.562  60.748  1.00  0.00    -0.176 N 
ATOM      7  H3  UNL     1      24.871  13.901  59.980  1.00  0.00     0.186 HD
HETATM    8  C8  UNL     1      23.789  14.363  61.654  1.00  0.00     0.680 A 
HETATM    9  N5  UNL     1      23.662  15.245  62.651  1.00  0.00    -0.155 N 
ATOM     10  H5  UNL     1      22.930  15.099  63.344  1.00  0.00     0.187 HD
HETATM   11  C9  UNL     1      24.477  16.336  62.776  1.00  0.00     0.274 A 
HETATM   12  O2  UNL     1      24.262  17.079  63.737  1.00  0.00    -0.267 OA
HETATM   13  C10 UNL     1      25.469  16.566  61.867  1.00  0.00     0.089 A 
HETATM   14  C11 UNL     1      26.302  17.670  61.979  1.00  0.00     0.008 A 
ENDROOT
BRANCH   1  15
HETATM   15  C4  UNL     1      28.304  18.838  60.898  1.00  0.00     0.076 C 
BRANCH  15  16
HETATM   16  C3  UNL     1      29.104  18.978  62.191  1.00  0.00     0.211 C 
BRANCH  16  17
HETATM   17  C2  UNL     1      30.459  18.353  61.990  1.00  0.00     0.200 C 
BRANCH  17  18
HETATM   18  O1  UNL     1      30.540  17.004  62.029  1.00  0.00    -0.394 OA
HETATM   19  C1  UNL     1      29.964  16.276  63.002  1.00  0.00     0.201 C 
ENDBRANCH  17  18
ENDBRANCH  16  17
BRANCH  16  20
HETATM   20  N1  UNL     1      29.274  20.390  62.469  1.00  0.00    -0.073 N 
ATOM     21  H13 UNL     1      28.409  20.832  62.780  1.00  0.00     0.274 HD
ATOM     22  H12 UNL     1      29.829  20.556  63.308  1.00  0.00     0.274 HD
ATOM     23  H11 UNL     1      29.669  20.843  61.645  1.00  0.00     0.274 HD
ENDBRANCH  16  20
ENDBRANCH  15  16
ENDBRANCH   1  15
BRANCH  14  24
HETATM   24  C12 UNL     1      26.246  18.707  62.956  1.00  0.00     0.127 C 
HETATM   25  N6  UNL     1      25.593  19.593  63.499  1.00  0.00    -0.280 N 
ATOM     26  H6  UNL     1      24.629  19.803  63.239  1.00  0.00     0.193 HD
BRANCH  25  27
HETATM   27  O3  UNL     1      26.300  20.324  64.545  1.00  0.00    -0.290 OA
ATOM     28  H3  UNL     1      25.748  20.656  65.243  1.00  0.00     0.244 HD
ENDBRANCH  25  27
ENDBRANCH  14  24
BRANCH   8  29
HETATM   29  N4  UNL     1      22.987  13.340  61.583  1.00  0.00    -0.234 N 
ATOM     30  H42 UNL     1      22.595  12.939  62.434  1.00  0.00     0.174 HD
ATOM     31  H41 UNL     1      22.736  12.918  60.689  1.00  0.00     0.174 HD
ENDBRANCH   8  29
TORSDOF 8
ENDMDL
MODEL 4
REMARK VINA RESULT: -6.586060099      2.605      6.096
REMARK  8 active torsions:
REMARK  status: ('A' for Active; 'I' for Inactive)
REMARK    1  A    between atoms: O1_2  and  C2_3 
REMARK    2  A    between atoms: C2_3  and  C3_4 
REMARK    3  A    between atoms: C3_4  and  N1_5 
REMARK    4  A    between atoms: C3_4  and  C4_9 
REMARK    5  A    between atoms: C4_9  and  C5_10 
REMARK    6  A    between atoms: C8_17  and  N4_18 
REMARK    7  A    between atoms: C11_26  and  C12_27 
REMARK    8  A    between atoms: N6_28  and  O3_30 
ROOT
HETATM    1  C5  UNL     1      27.928  17.169  63.177  1.00  0.00    -0.028 A 
HETATM    2  C6  UNL     1      28.358  15.952  62.683  1.00  0.00     0.097 A 
HETATM    3  N2  UNL     1      27.557  14.969  62.348  1.00  0.00    -0.350 N 
ATOM      4  H2  UNL     1      27.941  14.095  61.988  1.00  0.00     0.166 HD
HETATM    5  C7  UNL     1      26.250  15.117  62.480  1.00  0.00     0.137 A 
HETATM    6  N3  UNL     1      25.463  14.086  62.126  1.00  0.00    -0.176 N 
ATOM      7  H3  UNL     1      25.884  13.227  61.772  1.00  0.00     0.186 HD
HETATM    8  C8  UNL     1      24.131  14.175  62.233  1.00  0.00     0.680 A 
HETATM    9  N5  UNL     1      23.607  15.313  62.702  1.00  0.00    -0.155 N 
ATOM     10  H5  UNL     1      22.594  15.388  62.788  1.00  0.00     0.187 HD
HETATM   11  C9  UNL     1      24.378  16.381  63.072  1.00  0.00     0.274 A 
HETATM   12  O2  UNL     1      23.780  17.375  63.489  1.00  0.00    -0.267 OA
HETATM   13  C10 UNL     1      25.738  16.319  62.972  1.00  0.00     0.089 A 
HETATM   14  C11 UNL     1      26.533  17.394  63.341  1.00  0.00     0.008 A 
ENDROOT
BRANCH   1  15
HETATM   15  C4  UNL     1      28.964  18.164  63.547  1.00  0.00     0.076 C 
BRANCH  15  16
HETATM   16  C3  UNL     1      29.222  19.199  62.456  1.00  0.00     0.211 C 
BRANCH  16  17
HETATM   17  C2  UNL     1      29.384  20.550  63.102  1.00  0.00     0.200 C 
BRANCH  17  18
HETATM   18  O1  UNL     1      28.604  20.832  64.170  1.00  0.00    -0.394 OA
HETATM   19  C1  UNL     1      29.112  21.255  65.341  1.00  0.00     0.201 C 
ENDBRANCH  17  18
ENDBRANCH  16  17
BRANCH  16  20
HETATM   20  N1  UNL     1      30.457  18.850  61.783  1.00  0.00    -0.073 N 
ATOM     21  H13 UNL     1      31.191  19.541  61.935  1.00  0.00     0.274 HD
ATOM     22  H12 UNL     1      30.922  18.051  62.212  1.00  0.00     0.274 HD
ATOM     23  H11 UNL     1      30.263  18.701  60.793  1.00  0.00     0.274 HD
ENDBRANCH  16  20
ENDBRANCH  15  16
ENDBRANCH   1  15
BRANCH  14  24
HETATM   24  C12 UNL     1      26.107  18.673  63.806  1.00  0.00     0.127 C 
HETATM   25  N6  UNL     1      25.619  19.768  63.543  1.00  0.00    -0.280 N 
ATOM     26  H6  UNL     1      25.338  20.031  62.599  1.00  0.00     0.193 HD
BRANCH  25  27
HETATM   27  O3  UNL     1      25.471  20.665  64.684  1.00  0.00    -0.290 OA
ATOM     28  H3  UNL     1      24.920  20.335  65.384  1.00  0.00     0.244 HD
ENDBRANCH  25  27
ENDBRANCH  14  24
BRANCH   8  29
HETATM   29  N4  UNL     1      23.351  13.189  61.897  1.00  0.00    -0.234 N 
ATOM     30  H42 UNL     1      22.830  13.226  61.022  1.00  0.00     0.174 HD
ATOM     31  H41 UNL     1      23.241  12.368  62.492  1.00  0.00     0.174 HD
ENDBRANCH   8  29
TORSDOF 8
ENDMDL
MODEL 5
REMARK VINA RESULT: -6.517982273      2.638      6.252
REMARK  8 active torsions:
REMARK  status: ('A' for Active; 'I' for Inactive)
REMARK    1  A    between atoms: O1_2  and  C2_3 
REMARK    2  A    between atoms: C2_3  and  C3_4 
REMARK    3  A    between atoms: C3_4  and  N1_5 
REMARK    4  A    between atoms: C3_4  and  C4_9 
REMARK    5  A    between atoms: C4_9  and  C5_10 
REMARK    6  A    between atoms: C8_17  and  N4_18 
REMARK    7  A    between atoms: C11_26  and  C12_27 
REMARK    8  A    between atoms: N6_28  and  O3_30 
ROOT
HETATM    1  C5  UNL     1      27.505  18.853  62.048  1.00  0.00    -0.028 A 
HETATM    2  C6  UNL     1      27.926  18.044  61.010  1.00  0.00     0.097 A 
HETATM    3  N2  UNL     1      27.250  17.015  60.559  1.00  0.00    -0.350 N 
ATOM      4  H2  UNL     1      27.617  16.458  59.788  1.00  0.00     0.166 HD
HETATM    5  C7  UNL     1      26.089  16.703  61.110  1.00  0.00     0.137 A 
HETATM    6  N3  UNL     1      25.427  15.640  60.619  1.00  0.00    -0.176 N 
ATOM      7  H3  UNL     1      25.828  15.106  59.848  1.00  0.00     0.186 HD
HETATM    8  C8  UNL     1      24.245  15.275  61.133  1.00  0.00     0.680 A 
HETATM    9  N5  UNL     1      23.744  15.993  62.145  1.00  0.00    -0.155 N 
ATOM     10  H5  UNL     1      22.846  15.720  62.541  1.00  0.00     0.187 HD
HETATM   11  C9  UNL     1      24.391  17.078  62.668  1.00  0.00     0.274 A 
HETATM   12  O2  UNL     1      23.829  17.659  63.600  1.00  0.00    -0.267 OA
HETATM   13  C10 UNL     1      25.596  17.474  62.164  1.00  0.00     0.089 A 
HETATM   14  C11 UNL     1      26.263  18.574  62.683  1.00  0.00     0.008 A 
ENDROOT
BRANCH   1  15
HETATM   15  C4  UNL     1      28.405  19.956  62.467  1.00  0.00     0.076 C 
BRANCH  15  16
HETATM   16  C3  UNL     1      29.558  19.491  63.351  1.00  0.00     0.211 C 
BRANCH  16  17
HETATM   17  C2  UNL     1      29.787  20.519  64.426  1.00  0.00     0.200 C 
BRANCH  17  18
HETATM   18  O1  UNL     1      28.705  21.165  64.917  1.00  0.00    -0.394 OA
HETATM   19  C1  UNL     1      28.747  21.875  66.059  1.00  0.00     0.201 C 
ENDBRANCH  17  18
ENDBRANCH  16  17
BRANCH  16  20
HETATM   20  N1  UNL     1      29.178  18.238  63.972  1.00  0.00    -0.073 N 
ATOM     21  H13 UNL     1      28.296  18.308  64.479  1.00  0.00     0.274 HD
ATOM     22  H12 UNL     1      28.895  17.536  63.290  1.00  0.00     0.274 HD
ATOM     23  H11 UNL     1      29.943  17.918  64.565  1.00  0.00     0.274 HD
ENDBRANCH  16  20
ENDBRANCH  15  16
ENDBRANCH   1  15
BRANCH  14  24
HETATM   24  C12 UNL     1      25.823  19.449  63.719  1.00  0.00     0.127 C 
HETATM   25  N6  UNL     1      25.833  19.742  64.911  1.00  0.00    -0.280 N 
ATOM     26  H6  UNL     1      26.353  19.204  65.604  1.00  0.00     0.193 HD
BRANCH  25  27
HETATM   27  O3  UNL     1      25.046  20.919  65.262  1.00  0.00    -0.290 OA
ATOM     28  H3  UNL     1      24.107  20.814  65.172  1.00  0.00     0.244 HD
ENDBRANCH  25  27
ENDBRANCH  14  24
BRANCH   8  29
HETATM   29  N4  UNL     1      23.588  14.250  60.674  1.00  0.00    -0.234 N 
ATOM     30  H42 UNL     1      23.855  13.830  59.783  1.00  0.00     0.174 HD
ATOM     31  H41 UNL     1      22.801  13.847  61.182  1.00  0.00     0.174 HD
ENDBRANCH   8  29
TORSDOF 8
ENDMDL
