MODEL 1
REMARK VINA RESULT: -7.193751532      0.000      0.000
REMARK  7 active torsions:
REMARK  status: ('A' for Active; 'I' for Inactive)
REMARK    1  A    between atoms: N1_1  and  S1_4 
REMARK    2  A    between atoms: S1_4  and  N2_7 
REMARK    3  A    between atoms: N2_7  and  C1_9 
REMARK    4  A    between atoms: C1_9  and  C2_10 
REMARK    5  A    between atoms: C2_10  and  O3_11 
REMARK    6  A    between atoms: O3_11  and  N3_12 
REMARK    7  A    between atoms: C7_25  and  O5_26 
ROOT
HETATM    1  N3  UNL     1      27.003  16.411  63.687  1.00  0.00    -0.265 N 
ATOM      2  H3  UNL     1      27.916  15.998  63.878  1.00  0.00     0.194 HD
HETATM    3  C3  UNL     1      26.602  15.849  62.724  1.00  0.00     0.106 C 
HETATM    4  C4  UNL     1      27.281  14.731  61.947  1.00  0.00     0.117 C 
HETATM    5  N4  UNL     1      26.780  14.797  60.655  1.00  0.00    -0.372 N 
ATOM      6  H4  UNL     1      27.277  14.485  59.821  1.00  0.00     0.161 HD
HETATM    7  C5  UNL     1      25.481  15.358  60.657  1.00  0.00     0.248 C 
HETATM    8  N5  UNL     1      24.442  14.308  60.637  1.00  0.00    -0.317 N 
ATOM      9  H5  UNL     1      24.189  13.739  59.829  1.00  0.00     0.166 HD
HETATM   10  C6  UNL     1      23.842  14.217  61.947  1.00  0.00     0.320 C 
HETATM   11  O4  UNL     1      23.082  13.295  62.365  1.00  0.00    -0.247 OA
HETATM   12  N6  UNL     1      24.255  15.329  62.696  1.00  0.00    -0.302 N 
ATOM     13  H6  UNL     1      23.865  15.609  63.596  1.00  0.00     0.167 HD
HETATM   14  C7  UNL     1      25.309  16.013  62.004  1.00  0.00     0.222 C 
ENDROOT
BRANCH   1  15
HETATM   15  O3  UNL     1      26.826  17.315  64.626  1.00  0.00    -0.279 OA
BRANCH  15  16
HETATM   16  C2  UNL     1      27.319  18.648  64.262  1.00  0.00     0.221 C 
BRANCH  16  17
HETATM   17  C1  UNL     1      26.181  19.523  64.676  1.00  0.00     0.162 C 
BRANCH  17  18
HETATM   18  N2  UNL     1      25.020  19.452  63.933  1.00  0.00    -0.301 N 
ATOM     19  H2  UNL     1      24.956  19.756  62.960  1.00  0.00     0.173 HD
BRANCH  18  20
HETATM   20  S1  UNL     1      23.693  18.799  64.811  1.00  0.00     0.312 S 
HETATM   21  O1  UNL     1      22.708  19.898  65.128  1.00  0.00    -0.183 OA
HETATM   22  O2  UNL     1      22.977  17.871  63.822  1.00  0.00    -0.183 OA
BRANCH  20  23
HETATM   23  N1  UNL     1      24.209  18.023  66.206  1.00  0.00    -0.312 N 
ATOM     24  H12 UNL     1      23.673  18.008  67.074  1.00  0.00     0.170 HD
ATOM     25  H11 UNL     1      25.116  17.578  66.067  1.00  0.00     0.170 HD
ENDBRANCH  20  23
ENDBRANCH  18  20
ENDBRANCH  17  18
ENDBRANCH  16  17
ENDBRANCH  15  16
ENDBRANCH   1  15
BRANCH  14  26
HETATM   26  O5  UNL     1      24.974  17.371  61.777  1.00  0.00    -0.362 OA
ATOM     27  H5  UNL     1      24.341  17.482  61.077  1.00  0.00     0.213 HD
ENDBRANCH  14  26
TORSDOF 7
ENDMDL
MODEL 2
REMARK VINA RESULT: -6.655700777      2.716      4.013
REMARK  7 active torsions:
REMARK  status: ('A' for Active; 'I' for Inactive)
REMARK    1  A    between atoms: N1_1  and  S1_4 
REMARK    2  A    between atoms: S1_4  and  N2_7 
REMARK    3  A    between atoms: N2_7  and  C1_9 
REMARK    4  A    between atoms: C1_9  and  C2_10 
REMARK    5  A    between atoms: C2_10  and  O3_11 
REMARK    6  A    between atoms: O3_11  and  N3_12 
REMARK    7  A    between atoms: C7_25  and  O5_26 
ROOT
HETATM    1  N3  UNL     1      24.428  17.436  62.685  1.00  0.00    -0.265 N 
ATOM      2  H3  UNL     1      23.417  17.307  62.741  1.00  0.00     0.194 HD
HETATM    3  C3  UNL     1      24.799  16.639  61.891  1.00  0.00     0.106 C 
HETATM    4  C4  UNL     1      23.959  15.650  61.098  1.00  0.00     0.117 C 
HETATM    5  N4  UNL     1      24.799  14.594  60.778  1.00  0.00    -0.372 N 
ATOM      6  H4  UNL     1      24.493  13.635  60.616  1.00  0.00     0.161 HD
HETATM    7  C5  UNL     1      26.141  15.036  60.708  1.00  0.00     0.248 C 
HETATM    8  N5  UNL     1      26.541  15.324  59.315  1.00  0.00    -0.317 N 
ATOM      9  H5  UNL     1      26.740  14.625  58.599  1.00  0.00     0.166 HD
HETATM   10  C6  UNL     1      26.606  16.754  59.133  1.00  0.00     0.320 C 
HETATM   11  O4  UNL     1      26.697  17.369  58.030  1.00  0.00    -0.247 OA
HETATM   12  N6  UNL     1      26.538  17.361  60.396  1.00  0.00    -0.302 N 
ATOM     13  H6  UNL     1      26.720  18.347  60.584  1.00  0.00     0.167 HD
HETATM   14  C7  UNL     1      26.176  16.384  61.381  1.00  0.00     0.222 C 
ENDROOT
BRANCH   1  15
HETATM   15  O3  UNL     1      24.702  18.408  63.528  1.00  0.00    -0.279 OA
BRANCH  15  16
HETATM   16  C2  UNL     1      25.713  18.051  64.531  1.00  0.00     0.221 C 
BRANCH  16  17
HETATM   17  C1  UNL     1      26.708  19.155  64.373  1.00  0.00     0.162 C 
BRANCH  17  18
HETATM   18  N2  UNL     1      27.972  18.814  63.934  1.00  0.00    -0.301 N 
ATOM     19  H2  UNL     1      28.578  18.156  64.424  1.00  0.00     0.173 HD
BRANCH  18  20
HETATM   20  S1  UNL     1      28.419  19.612  62.477  1.00  0.00     0.312 S 
HETATM   21  O1  UNL     1      28.978  18.604  61.501  1.00  0.00    -0.183 OA
HETATM   22  O2  UNL     1      27.099  20.096  61.864  1.00  0.00    -0.183 OA
BRANCH  20  23
HETATM   23  N1  UNL     1      29.516  20.847  62.771  1.00  0.00    -0.312 N 
ATOM     24  H12 UNL     1      30.350  21.006  62.207  1.00  0.00     0.170 HD
ATOM     25  H11 UNL     1      29.236  21.405  63.577  1.00  0.00     0.170 HD
ENDBRANCH  20  23
ENDBRANCH  18  20
ENDBRANCH  17  18
ENDBRANCH  16  17
ENDBRANCH  15  16
ENDBRANCH   1  15
BRANCH  14  26
HETATM   26  O5  UNL     1      27.142  16.319  62.416  1.00  0.00    -0.362 OA
ATOM     27  H5  UNL     1      26.837  16.704  63.230  1.00  0.00     0.213 HD
ENDBRANCH  14  26
TORSDOF 7
ENDMDL
MODEL 3
REMARK VINA RESULT: -6.642869659      2.644      5.187
REMARK  7 active torsions:
REMARK  status: ('A' for Active; 'I' for Inactive)
REMARK    1  A    between atoms: N1_1  and  S1_4 
REMARK    2  A    between atoms: S1_4  and  N2_7 
REMARK    3  A    between atoms: N2_7  and  C1_9 
REMARK    4  A    between atoms: C1_9  and  C2_10 
REMARK    5  A    between atoms: C2_10  and  O3_11 
REMARK    6  A    between atoms: O3_11  and  N3_12 
REMARK    7  A    between atoms: C7_25  and  O5_26 
ROOT
HETATM    1  N3  UNL     1      26.929  16.613  59.961  1.00  0.00    -0.265 N 
ATOM      2  H3  UNL     1      27.055  16.941  59.003  1.00  0.00     0.194 HD
HETATM    3  C3  UNL     1      27.369  17.473  60.645  1.00  0.00     0.106 C 
HETATM    4  C4  UNL     1      27.972  18.799  60.205  1.00  0.00     0.117 C 
HETATM    5  N4  UNL     1      28.839  19.187  61.216  1.00  0.00    -0.372 N 
ATOM      6  H4  UNL     1      29.660  19.776  61.085  1.00  0.00     0.161 HD
HETATM    7  C5  UNL     1      28.422  18.648  62.457  1.00  0.00     0.248 C 
HETATM    8  N5  UNL     1      27.633  19.629  63.230  1.00  0.00    -0.317 N 
ATOM      9  H5  UNL     1      28.010  20.443  63.716  1.00  0.00     0.166 HD
HETATM   10  C6  UNL     1      26.241  19.248  63.187  1.00  0.00     0.320 C 
HETATM   11  O4  UNL     1      25.255  19.958  63.543  1.00  0.00    -0.247 OA
HETATM   12  N6  UNL     1      26.157  17.948  62.667  1.00  0.00    -0.302 N 
ATOM     13  H6  UNL     1      25.320  17.366  62.670  1.00  0.00     0.167 HD
HETATM   14  C7  UNL     1      27.430  17.561  62.131  1.00  0.00     0.222 C 
ENDROOT
BRANCH   1  15
HETATM   15  O3  UNL     1      26.353  15.435  59.852  1.00  0.00    -0.279 OA
BRANCH  15  16
HETATM   16  C2  UNL     1      27.234  14.313  60.198  1.00  0.00     0.221 C 
BRANCH  16  17
HETATM   17  C1  UNL     1      26.388  13.538  61.154  1.00  0.00     0.162 C 
BRANCH  17  18
HETATM   18  N2  UNL     1      25.819  14.230  62.205  1.00  0.00    -0.301 N 
ATOM     19  H2  UNL     1      26.344  14.542  63.022  1.00  0.00     0.173 HD
BRANCH  18  20
HETATM   20  S1  UNL     1      24.135  14.511  61.997  1.00  0.00     0.312 S 
HETATM   21  O1  UNL     1      23.352  13.557  62.867  1.00  0.00    -0.183 OA
HETATM   22  O2  UNL     1      23.888  15.907  62.583  1.00  0.00    -0.183 OA
BRANCH  20  23
HETATM   23  N1  UNL     1      23.688  14.371  60.386  1.00  0.00    -0.312 N 
ATOM     24  H12 UNL     1      23.101  15.050  59.903  1.00  0.00     0.170 HD
ATOM     25  H11 UNL     1      24.080  13.528  59.966  1.00  0.00     0.170 HD
ENDBRANCH  20  23
ENDBRANCH  18  20
ENDBRANCH  17  18
ENDBRANCH  16  17
ENDBRANCH  15  16
ENDBRANCH   1  15
BRANCH  14  26
HETATM   26  O5  UNL     1      27.896  16.366  62.733  1.00  0.00    -0.362 OA
ATOM     27  H5  UNL     1      27.455  16.169  63.551  1.00  0.00     0.213 HD
ENDBRANCH  14  26
TORSDOF 7
ENDMDL
MODEL 4
REMARK VINA RESULT: -6.610504314      1.974      2.355
REMARK  7 active torsions:
REMARK  status: ('A' for Active; 'I' for Inactive)
REMARK    1  A    between atoms: N1_1  and  S1_4 
REMARK    2  A    between atoms: S1_4  and  N2_7 
REMARK    3  A    between atoms: N2_7  and  C1_9 
REMARK    4  A    between atoms: C1_9  and  C2_10 
REMARK    5  A    between atoms: C2_10  and  O3_11 
REMARK    6  A    between atoms: O3_11  and  N3_12 
REMARK    7  A    between atoms: C7_25  and  O5_26 
ROOT
HETATM    1  N3  UNL     1      27.086  19.254  61.540  1.00  0.00    -0.265 N 
ATOM      2  H3  UNL     1      27.726  19.780  60.946  1.00  0.00     0.194 HD
HETATM    3  C3  UNL     1      26.844  18.263  60.938  1.00  0.00     0.106 C 
HETATM    4  C4  UNL     1      27.387  17.840  59.581  1.00  0.00     0.117 C 
HETATM    5  N4  UNL     1      26.444  16.981  59.036  1.00  0.00    -0.372 N 
ATOM      6  H4  UNL     1      26.296  16.838  58.037  1.00  0.00     0.161 HD
HETATM    7  C5  UNL     1      25.718  16.330  60.061  1.00  0.00     0.248 C 
HETATM    8  N5  UNL     1      26.271  14.989  60.343  1.00  0.00    -0.317 N 
ATOM      9  H5  UNL     1      26.161  14.166  59.751  1.00  0.00     0.166 HD
HETATM   10  C6  UNL     1      26.990  15.033  61.594  1.00  0.00     0.320 C 
HETATM   11  O4  UNL     1      27.773  14.145  62.044  1.00  0.00    -0.247 OA
HETATM   12  N6  UNL     1      26.685  16.244  62.234  1.00  0.00    -0.302 N 
ATOM     13  H6  UNL     1      26.923  16.475  63.198  1.00  0.00     0.167 HD
HETATM   14  C7  UNL     1      25.988  17.107  61.325  1.00  0.00     0.222 C 
ENDROOT
BRANCH   1  15
HETATM   15  O3  UNL     1      26.918  19.996  62.614  1.00  0.00    -0.279 OA
BRANCH  15  16
HETATM   16  C2  UNL     1      27.533  19.434  63.822  1.00  0.00     0.221 C 
BRANCH  16  17
HETATM   17  C1  UNL     1      26.335  19.033  64.621  1.00  0.00     0.162 C 
BRANCH  17  18
HETATM   18  N2  UNL     1      25.108  19.514  64.212  1.00  0.00    -0.301 N 
ATOM     19  H2  UNL     1      24.993  20.198  63.463  1.00  0.00     0.173 HD
BRANCH  18  20
HETATM   20  S1  UNL     1      23.791  18.843  65.092  1.00  0.00     0.312 S 
HETATM   21  O1  UNL     1      22.857  19.948  65.525  1.00  0.00    -0.183 OA
HETATM   22  O2  UNL     1      23.006  18.014  64.066  1.00  0.00    -0.183 OA
BRANCH  20  23
HETATM   23  N1  UNL     1      24.328  17.950  66.406  1.00  0.00    -0.312 N 
ATOM     24  H12 UNL     1      23.816  17.161  66.799  1.00  0.00     0.170 HD
ATOM     25  H11 UNL     1      25.223  18.300  66.750  1.00  0.00     0.170 HD
ENDBRANCH  20  23
ENDBRANCH  18  20
ENDBRANCH  17  18
ENDBRANCH  16  17
ENDBRANCH  15  16
ENDBRANCH   1  15
BRANCH  14  26
HETATM   26  O5  UNL     1      24.736  17.503  61.856  1.00  0.00    -0.362 OA
ATOM     27  H5  UNL     1      24.121  16.782  61.929  1.00  0.00     0.213 HD
ENDBRANCH  14  26
TORSDOF 7
ENDMDL
MODEL 5
REMARK VINA RESULT: -6.597162802      1.583      1.672
REMARK  7 active torsions:
REMARK  status: ('A' for Active; 'I' for Inactive)
REMARK    1  A    between atoms: N1_1  and  S1_4 
REMARK    2  A    between atoms: S1_4  and  N2_7 
REMARK    3  A    between atoms: N2_7  and  C1_9 
REMARK    4  A    between atoms: C1_9  and  C2_10 
REMARK    5  A    between atoms: C2_10  and  O3_11 
REMARK    6  A    between atoms: O3_11  and  N3_12 
REMARK    7  A    between atoms: C7_25  and  O5_26 
ROOT
HETATM    1  N3  UNL     1      27.684  17.713  61.494  1.00  0.00    -0.265 N 
ATOM      2  H3  UNL     1      28.532  17.570  62.043  1.00  0.00     0.194 HD
HETATM    3  C3  UNL     1      27.369  16.634  61.120  1.00  0.00     0.106 C 
HETATM    4  C4  UNL     1      28.055  15.309  61.411  1.00  0.00     0.117 C 
HETATM    5  N4  UNL     1      27.729  14.463  60.361  1.00  0.00    -0.372 N 
ATOM      6  H4  UNL     1      28.304  13.684  60.041  1.00  0.00     0.161 HD
HETATM    7  C5  UNL     1      26.486  14.834  59.797  1.00  0.00     0.248 C 
HETATM    8  N5  UNL     1      25.383  14.017  60.342  1.00  0.00    -0.317 N 
ATOM      9  H5  UNL     1      25.193  13.043  60.106  1.00  0.00     0.166 HD
HETATM   10  C6  UNL     1      24.616  14.821  61.264  1.00  0.00     0.320 C 
HETATM   11  O4  UNL     1      23.743  14.404  62.080  1.00  0.00    -0.247 OA
HETATM   12  N6  UNL     1      25.011  16.159  61.113  1.00  0.00    -0.302 N 
ATOM     13  H6  UNL     1      24.532  16.962  61.519  1.00  0.00     0.167 HD
HETATM   14  C7  UNL     1      26.193  16.224  60.303  1.00  0.00     0.222 C 
ENDROOT
BRANCH   1  15
HETATM   15  O3  UNL     1      27.456  19.009  61.536  1.00  0.00    -0.279 OA
BRANCH  15  16
HETATM   16  C2  UNL     1      27.316  19.539  62.897  1.00  0.00     0.221 C 
BRANCH  16  17
HETATM   17  C1  UNL     1      26.071  18.861  63.367  1.00  0.00     0.162 C 
BRANCH  17  18
HETATM   18  N2  UNL     1      25.194  19.601  64.134  1.00  0.00    -0.301 N 
ATOM     19  H2  UNL     1      25.322  20.594  64.334  1.00  0.00     0.173 HD
BRANCH  18  20
HETATM   20  S1  UNL     1      23.864  18.680  64.719  1.00  0.00     0.312 S 
HETATM   21  O1  UNL     1      22.645  19.566  64.827  1.00  0.00    -0.183 OA
HETATM   22  O2  UNL     1      23.551  17.676  63.602  1.00  0.00    -0.183 OA
BRANCH  20  23
HETATM   23  N1  UNL     1      24.223  17.958  66.190  1.00  0.00    -0.312 N 
ATOM     24  H12 UNL     1      23.521  17.531  66.795  1.00  0.00     0.170 HD
ATOM     25  H11 UNL     1      25.222  18.005  66.391  1.00  0.00     0.170 HD
ENDBRANCH  20  23
ENDBRANCH  18  20
ENDBRANCH  17  18
ENDBRANCH  16  17
ENDBRANCH  15  16
ENDBRANCH   1  15
BRANCH  14  26
HETATM   26  O5  UNL     1      25.992  17.054  59.172  1.00  0.00    -0.362 OA
ATOM     27  H5  UNL     1      25.206  17.584  59.239  1.00  0.00     0.213 HD
ENDBRANCH  14  26
TORSDOF 7
ENDMDL
