MODEL 1
REMARK VINA RESULT: -7.784929008      0.000      0.000
REMARK  6 active torsions:
REMARK  status: ('A' for Active; 'I' for Inactive)
REMARK    1  A    between atoms: C6_16  and  N4_17 
REMARK    2  A    between atoms: N4_17  and  C7_19 
REMARK    3  A    between atoms: C7_19  and  C8_20 
REMARK    4  A    between atoms: C8_20  and  C9_21 
REMARK    5  A    between atoms: C9_21  and  C10_22 
REMARK    6  A    between atoms: C10_22  and  N5_23 
ROOT
HETATM    1  N1  UNL     1      26.288  14.664  59.397  1.00  0.00    -0.383 N 
ATOM      2  H11 UNL     1      26.853  15.353  58.901  1.00  0.00     0.157 HD
ATOM      3  H12 UNL     1      26.014  13.746  59.049  1.00  0.00     0.157 HD
HETATM    4  C1  UNL     1      25.899  14.986  60.540  1.00  0.00     0.132 C 
HETATM    5  N2  UNL     1      25.143  14.063  61.206  1.00  0.00    -0.293 N 
ATOM      6  H2  UNL     1      25.275  13.083  60.958  1.00  0.00     0.172 HD
HETATM    7  C2  UNL     1      24.237  14.344  62.162  1.00  0.00     0.328 C 
HETATM    8  O1  UNL     1      23.682  13.339  62.693  1.00  0.00    -0.247 OA
HETATM    9  N3  UNL     1      23.799  15.502  62.673  1.00  0.00    -0.275 N 
ATOM     10  H3  UNL     1      22.936  15.462  63.214  1.00  0.00     0.173 HD
HETATM   11  C3  UNL     1      24.377  16.719  62.550  1.00  0.00     0.266 C 
HETATM   12  O2  UNL     1      23.811  17.724  63.039  1.00  0.00    -0.267 OA
HETATM   13  C4  UNL     1      25.588  17.026  61.915  1.00  0.00     0.118 A 
HETATM   14  C5  UNL     1      26.123  18.242  62.254  1.00  0.00     0.234 A 
HETATM   15  O3  UNL     1      25.482  18.953  63.081  1.00  0.00    -0.283 OA
HETATM   16  C6  UNL     1      27.323  18.664  61.706  1.00  0.00     0.168 A 
HETATM   17  N6  UNL     1      27.944  17.850  60.835  1.00  0.00    -0.282 N 
ATOM     18  H6  UNL     1      28.829  18.139  60.419  1.00  0.00     0.188 HD
HETATM   19  N7  UNL     1      27.419  16.677  60.512  1.00  0.00    -0.294 N 
ATOM     20  H7  UNL     1      27.919  16.086  59.847  1.00  0.00     0.187 HD
HETATM   21  C11 UNL     1      26.272  16.236  61.014  1.00  0.00     0.111 A 
ENDROOT
BRANCH  16  22
HETATM   22  N4  UNL     1      27.807  19.820  62.047  1.00  0.00    -0.372 N 
ATOM     23  H4  UNL     1      27.303  20.685  61.848  1.00  0.00     0.161 HD
BRANCH  22  24
HETATM   24  C7  UNL     1      29.086  19.832  62.719  1.00  0.00     0.121 C 
BRANCH  24  25
HETATM   25  C8  UNL     1      28.800  19.806  64.211  1.00  0.00     0.021 C 
BRANCH  25  26
HETATM   26  C9  UNL     1      29.810  20.763  64.849  1.00  0.00     0.029 C 
BRANCH  26  27
HETATM   27  C10 UNL     1      29.046  21.561  65.895  1.00  0.00     0.229 C 
BRANCH  27  28
HETATM   28  N5  UNL     1      29.783  22.784  66.120  1.00  0.00    -0.079 N 
ATOM     29  H53 UNL     1      30.579  22.662  66.746  1.00  0.00     0.274 HD
ATOM     30  H52 UNL     1      30.307  23.091  65.300  1.00  0.00     0.274 HD
ATOM     31  H51 UNL     1      29.116  23.481  66.452  1.00  0.00     0.274 HD
ENDBRANCH  27  28
ENDBRANCH  26  27
ENDBRANCH  25  26
ENDBRANCH  24  25
ENDBRANCH  22  24
ENDBRANCH  16  22
TORSDOF 6
ENDMDL
MODEL 2
REMARK VINA RESULT: -7.596929903      1.310      1.575
REMARK  6 active torsions:
REMARK  status: ('A' for Active; 'I' for Inactive)
REMARK    1  A    between atoms: C6_16  and  N4_17 
REMARK    2  A    between atoms: N4_17  and  C7_19 
REMARK    3  A    between atoms: C7_19  and  C8_20 
REMARK    4  A    between atoms: C8_20  and  C9_21 
REMARK    5  A    between atoms: C9_21  and  C10_22 
REMARK    6  A    between atoms: C10_22  and  N5_23 
ROOT
HETATM    1  N1  UNL     1      26.246  14.634  59.415  1.00  0.00    -0.383 N 
ATOM      2  H11 UNL     1      26.833  15.310  58.926  1.00  0.00     0.157 HD
ATOM      3  H12 UNL     1      25.948  13.725  59.060  1.00  0.00     0.157 HD
HETATM    4  C1  UNL     1      25.857  14.961  60.557  1.00  0.00     0.132 C 
HETATM    5  N2  UNL     1      25.072  14.056  61.212  1.00  0.00    -0.293 N 
ATOM      6  H2  UNL     1      25.178  13.073  60.961  1.00  0.00     0.172 HD
HETATM    7  C2  UNL     1      24.168  14.356  62.164  1.00  0.00     0.328 C 
HETATM    8  O1  UNL     1      23.581  13.365  62.686  1.00  0.00    -0.247 OA
HETATM    9  N3  UNL     1      23.759  15.524  62.679  1.00  0.00    -0.275 N 
ATOM     10  H3  UNL     1      22.891  15.505  63.214  1.00  0.00     0.173 HD
HETATM   11  C3  UNL     1      24.371  16.725  62.566  1.00  0.00     0.266 C 
HETATM   12  O2  UNL     1      23.830  17.743  63.057  1.00  0.00    -0.267 OA
HETATM   13  C4  UNL     1      25.594  17.001  61.941  1.00  0.00     0.118 A 
HETATM   14  C5  UNL     1      26.161  18.201  62.291  1.00  0.00     0.234 A 
HETATM   15  O3  UNL     1      25.534  18.925  63.117  1.00  0.00    -0.283 OA
HETATM   16  C6  UNL     1      27.376  18.592  61.752  1.00  0.00     0.168 A 
HETATM   17  N6  UNL     1      27.980  17.765  60.881  1.00  0.00    -0.282 N 
ATOM     18  H6  UNL     1      28.876  18.031  60.473  1.00  0.00     0.188 HD
HETATM   19  N7  UNL     1      27.425  16.609  60.548  1.00  0.00    -0.294 N 
ATOM     20  H7  UNL     1      27.913  16.008  59.883  1.00  0.00     0.187 HD
HETATM   21  C11 UNL     1      26.263  16.198  61.041  1.00  0.00     0.111 A 
ENDROOT
BRANCH  16  22
HETATM   22  N4  UNL     1      27.890  19.731  62.103  1.00  0.00    -0.372 N 
ATOM     23  H4  UNL     1      27.420  20.612  61.891  1.00  0.00     0.161 HD
BRANCH  22  24
HETATM   24  C7  UNL     1      29.152  19.703  62.806  1.00  0.00     0.121 C 
BRANCH  24  25
HETATM   25  C8  UNL     1      28.857  20.040  64.257  1.00  0.00     0.021 C 
BRANCH  25  26
HETATM   26  C9  UNL     1      28.881  18.709  65.011  1.00  0.00     0.029 C 
BRANCH  26  27
HETATM   27  C10 UNL     1      27.647  18.694  65.900  1.00  0.00     0.229 C 
BRANCH  27  28
HETATM   28  N5  UNL     1      26.932  17.470  65.615  1.00  0.00    -0.079 N 
ATOM     29  H53 UNL     1      27.261  17.002  64.771  1.00  0.00     0.274 HD
ATOM     30  H52 UNL     1      27.145  16.721  66.273  1.00  0.00     0.274 HD
ATOM     31  H51 UNL     1      25.939  17.703  65.583  1.00  0.00     0.274 HD
ENDBRANCH  27  28
ENDBRANCH  26  27
ENDBRANCH  25  26
ENDBRANCH  24  25
ENDBRANCH  22  24
ENDBRANCH  16  22
TORSDOF 6
ENDMDL
MODEL 3
REMARK VINA RESULT: -7.531831959      1.891      2.621
REMARK  6 active torsions:
REMARK  status: ('A' for Active; 'I' for Inactive)
REMARK    1  A    between atoms: C6_16  and  N4_17 
REMARK    2  A    between atoms: N4_17  and  C7_19 
REMARK    3  A    between atoms: C7_19  and  C8_20 
REMARK    4  A    between atoms: C8_20  and  C9_21 
REMARK    5  A    between atoms: C9_21  and  C10_22 
REMARK    6  A    between atoms: C10_22  and  N5_23 
ROOT
HETATM    1  N1  UNL     1      23.394  17.458  63.608  1.00  0.00    -0.383 N 
ATOM      2  H11 UNL     1      23.794  18.375  63.807  1.00  0.00     0.157 HD
ATOM      3  H12 UNL     1      22.483  17.118  63.916  1.00  0.00     0.157 HD
HETATM    4  C1  UNL     1      24.095  16.684  62.923  1.00  0.00     0.132 C 
HETATM    5  N2  UNL     1      23.559  15.456  62.656  1.00  0.00    -0.293 N 
ATOM      6  H2  UNL     1      22.542  15.379  62.650  1.00  0.00     0.172 HD
HETATM    7  C2  UNL     1      24.265  14.338  62.401  1.00  0.00     0.328 C 
HETATM    8  O1  UNL     1      23.576  13.314  62.125  1.00  0.00    -0.247 OA
HETATM    9  N3  UNL     1      25.582  14.091  62.381  1.00  0.00    -0.275 N 
ATOM     10  H3  UNL     1      25.860  13.111  62.400  1.00  0.00     0.173 HD
HETATM   11  C3  UNL     1      26.582  15.001  62.339  1.00  0.00     0.266 C 
HETATM   12  O2  UNL     1      27.772  14.613  62.385  1.00  0.00    -0.267 OA
HETATM   13  C4  UNL     1      26.463  16.394  62.245  1.00  0.00     0.118 A 
HETATM   14  C5  UNL     1      27.602  17.043  61.843  1.00  0.00     0.234 A 
HETATM   15  O3  UNL     1      28.626  16.338  61.611  1.00  0.00    -0.283 OA
HETATM   16  C6  UNL     1      27.617  18.421  61.700  1.00  0.00     0.168 A 
HETATM   17  N6  UNL     1      26.487  19.099  61.965  1.00  0.00    -0.282 N 
ATOM     18  H6  UNL     1      26.474  20.114  61.865  1.00  0.00     0.188 HD
HETATM   19  N7  UNL     1      25.391  18.464  62.353  1.00  0.00    -0.294 N 
ATOM     20  H7  UNL     1      24.552  19.012  62.546  1.00  0.00     0.187 HD
HETATM   21  C11 UNL     1      25.335  17.146  62.503  1.00  0.00     0.111 A 
ENDROOT
BRANCH  16  22
HETATM   22  N4  UNL     1      28.710  19.008  61.316  1.00  0.00    -0.372 N 
ATOM     23  H4  UNL     1      28.830  19.330  60.355  1.00  0.00     0.161 HD
BRANCH  22  24
HETATM   24  C7  UNL     1      29.749  19.188  62.305  1.00  0.00     0.121 C 
BRANCH  24  25
HETATM   25  C8  UNL     1      29.440  20.481  63.039  1.00  0.00     0.021 C 
BRANCH  25  26
HETATM   26  C9  UNL     1      29.231  20.092  64.504  1.00  0.00     0.029 C 
BRANCH  26  27
HETATM   27  C10 UNL     1      30.222  20.914  65.314  1.00  0.00     0.229 C 
BRANCH  27  28
HETATM   28  N5  UNL     1      29.526  22.098  65.764  1.00  0.00    -0.079 N 
ATOM     29  H53 UNL     1      29.777  22.934  65.236  1.00  0.00     0.274 HD
ATOM     30  H52 UNL     1      28.533  22.090  65.532  1.00  0.00     0.274 HD
ATOM     31  H51 UNL     1      29.702  22.189  66.765  1.00  0.00     0.274 HD
ENDBRANCH  27  28
ENDBRANCH  26  27
ENDBRANCH  25  26
ENDBRANCH  24  25
ENDBRANCH  22  24
ENDBRANCH  16  22
TORSDOF 6
ENDMDL
MODEL 4
REMARK VINA RESULT: -7.505065949      1.419      2.071
REMARK  6 active torsions:
REMARK  status: ('A' for Active; 'I' for Inactive)
REMARK    1  A    between atoms: C6_16  and  N4_17 
REMARK    2  A    between atoms: N4_17  and  C7_19 
REMARK    3  A    between atoms: C7_19  and  C8_20 
REMARK    4  A    between atoms: C8_20  and  C9_21 
REMARK    5  A    between atoms: C9_21  and  C10_22 
REMARK    6  A    between atoms: C10_22  and  N5_23 
ROOT
HETATM    1  N1  UNL     1      26.292  14.709  59.544  1.00  0.00    -0.383 N 
ATOM      2  H11 UNL     1      26.900  15.393  59.094  1.00  0.00     0.157 HD
ATOM      3  H12 UNL     1      26.008  13.808  59.160  1.00  0.00     0.157 HD
HETATM    4  C1  UNL     1      25.857  15.015  60.675  1.00  0.00     0.132 C 
HETATM    5  N2  UNL     1      25.042  14.100  61.280  1.00  0.00    -0.293 N 
ATOM      6  H2  UNL     1      25.158  13.122  61.014  1.00  0.00     0.172 HD
HETATM    7  C2  UNL     1      24.100  14.385  62.199  1.00  0.00     0.328 C 
HETATM    8  O1  UNL     1      23.490  13.385  62.676  1.00  0.00    -0.247 OA
HETATM    9  N3  UNL     1      23.672  15.543  62.718  1.00  0.00    -0.275 N 
ATOM     10  H3  UNL     1      22.782  15.516  63.215  1.00  0.00     0.173 HD
HETATM   11  C3  UNL     1      24.290  16.744  62.653  1.00  0.00     0.266 C 
HETATM   12  O2  UNL     1      23.731  17.754  63.141  1.00  0.00    -0.267 OA
HETATM   13  C4  UNL     1      25.539  17.030  62.085  1.00  0.00     0.118 A 
HETATM   14  C5  UNL     1      26.093  18.221  62.482  1.00  0.00     0.234 A 
HETATM   15  O3  UNL     1      25.433  18.931  63.294  1.00  0.00    -0.283 OA
HETATM   16  C6  UNL     1      27.330  18.619  62.002  1.00  0.00     0.168 A 
HETATM   17  N6  UNL     1      27.968  17.808  61.142  1.00  0.00    -0.282 N 
ATOM     18  H6  UNL     1      28.881  18.079  60.776  1.00  0.00     0.188 HD
HETATM   19  N7  UNL     1      27.426  16.659  60.763  1.00  0.00    -0.294 N 
ATOM     20  H7  UNL     1      27.940  16.070  60.108  1.00  0.00     0.187 HD
HETATM   21  C11 UNL     1      26.243  16.242  61.199  1.00  0.00     0.111 A 
ENDROOT
BRANCH  16  22
HETATM   22  N4  UNL     1      27.830  19.750  62.396  1.00  0.00    -0.372 N 
ATOM     23  H4  UNL     1      27.267  20.601  62.415  1.00  0.00     0.161 HD
BRANCH  22  24
HETATM   24  C7  UNL     1      29.216  19.757  62.807  1.00  0.00     0.121 C 
BRANCH  24  25
HETATM   25  C8  UNL     1      29.291  18.992  64.117  1.00  0.00     0.021 C 
BRANCH  25  26
HETATM   26  C9  UNL     1      30.650  18.290  64.116  1.00  0.00     0.029 C 
BRANCH  26  27
HETATM   27  C10 UNL     1      30.422  16.908  63.521  1.00  0.00     0.229 C 
BRANCH  27  28
HETATM   28  N5  UNL     1      31.180  16.843  62.292  1.00  0.00    -0.079 N 
ATOM     29  H53 UNL     1      32.134  17.189  62.392  1.00  0.00     0.274 HD
ATOM     30  H52 UNL     1      31.415  15.889  62.018  1.00  0.00     0.274 HD
ATOM     31  H51 UNL     1      30.645  17.343  61.581  1.00  0.00     0.274 HD
ENDBRANCH  27  28
ENDBRANCH  26  27
ENDBRANCH  25  26
ENDBRANCH  24  25
ENDBRANCH  22  24
ENDBRANCH  16  22
TORSDOF 6
ENDMDL
MODEL 5
REMARK VINA RESULT: -7.355899476      2.492      3.168
REMARK  6 active torsions:
REMARK  status: ('A' for Active; 'I' for Inactive)
REMARK    1  A    between atoms: C6_16  and  N4_17 
REMARK    2  A    between atoms: N4_17  and  C7_19 
REMARK    3  A    between atoms: C7_19  and  C8_20 
REMARK    4  A    between atoms: C8_20  and  C9_21 
REMARK    5  A    between atoms: C9_21  and  C10_22 
REMARK    6  A    between atoms: C10_22  and  N5_23 
ROOT
HETATM    1  N1  UNL     1      23.440  17.422  63.531  1.00  0.00    -0.383 N 
ATOM      2  H11 UNL     1      23.884  18.316  63.737  1.00  0.00     0.157 HD
ATOM      3  H12 UNL     1      22.506  17.131  63.820  1.00  0.00     0.157 HD
HETATM    4  C1  UNL     1      24.114  16.610  62.862  1.00  0.00     0.132 C 
HETATM    5  N2  UNL     1      23.520  15.411  62.585  1.00  0.00    -0.293 N 
ATOM      6  H2  UNL     1      22.500  15.388  62.557  1.00  0.00     0.172 HD
HETATM    7  C2  UNL     1      24.171  14.257  62.346  1.00  0.00     0.328 C 
HETATM    8  O1  UNL     1      23.436  13.270  62.057  1.00  0.00    -0.247 OA
HETATM    9  N3  UNL     1      25.473  13.941  62.355  1.00  0.00    -0.275 N 
ATOM     10  H3  UNL     1      25.699  12.948  62.382  1.00  0.00     0.173 HD
HETATM   11  C3  UNL     1      26.521  14.797  62.333  1.00  0.00     0.266 C 
HETATM   12  O2  UNL     1      27.688  14.347  62.406  1.00  0.00    -0.267 OA
HETATM   13  C4  UNL     1      26.477  16.194  62.235  1.00  0.00     0.118 A 
HETATM   14  C5  UNL     1      27.657  16.782  61.857  1.00  0.00     0.234 A 
HETATM   15  O3  UNL     1      28.647  16.023  61.648  1.00  0.00    -0.283 OA
HETATM   16  C6  UNL     1      27.748  18.157  61.713  1.00  0.00     0.168 A 
HETATM   17  N6  UNL     1      26.650  18.894  61.952  1.00  0.00    -0.282 N 
ATOM     18  H6  UNL     1      26.692  19.908  61.851  1.00  0.00     0.188 HD
HETATM   19  N7  UNL     1      25.513  18.318  62.318  1.00  0.00    -0.294 N 
ATOM     20  H7  UNL     1      24.701  18.910  62.492  1.00  0.00     0.187 HD
HETATM   21  C11 UNL     1      25.385  17.005  62.468  1.00  0.00     0.111 A 
ENDROOT
BRANCH  16  22
HETATM   22  N4  UNL     1      28.878  18.685  61.352  1.00  0.00    -0.372 N 
ATOM     23  H4  UNL     1      29.269  18.518  60.425  1.00  0.00     0.161 HD
BRANCH  22  24
HETATM   24  C7  UNL     1      29.558  19.519  62.317  1.00  0.00     0.121 C 
BRANCH  24  25
HETATM   25  C8  UNL     1      30.419  18.599  63.165  1.00  0.00     0.021 C 
BRANCH  25  26
HETATM   26  C9  UNL     1      29.922  18.767  64.603  1.00  0.00     0.029 C 
BRANCH  26  27
HETATM   27  C10 UNL     1      29.497  17.385  65.077  1.00  0.00     0.229 C 
BRANCH  27  28
HETATM   28  N5  UNL     1      30.217  16.420  64.277  1.00  0.00    -0.079 N 
ATOM     29  H53 UNL     1      29.603  15.765  63.793  1.00  0.00     0.274 HD
ATOM     30  H52 UNL     1      30.649  16.830  63.449  1.00  0.00     0.274 HD
ATOM     31  H51 UNL     1      30.888  15.960  64.892  1.00  0.00     0.274 HD
ENDBRANCH  27  28
ENDBRANCH  26  27
ENDBRANCH  25  26
ENDBRANCH  24  25
ENDBRANCH  22  24
ENDBRANCH  16  22
TORSDOF 6
ENDMDL
