MODEL 1
REMARK VINA RESULT: -6.638058361      0.000      0.000
REMARK  7 active torsions:
REMARK  status: ('A' for Active; 'I' for Inactive)
REMARK    1  A    between atoms: N1_2  and  C2_3 
REMARK    2  A    between atoms: N1_2  and  C12_24 
REMARK    3  A    between atoms: C2_3  and  C3_4 
REMARK    4  A    between atoms: C3_4  and  N2_5 
REMARK    5  A    between atoms: C3_4  and  C4_9 
REMARK       I    between atoms: C4_9  and  N3_11 
REMARK    6  A    between atoms: C12_24  and  C13_28 
REMARK    7  A    between atoms: C13_28  and  N7_29 
ROOT
HETATM    1  C3  UNL     1      30.198  17.824  62.827  1.00  0.00     0.292 C 
ENDROOT
BRANCH   1   2
HETATM    2  C2  UNL     1      30.252  18.449  64.235  1.00  0.00     0.166 C 
BRANCH   2   3
HETATM    3  N1  UNL     1      29.911  19.827  64.215  1.00  0.00    -0.372 N 
HETATM    4  C1  UNL     1      29.328  20.441  63.053  1.00  0.00     0.150 C 
BRANCH   3   5
HETATM    5  C12 UNL     1      30.141  20.633  65.360  1.00  0.00     0.098 C 
HETATM    6  N6  UNL     1      31.214  20.495  66.050  1.00  0.00    -0.388 N 
ATOM      7  H62 UNL     1      31.893  19.795  65.752  1.00  0.00     0.157 HD
ATOM      8  H61 UNL     1      31.380  21.074  66.873  1.00  0.00     0.157 HD
BRANCH   5   9
HETATM    9  C13 UNL     1      29.149  21.657  65.797  1.00  0.00     0.304 C 
BRANCH   9  10
HETATM   10  N7  UNL     1      29.810  22.864  66.217  1.00  0.00    -0.073 N 
ATOM     11  H73 UNL     1      30.823  22.749  66.245  1.00  0.00     0.274 HD
ATOM     12  H72 UNL     1      29.756  23.590  65.503  1.00  0.00     0.274 HD
ATOM     13  H71 UNL     1      29.442  23.186  67.111  1.00  0.00     0.274 HD
ENDBRANCH   9  10
ENDBRANCH   5   9
ENDBRANCH   3   5
ENDBRANCH   2   3
ENDBRANCH   1   2
BRANCH   1  14
HETATM   14  N2  UNL     1      31.472  17.567  62.284  1.00  0.00    -0.065 N 
ATOM     15  H23 UNL     1      32.142  18.276  62.582  1.00  0.00     0.275 HD
ATOM     16  H22 UNL     1      31.892  16.746  62.718  1.00  0.00     0.275 HD
ATOM     17  H21 UNL     1      31.465  17.477  61.268  1.00  0.00     0.275 HD
ENDBRANCH   1  14
BRANCH   1  18
HETATM   18  C4  UNL     1      29.242  16.719  62.930  1.00  0.00     0.252 C 
HETATM   19  O1  UNL     1      29.656  15.763  63.706  1.00  0.00    -0.271 OA
HETATM   20  N3  UNL     1      27.978  16.547  62.329  1.00  0.00    -0.349 N 
HETATM   21  C5  UNL     1      27.267  15.317  62.645  1.00  0.00     0.127 C 
HETATM   22  C11 UNL     1      27.489  17.564  61.473  1.00  0.00     0.153 C 
HETATM   23  C6  UNL     1      27.341  14.286  61.545  1.00  0.00     0.039 C 
HETATM   24  C7  UNL     1      26.017  13.540  61.404  1.00  0.00     0.115 C 
HETATM   25  N4  UNL     1      25.143  14.321  60.589  1.00  0.00    -0.420 N 
HETATM   26  C8  UNL     1      24.059  14.958  61.282  1.00  0.00     0.141 C 
ATOM     27  H4  UNL     1      25.280  14.420  59.583  1.00  0.00     0.153 HD
HETATM   28  C9  UNL     1      23.970  16.442  61.000  1.00  0.00     0.251 C 
HETATM   29  N5  UNL     1      25.034  17.206  61.613  1.00  0.00    -0.072 N 
HETATM   30  C10 UNL     1      26.179  17.321  60.779  1.00  0.00     0.252 C 
ATOM     31  H52 UNL     1      24.702  18.124  61.907  1.00  0.00     0.277 HD
ATOM     32  H51 UNL     1      25.283  16.820  62.524  1.00  0.00     0.277 HD
ENDBRANCH   1  18
TORSDOF 7
ENDMDL
MODEL 2
REMARK VINA RESULT: -6.587003600      1.425      1.977
REMARK  7 active torsions:
REMARK  status: ('A' for Active; 'I' for Inactive)
REMARK    1  A    between atoms: N1_2  and  C2_3 
REMARK    2  A    between atoms: N1_2  and  C12_24 
REMARK    3  A    between atoms: C2_3  and  C3_4 
REMARK    4  A    between atoms: C3_4  and  N2_5 
REMARK    5  A    between atoms: C3_4  and  C4_9 
REMARK       I    between atoms: C4_9  and  N3_11 
REMARK    6  A    between atoms: C12_24  and  C13_28 
REMARK    7  A    between atoms: C13_28  and  N7_29 
ROOT
HETATM    1  C3  UNL     1      30.405  17.622  62.616  1.00  0.00     0.292 C 
ENDROOT
BRANCH   1   2
HETATM    2  C2  UNL     1      30.368  18.441  63.922  1.00  0.00     0.166 C 
BRANCH   2   3
HETATM    3  N1  UNL     1      29.275  19.347  63.946  1.00  0.00    -0.372 N 
HETATM    4  C1  UNL     1      29.281  20.555  63.167  1.00  0.00     0.150 C 
BRANCH   3   5
HETATM    5  C12 UNL     1      28.139  19.068  64.750  1.00  0.00     0.098 C 
HETATM    6  N6  UNL     1      26.981  19.513  64.421  1.00  0.00    -0.388 N 
ATOM      7  H62 UNL     1      26.902  20.068  63.569  1.00  0.00     0.157 HD
ATOM      8  H61 UNL     1      26.165  19.314  64.999  1.00  0.00     0.157 HD
BRANCH   5   9
HETATM    9  C13 UNL     1      28.254  18.257  65.995  1.00  0.00     0.304 C 
BRANCH   9  10
HETATM   10  N7  UNL     1      27.669  16.955  65.815  1.00  0.00    -0.073 N 
ATOM     11  H73 UNL     1      26.681  16.947  66.068  1.00  0.00     0.274 HD
ATOM     12  H72 UNL     1      27.577  16.717  64.827  1.00  0.00     0.274 HD
ATOM     13  H71 UNL     1      28.194  16.246  66.326  1.00  0.00     0.274 HD
ENDBRANCH   9  10
ENDBRANCH   5   9
ENDBRANCH   3   5
ENDBRANCH   2   3
ENDBRANCH   1   2
BRANCH   1  14
HETATM   14  N2  UNL     1      31.706  17.246  62.233  1.00  0.00    -0.065 N 
ATOM     15  H23 UNL     1      32.296  18.067  62.096  1.00  0.00     0.275 HD
ATOM     16  H22 UNL     1      32.202  16.812  63.011  1.00  0.00     0.275 HD
ATOM     17  H21 UNL     1      31.725  16.644  61.410  1.00  0.00     0.275 HD
ENDBRANCH   1  14
BRANCH   1  18
HETATM   18  C4  UNL     1      29.392  16.577  62.785  1.00  0.00     0.252 C 
HETATM   19  O1  UNL     1      29.756  15.652  63.621  1.00  0.00    -0.271 OA
HETATM   20  N3  UNL     1      28.121  16.434  62.193  1.00  0.00    -0.349 N 
HETATM   21  C5  UNL     1      27.347  15.265  62.583  1.00  0.00     0.127 C 
HETATM   22  C11 UNL     1      27.685  17.420  61.274  1.00  0.00     0.153 C 
HETATM   23  C6  UNL     1      27.366  14.165  61.550  1.00  0.00     0.039 C 
HETATM   24  C7  UNL     1      26.004  13.482  61.452  1.00  0.00     0.115 C 
HETATM   25  N4  UNL     1      25.172  14.255  60.588  1.00  0.00    -0.420 N 
HETATM   26  C8  UNL     1      24.123  14.990  61.238  1.00  0.00     0.141 C 
ATOM     27  H4  UNL     1      25.313  14.284  59.578  1.00  0.00     0.153 HD
HETATM   28  C9  UNL     1      24.112  16.456  60.864  1.00  0.00     0.251 C 
HETATM   29  N5  UNL     1      25.215  17.200  61.430  1.00  0.00    -0.072 N 
HETATM   30  C10 UNL     1      26.364  17.203  60.593  1.00  0.00     0.252 C 
ATOM     31  H52 UNL     1      24.931  18.151  61.665  1.00  0.00     0.277 HD
ATOM     32  H51 UNL     1      25.443  16.860  62.363  1.00  0.00     0.277 HD
ENDBRANCH   1  18
TORSDOF 7
ENDMDL
MODEL 3
REMARK VINA RESULT: -6.545864359      1.748      2.230
REMARK  7 active torsions:
REMARK  status: ('A' for Active; 'I' for Inactive)
REMARK    1  A    between atoms: N1_2  and  C2_3 
REMARK    2  A    between atoms: N1_2  and  C12_24 
REMARK    3  A    between atoms: C2_3  and  C3_4 
REMARK    4  A    between atoms: C3_4  and  N2_5 
REMARK    5  A    between atoms: C3_4  and  C4_9 
REMARK       I    between atoms: C4_9  and  N3_11 
REMARK    6  A    between atoms: C12_24  and  C13_28 
REMARK    7  A    between atoms: C13_28  and  N7_29 
ROOT
HETATM    1  C3  UNL     1      28.806  19.909  63.376  1.00  0.00     0.292 C 
ENDROOT
BRANCH   1   2
HETATM    2  C2  UNL     1      29.276  19.705  64.830  1.00  0.00     0.166 C 
BRANCH   2   3
HETATM    3  N1  UNL     1      28.768  20.709  65.696  1.00  0.00    -0.372 N 
HETATM    4  C1  UNL     1      27.410  20.681  66.165  1.00  0.00     0.150 C 
BRANCH   3   5
HETATM    5  C12 UNL     1      29.607  21.772  66.120  1.00  0.00     0.098 C 
HETATM    6  N6  UNL     1      29.150  22.968  66.212  1.00  0.00    -0.388 N 
ATOM      7  H62 UNL     1      28.172  23.130  65.973  1.00  0.00     0.157 HD
ATOM      8  H61 UNL     1      29.753  23.732  66.516  1.00  0.00     0.157 HD
BRANCH   5   9
HETATM    9  C13 UNL     1      31.037  21.535  66.470  1.00  0.00     0.304 C 
BRANCH   9  10
HETATM   10  N7  UNL     1      31.842  22.681  66.138  1.00  0.00    -0.073 N 
ATOM     11  H73 UNL     1      31.697  22.977  65.173  1.00  0.00     0.274 HD
ATOM     12  H72 UNL     1      31.512  23.522  66.610  1.00  0.00     0.274 HD
ATOM     13  H71 UNL     1      32.827  22.500  66.332  1.00  0.00     0.274 HD
ENDBRANCH   9  10
ENDBRANCH   5   9
ENDBRANCH   3   5
ENDBRANCH   2   3
ENDBRANCH   1   2
BRANCH   1  14
HETATM   14  N2  UNL     1      29.548  20.886  62.685  1.00  0.00    -0.065 N 
ATOM     15  H23 UNL     1      30.138  21.415  63.327  1.00  0.00     0.275 HD
ATOM     16  H22 UNL     1      30.271  20.453  62.111  1.00  0.00     0.275 HD
ATOM     17  H21 UNL     1      28.967  21.511  62.126  1.00  0.00     0.275 HD
ENDBRANCH   1  14
BRANCH   1  18
HETATM   18  C4  UNL     1      28.713  18.563  62.807  1.00  0.00     0.252 C 
HETATM   19  O1  UNL     1      29.874  18.059  62.511  1.00  0.00    -0.271 OA
HETATM   20  N3  UNL     1      27.586  17.759  62.542  1.00  0.00    -0.349 N 
HETATM   21  C5  UNL     1      27.839  16.446  61.968  1.00  0.00     0.127 C 
HETATM   22  C11 UNL     1      26.301  18.271  62.848  1.00  0.00     0.153 C 
HETATM   23  C6  UNL     1      27.572  16.383  60.484  1.00  0.00     0.039 C 
HETATM   24  C7  UNL     1      26.941  15.048  60.097  1.00  0.00     0.115 C 
HETATM   25  N4  UNL     1      25.535  15.129  60.329  1.00  0.00    -0.420 N 
HETATM   26  C8  UNL     1      25.052  14.384  61.458  1.00  0.00     0.141 C 
ATOM     27  H4  UNL     1      24.915  15.679  59.734  1.00  0.00     0.153 HD
HETATM   28  C9  UNL     1      24.213  15.221  62.400  1.00  0.00     0.251 C 
HETATM   29  N5  UNL     1      24.984  16.185  63.151  1.00  0.00    -0.072 N 
HETATM   30  C10 UNL     1      25.110  17.432  62.480  1.00  0.00     0.252 C 
ATOM     31  H52 UNL     1      24.600  16.311  64.087  1.00  0.00     0.277 HD
ATOM     32  H51 UNL     1      25.899  15.809  63.397  1.00  0.00     0.277 HD
ENDBRANCH   1  18
TORSDOF 7
ENDMDL
MODEL 4
REMARK VINA RESULT: -6.533115850      2.495      3.824
REMARK  7 active torsions:
REMARK  status: ('A' for Active; 'I' for Inactive)
REMARK    1  A    between atoms: N1_2  and  C2_3 
REMARK    2  A    between atoms: N1_2  and  C12_24 
REMARK    3  A    between atoms: C2_3  and  C3_4 
REMARK    4  A    between atoms: C3_4  and  N2_5 
REMARK    5  A    between atoms: C3_4  and  C4_9 
REMARK       I    between atoms: C4_9  and  N3_11 
REMARK    6  A    between atoms: C12_24  and  C13_28 
REMARK    7  A    between atoms: C13_28  and  N7_29 
ROOT
HETATM    1  C3  UNL     1      26.483  18.634  65.282  1.00  0.00     0.292 C 
ENDROOT
BRANCH   1   2
HETATM    2  C2  UNL     1      27.245  19.881  64.792  1.00  0.00     0.166 C 
BRANCH   2   3
HETATM    3  N1  UNL     1      28.524  19.548  64.273  1.00  0.00    -0.372 N 
HETATM    4  C1  UNL     1      29.482  18.809  65.050  1.00  0.00     0.150 C 
BRANCH   3   5
HETATM    5  C12 UNL     1      28.883  19.942  62.958  1.00  0.00     0.098 C 
HETATM    6  N6  UNL     1      29.647  20.955  62.766  1.00  0.00    -0.388 N 
ATOM      7  H62 UNL     1      29.988  21.464  63.581  1.00  0.00     0.157 HD
ATOM      8  H61 UNL     1      29.904  21.239  61.821  1.00  0.00     0.157 HD
BRANCH   5   9
HETATM    9  C13 UNL     1      28.384  19.199  61.766  1.00  0.00     0.304 C 
BRANCH   9  10
HETATM   10  N7  UNL     1      27.299  19.906  61.138  1.00  0.00    -0.073 N 
ATOM     11  H73 UNL     1      26.886  20.595  61.765  1.00  0.00     0.274 HD
ATOM     12  H72 UNL     1      27.632  20.538  60.410  1.00  0.00     0.274 HD
ATOM     13  H71 UNL     1      26.600  19.254  60.781  1.00  0.00     0.274 HD
ENDBRANCH   9  10
ENDBRANCH   5   9
ENDBRANCH   3   5
ENDBRANCH   2   3
ENDBRANCH   1   2
BRANCH   1  14
HETATM   14  N2  UNL     1      25.742  18.862  66.457  1.00  0.00    -0.065 N 
ATOM     15  H23 UNL     1      26.345  18.829  67.279  1.00  0.00     0.275 HD
ATOM     16  H22 UNL     1      25.438  19.834  66.511  1.00  0.00     0.275 HD
ATOM     17  H21 UNL     1      24.949  18.229  66.562  1.00  0.00     0.275 HD
ENDBRANCH   1  14
BRANCH   1  18
HETATM   18  C4  UNL     1      25.788  18.115  64.102  1.00  0.00     0.252 C 
HETATM   19  O1  UNL     1      24.706  18.776  63.822  1.00  0.00    -0.271 OA
HETATM   20  N3  UNL     1      26.113  17.038  63.251  1.00  0.00    -0.349 N 
HETATM   21  C5  UNL     1      25.202  16.782  62.146  1.00  0.00     0.127 C 
HETATM   22  C11 UNL     1      27.284  16.290  63.521  1.00  0.00     0.153 C 
HETATM   23  C6  UNL     1      24.277  15.615  62.394  1.00  0.00     0.039 C 
HETATM   24  C7  UNL     1      24.061  14.806  61.118  1.00  0.00     0.115 C 
HETATM   25  N4  UNL     1      25.148  13.891  60.974  1.00  0.00    -0.420 N 
HETATM   26  C8  UNL     1      26.089  14.210  59.938  1.00  0.00     0.141 C 
ATOM     27  H4  UNL     1      25.249  13.068  61.567  1.00  0.00     0.153 HD
HETATM   28  C9  UNL     1      27.521  14.230  60.428  1.00  0.00     0.251 C 
HETATM   29  N5  UNL     1      27.818  15.360  61.279  1.00  0.00    -0.072 N 
HETATM   30  C10 UNL     1      27.565  15.096  62.653  1.00  0.00     0.252 C 
ATOM     31  H52 UNL     1      28.776  15.680  61.140  1.00  0.00     0.277 HD
ATOM     32  H51 UNL     1      27.319  16.193  60.969  1.00  0.00     0.277 HD
ENDBRANCH   1  18
TORSDOF 7
ENDMDL
MODEL 5
REMARK VINA RESULT: -6.431953132      2.028      2.932
REMARK  7 active torsions:
REMARK  status: ('A' for Active; 'I' for Inactive)
REMARK    1  A    between atoms: N1_2  and  C2_3 
REMARK    2  A    between atoms: N1_2  and  C12_24 
REMARK    3  A    between atoms: C2_3  and  C3_4 
REMARK    4  A    between atoms: C3_4  and  N2_5 
REMARK    5  A    between atoms: C3_4  and  C4_9 
REMARK       I    between atoms: C4_9  and  N3_11 
REMARK    6  A    between atoms: C12_24  and  C13_28 
REMARK    7  A    between atoms: C13_28  and  N7_29 
ROOT
HETATM    1  C3  UNL     1      28.367  20.160  63.300  1.00  0.00     0.292 C 
ENDROOT
BRANCH   1   2
HETATM    2  C2  UNL     1      28.690  19.704  64.736  1.00  0.00     0.166 C 
BRANCH   2   3
HETATM    3  N1  UNL     1      28.417  20.721  65.688  1.00  0.00    -0.372 N 
HETATM    4  C1  UNL     1      27.159  20.787  66.381  1.00  0.00     0.150 C 
BRANCH   3   5
HETATM    5  C12 UNL     1      29.399  21.704  65.978  1.00  0.00     0.098 C 
HETATM    6  N6  UNL     1      29.068  22.936  66.121  1.00  0.00    -0.388 N 
ATOM      7  H62 UNL     1      28.084  23.185  66.022  1.00  0.00     0.157 HD
ATOM      8  H61 UNL     1      29.774  23.642  66.328  1.00  0.00     0.157 HD
BRANCH   5   9
HETATM    9  C13 UNL     1      30.838  21.340  66.122  1.00  0.00     0.304 C 
BRANCH   9  10
HETATM   10  N7  UNL     1      31.660  22.518  66.192  1.00  0.00    -0.073 N 
ATOM     11  H73 UNL     1      32.497  22.429  65.616  1.00  0.00     0.274 HD
ATOM     12  H72 UNL     1      31.228  23.309  65.714  1.00  0.00     0.274 HD
ATOM     13  H71 UNL     1      31.891  22.743  67.160  1.00  0.00     0.274 HD
ENDBRANCH   9  10
ENDBRANCH   5   9
ENDBRANCH   3   5
ENDBRANCH   2   3
ENDBRANCH   1   2
BRANCH   1  14
HETATM   14  N2  UNL     1      29.507  20.267  62.481  1.00  0.00    -0.065 N 
ATOM     15  H23 UNL     1      29.375  19.759  61.607  1.00  0.00     0.275 HD
ATOM     16  H22 UNL     1      29.602  21.213  62.113  1.00  0.00     0.275 HD
ATOM     17  H21 UNL     1      30.366  19.972  62.947  1.00  0.00     0.275 HD
ENDBRANCH   1  14
BRANCH   1  18
HETATM   18  C4  UNL     1      27.263  19.303  62.860  1.00  0.00     0.252 C 
HETATM   19  O1  UNL     1      26.113  19.905  62.892  1.00  0.00    -0.271 OA
HETATM   20  N3  UNL     1      27.267  17.964  62.419  1.00  0.00    -0.349 N 
HETATM   21  C5  UNL     1      25.981  17.396  62.043  1.00  0.00     0.127 C 
HETATM   22  C11 UNL     1      28.501  17.270  62.370  1.00  0.00     0.153 C 
HETATM   23  C6  UNL     1      25.397  16.491  63.100  1.00  0.00     0.039 C 
HETATM   24  C7  UNL     1      24.702  15.288  62.467  1.00  0.00     0.115 C 
HETATM   25  N4  UNL     1      25.687  14.294  62.184  1.00  0.00    -0.420 N 
HETATM   26  C8  UNL     1      26.008  14.122  60.796  1.00  0.00     0.141 C 
ATOM     27  H4  UNL     1      26.132  13.744  62.919  1.00  0.00     0.153 HD
HETATM   28  C9  UNL     1      27.495  14.198  60.522  1.00  0.00     0.251 C 
HETATM   29  N5  UNL     1      28.035  15.532  60.656  1.00  0.00    -0.072 N 
HETATM   30  C10 UNL     1      28.469  15.819  61.978  1.00  0.00     0.252 C 
ATOM     31  H52 UNL     1      28.783  15.692  59.982  1.00  0.00     0.277 HD
ATOM     32  H51 UNL     1      27.367  16.230  60.330  1.00  0.00     0.277 HD
ENDBRANCH   1  18
TORSDOF 7
ENDMDL
