MODEL 1
REMARK VINA RESULT: -7.451362542      0.000      0.000
REMARK  9 active torsions:
REMARK  status: ('A' for Active; 'I' for Inactive)
REMARK    1  A    between atoms: N1_1  and  C1_4 
REMARK    2  A    between atoms: C2_7  and  N3_8 
REMARK    3  A    between atoms: C3_13  and  N5_14 
REMARK    4  A    between atoms: N5_14  and  C4_16 
REMARK    5  A    between atoms: C4_16  and  C5_17 
REMARK    6  A    between atoms: C5_17  and  O1_18 
REMARK    7  A    between atoms: C5_17  and  C6_20 
REMARK    8  A    between atoms: C6_20  and  N6_21 
REMARK    9  A    between atoms: N7_23  and  N8_25 
ROOT
HETATM    1  N5  UNL     1      25.498  16.727  59.781  1.00  0.00    -0.223 N 
ATOM      2  H5  UNL     1      24.953  17.085  58.997  1.00  0.00     0.177 HD
ENDROOT
BRANCH   1   3
HETATM    3  C3  UNL     1      24.892  16.267  60.801  1.00  0.00     0.707 A 
HETATM    4  N4  UNL     1      24.465  17.129  61.742  1.00  0.00    -0.022 N 
HETATM    5  C2  UNL     1      23.828  16.677  62.819  1.00  0.00     0.705 A 
ATOM      6  H4  UNL     1      24.630  18.128  61.629  1.00  0.00     0.203 HD
HETATM    7  N2  UNL     1      23.602  15.349  62.983  1.00  0.00    -0.022 N 
HETATM    8  C1  UNL     1      24.015  14.462  62.063  1.00  0.00     0.705 A 
ATOM      9  H2  UNL     1      23.112  15.020  63.815  1.00  0.00     0.203 HD
HETATM   10  N9  UNL     1      24.656  14.949  60.984  1.00  0.00    -0.022 N 
ATOM     11  H9  UNL     1      24.979  14.293  60.273  1.00  0.00     0.203 HD
BRANCH   5  12
HETATM   12  N3  UNL     1      23.430  17.534  63.708  1.00  0.00    -0.234 N 
ATOM     13  H32 UNL     1      23.286  17.211  64.665  1.00  0.00     0.174 HD
ATOM     14  H31 UNL     1      23.264  18.508  63.456  1.00  0.00     0.174 HD
ENDBRANCH   5  12
BRANCH   8  15
HETATM   15  N1  UNL     1      23.808  13.191  62.203  1.00  0.00    -0.234 N 
ATOM     16  H12 UNL     1      23.684  12.775  63.126  1.00  0.00     0.174 HD
ATOM     17  H11 UNL     1      23.760  12.565  61.399  1.00  0.00     0.174 HD
ENDBRANCH   8  15
ENDBRANCH   1   3
BRANCH   1  18
HETATM   18  C4  UNL     1      26.944  16.753  59.708  1.00  0.00     0.171 C 
BRANCH  18  19
HETATM   19  C5  UNL     1      27.285  17.494  58.408  1.00  0.00     0.155 C 
BRANCH  19  20
HETATM   20  O1  UNL     1      26.066  17.544  57.694  1.00  0.00    -0.392 OA
ATOM     21  H1  UNL     1      26.324  17.629  56.783  1.00  0.00     0.210 HD
ENDBRANCH  19  20
BRANCH  19  22
HETATM   22  C6  UNL     1      27.686  18.899  58.839  1.00  0.00     0.174 C 
BRANCH  22  23
HETATM   23  N6  UNL     1      27.991  18.925  60.242  1.00  0.00    -0.320 N 
HETATM   24  N7  UNL     1      27.470  19.804  60.972  1.00  0.00    -0.249 N 
ATOM     25  H7  UNL     1      26.835  20.493  60.567  1.00  0.00     0.207 HD
ATOM     26  H6  UNL     1      28.626  18.235  60.643  1.00  0.00     0.181 HD
BRANCH  24  27
HETATM   27  N8  UNL     1      27.758  19.840  62.328  1.00  0.00    -0.314 N 
HETATM   28  C7  UNL     1      28.955  20.350  62.944  1.00  0.00     0.144 C 
HETATM   29  C8  UNL     1      29.204  19.294  64.026  1.00  0.00     0.023 C 
HETATM   30  C9  UNL     1      27.854  18.771  64.416  1.00  0.00     0.023 C 
HETATM   31  C10 UNL     1      26.898  19.366  63.380  1.00  0.00     0.144 C 
ENDBRANCH  24  27
ENDBRANCH  22  23
ENDBRANCH  19  22
ENDBRANCH  18  19
ENDBRANCH   1  18
TORSDOF 9
ENDMDL
MODEL 2
REMARK VINA RESULT: -7.446923831      4.550      6.871
REMARK  9 active torsions:
REMARK  status: ('A' for Active; 'I' for Inactive)
REMARK    1  A    between atoms: N1_1  and  C1_4 
REMARK    2  A    between atoms: C2_7  and  N3_8 
REMARK    3  A    between atoms: C3_13  and  N5_14 
REMARK    4  A    between atoms: N5_14  and  C4_16 
REMARK    5  A    between atoms: C4_16  and  C5_17 
REMARK    6  A    between atoms: C5_17  and  O1_18 
REMARK    7  A    between atoms: C5_17  and  C6_20 
REMARK    8  A    between atoms: C6_20  and  N6_21 
REMARK    9  A    between atoms: N7_23  and  N8_25 
ROOT
HETATM    1  N5  UNL     1      23.616  17.685  63.714  1.00  0.00    -0.223 N 
ATOM      2  H5  UNL     1      22.648  18.005  63.731  1.00  0.00     0.177 HD
ENDROOT
BRANCH   1   3
HETATM    3  C3  UNL     1      23.983  16.863  62.815  1.00  0.00     0.707 A 
HETATM    4  N4  UNL     1      23.702  15.558  62.979  1.00  0.00    -0.022 N 
HETATM    5  C2  UNL     1      24.073  14.675  62.055  1.00  0.00     0.705 A 
ATOM      6  H4  UNL     1      23.204  15.245  63.811  1.00  0.00     0.203 HD
HETATM    7  N2  UNL     1      24.738  15.077  60.941  1.00  0.00    -0.022 N 
HETATM    8  C1  UNL     1      25.034  16.372  60.747  1.00  0.00     0.705 A 
ATOM      9  H2  UNL     1      25.015  14.387  60.244  1.00  0.00     0.203 HD
HETATM   10  N9  UNL     1      24.645  17.241  61.699  1.00  0.00    -0.022 N 
ATOM     11  H9  UNL     1      24.860  18.230  61.572  1.00  0.00     0.203 HD
BRANCH   5  12
HETATM   12  N3  UNL     1      23.787  13.425  62.243  1.00  0.00    -0.234 N 
ATOM     13  H32 UNL     1      22.881  13.079  61.925  1.00  0.00     0.174 HD
ATOM     14  H31 UNL     1      24.451  12.800  62.699  1.00  0.00     0.174 HD
ENDBRANCH   5  12
BRANCH   8  15
HETATM   15  N1  UNL     1      25.667  16.773  59.691  1.00  0.00    -0.234 N 
ATOM     16  H12 UNL     1      26.686  16.822  59.673  1.00  0.00     0.174 HD
ATOM     17  H11 UNL     1      25.172  17.052  58.844  1.00  0.00     0.174 HD
ENDBRANCH   8  15
ENDBRANCH   1   3
BRANCH   1  18
HETATM   18  C4  UNL     1      24.542  18.176  64.713  1.00  0.00     0.171 C 
BRANCH  18  19
HETATM   19  C5  UNL     1      24.043  19.578  65.094  1.00  0.00     0.155 C 
BRANCH  19  20
HETATM   20  O1  UNL     1      22.649  19.536  64.862  1.00  0.00    -0.392 OA
ATOM     21  H1  UNL     1      22.271  19.323  65.707  1.00  0.00     0.210 HD
ENDBRANCH  19  20
BRANCH  19  22
HETATM   22  C6  UNL     1      24.312  19.707  66.588  1.00  0.00     0.174 C 
BRANCH  22  23
HETATM   23  N6  UNL     1      23.216  19.167  67.344  1.00  0.00    -0.320 N 
HETATM   24  N7  UNL     1      22.577  19.915  68.125  1.00  0.00    -0.249 N 
ATOM     25  H7  UNL     1      22.837  20.897  68.218  1.00  0.00     0.207 HD
ATOM     26  H6  UNL     1      22.959  18.185  67.247  1.00  0.00     0.181 HD
BRANCH  24  27
HETATM   27  N8  UNL     1      21.517  19.405  68.860  1.00  0.00    -0.314 N 
HETATM   28  C7  UNL     1      21.535  18.241  69.707  1.00  0.00     0.144 C 
HETATM   29  C8  UNL     1      20.184  17.605  69.362  1.00  0.00     0.023 C 
HETATM   30  C9  UNL     1      19.271  18.736  68.997  1.00  0.00     0.023 C 
HETATM   31  C10 UNL     1      20.190  19.957  68.910  1.00  0.00     0.144 C 
ENDBRANCH  24  27
ENDBRANCH  22  23
ENDBRANCH  19  22
ENDBRANCH  18  19
ENDBRANCH   1  18
TORSDOF 9
ENDMDL
MODEL 3
REMARK VINA RESULT: -7.445771972      4.547      6.759
REMARK  9 active torsions:
REMARK  status: ('A' for Active; 'I' for Inactive)
REMARK    1  A    between atoms: N1_1  and  C1_4 
REMARK    2  A    between atoms: C2_7  and  N3_8 
REMARK    3  A    between atoms: C3_13  and  N5_14 
REMARK    4  A    between atoms: N5_14  and  C4_16 
REMARK    5  A    between atoms: C4_16  and  C5_17 
REMARK    6  A    between atoms: C5_17  and  O1_18 
REMARK    7  A    between atoms: C5_17  and  C6_20 
REMARK    8  A    between atoms: C6_20  and  N6_21 
REMARK    9  A    between atoms: N7_23  and  N8_25 
ROOT
HETATM    1  N5  UNL     1      23.605  17.724  63.642  1.00  0.00    -0.223 N 
ATOM      2  H5  UNL     1      22.684  18.153  63.559  1.00  0.00     0.177 HD
ENDROOT
BRANCH   1   3
HETATM    3  C3  UNL     1      23.960  16.845  62.794  1.00  0.00     0.707 A 
HETATM    4  N4  UNL     1      24.615  17.240  61.688  1.00  0.00    -0.022 N 
HETATM    5  C2  UNL     1      25.000  16.343  60.783  1.00  0.00     0.705 A 
ATOM      6  H4  UNL     1      24.817  18.229  61.542  1.00  0.00     0.203 HD
HETATM    7  N2  UNL     1      24.737  15.023  60.963  1.00  0.00    -0.022 N 
HETATM    8  C1  UNL     1      24.085  14.595  62.056  1.00  0.00     0.705 A 
ATOM      9  H2  UNL     1      25.039  14.349  60.260  1.00  0.00     0.203 HD
HETATM   10  N9  UNL     1      23.710  15.526  62.953  1.00  0.00    -0.022 N 
ATOM     11  H9  UNL     1      23.213  15.222  63.791  1.00  0.00     0.203 HD
BRANCH   5  12
HETATM   12  N3  UNL     1      25.629  16.757  59.728  1.00  0.00    -0.234 N 
ATOM     13  H32 UNL     1      25.492  17.723  59.428  1.00  0.00     0.174 HD
ATOM     14  H31 UNL     1      26.246  16.132  59.209  1.00  0.00     0.174 HD
ENDBRANCH   5  12
BRANCH   8  15
HETATM   15  N1  UNL     1      23.827  13.340  62.245  1.00  0.00    -0.234 N 
ATOM     16  H12 UNL     1      22.982  12.912  61.864  1.00  0.00     0.174 HD
ATOM     17  H11 UNL     1      24.455  12.738  62.777  1.00  0.00     0.174 HD
ENDBRANCH   8  15
ENDBRANCH   1   3
BRANCH   1  18
HETATM   18  C4  UNL     1      24.481  18.130  64.722  1.00  0.00     0.171 C 
BRANCH  18  19
HETATM   19  C5  UNL     1      24.043  19.551  65.104  1.00  0.00     0.155 C 
BRANCH  19  20
HETATM   20  O1  UNL     1      22.649  19.571  64.872  1.00  0.00    -0.392 OA
ATOM     21  H1  UNL     1      22.296  20.103  65.576  1.00  0.00     0.210 HD
ENDBRANCH  19  20
BRANCH  19  22
HETATM   22  C6  UNL     1      24.318  19.667  66.598  1.00  0.00     0.174 C 
BRANCH  22  23
HETATM   23  N6  UNL     1      23.219  19.134  67.353  1.00  0.00    -0.320 N 
HETATM   24  N7  UNL     1      22.573  19.889  68.121  1.00  0.00    -0.249 N 
ATOM     25  H7  UNL     1      22.830  20.872  68.205  1.00  0.00     0.207 HD
ATOM     26  H6  UNL     1      22.966  18.150  67.266  1.00  0.00     0.181 HD
BRANCH  24  27
HETATM   27  N8  UNL     1      21.511  19.385  68.856  1.00  0.00    -0.314 N 
HETATM   28  C7  UNL     1      21.523  18.223  69.707  1.00  0.00     0.144 C 
HETATM   29  C8  UNL     1      20.171  17.590  69.361  1.00  0.00     0.023 C 
HETATM   30  C9  UNL     1      19.262  18.722  68.991  1.00  0.00     0.023 C 
HETATM   31  C10 UNL     1      20.184  19.940  68.901  1.00  0.00     0.144 C 
ENDBRANCH  24  27
ENDBRANCH  22  23
ENDBRANCH  19  22
ENDBRANCH  18  19
ENDBRANCH   1  18
TORSDOF 9
ENDMDL
MODEL 4
REMARK VINA RESULT: -7.443599376      0.042      1.793
REMARK  9 active torsions:
REMARK  status: ('A' for Active; 'I' for Inactive)
REMARK    1  A    between atoms: N1_1  and  C1_4 
REMARK    2  A    between atoms: C2_7  and  N3_8 
REMARK    3  A    between atoms: C3_13  and  N5_14 
REMARK    4  A    between atoms: N5_14  and  C4_16 
REMARK    5  A    between atoms: C4_16  and  C5_17 
REMARK    6  A    between atoms: C5_17  and  O1_18 
REMARK    7  A    between atoms: C5_17  and  C6_20 
REMARK    8  A    between atoms: C6_20  and  N6_21 
REMARK    9  A    between atoms: N7_23  and  N8_25 
ROOT
HETATM    1  N5  UNL     1      25.494  16.675  59.768  1.00  0.00    -0.223 N 
ATOM      2  H5  UNL     1      24.956  16.943  58.944  1.00  0.00     0.177 HD
ENDROOT
BRANCH   1   3
HETATM    3  C3  UNL     1      24.881  16.282  60.811  1.00  0.00     0.707 A 
HETATM    4  N4  UNL     1      24.674  14.964  60.981  1.00  0.00    -0.022 N 
HETATM    5  C2  UNL     1      24.036  14.524  62.063  1.00  0.00     0.705 A 
ATOM      6  H4  UNL     1      25.007  14.302  60.281  1.00  0.00     0.203 HD
HETATM    7  N2  UNL     1      23.587  15.393  63.004  1.00  0.00    -0.022 N 
HETATM    8  C1  UNL     1      23.777  16.715  62.864  1.00  0.00     0.705 A 
ATOM      9  H2  UNL     1      23.100  15.038  63.826  1.00  0.00     0.203 HD
HETATM   10  N9  UNL     1      24.426  17.131  61.760  1.00  0.00    -0.022 N 
ATOM     11  H9  UNL     1      24.581  18.131  61.634  1.00  0.00     0.203 HD
BRANCH   5  12
HETATM   12  N3  UNL     1      23.853  13.247  62.197  1.00  0.00    -0.234 N 
ATOM     13  H32 UNL     1      23.614  12.884  63.119  1.00  0.00     0.174 HD
ATOM     14  H31 UNL     1      23.947  12.619  61.398  1.00  0.00     0.174 HD
ENDBRANCH   5  12
BRANCH   8  15
HETATM   15  N1  UNL     1      23.356  17.559  63.751  1.00  0.00    -0.234 N 
ATOM     16  H12 UNL     1      23.271  18.553  63.536  1.00  0.00     0.174 HD
ATOM     17  H11 UNL     1      23.095  17.262  64.692  1.00  0.00     0.174 HD
ENDBRANCH   8  15
ENDBRANCH   1   3
BRANCH   1  18
HETATM   18  C4  UNL     1      26.940  16.751  59.724  1.00  0.00     0.171 C 
BRANCH  18  19
HETATM   19  C5  UNL     1      27.281  17.492  58.423  1.00  0.00     0.155 C 
BRANCH  19  20
HETATM   20  O1  UNL     1      26.062  17.541  57.709  1.00  0.00    -0.392 OA
ATOM     21  H1  UNL     1      25.660  18.360  57.975  1.00  0.00     0.210 HD
ENDBRANCH  19  20
BRANCH  19  22
HETATM   22  C6  UNL     1      27.681  18.898  58.855  1.00  0.00     0.174 C 
BRANCH  22  23
HETATM   23  N6  UNL     1      27.989  18.923  60.257  1.00  0.00    -0.320 N 
HETATM   24  N7  UNL     1      27.473  19.806  60.987  1.00  0.00    -0.249 N 
ATOM     25  H7  UNL     1      26.841  20.497  60.582  1.00  0.00     0.207 HD
ATOM     26  H6  UNL     1      28.621  18.230  60.657  1.00  0.00     0.181 HD
BRANCH  24  27
HETATM   27  N8  UNL     1      27.764  19.841  62.342  1.00  0.00    -0.314 N 
HETATM   28  C7  UNL     1      28.960  20.356  62.956  1.00  0.00     0.144 C 
HETATM   29  C8  UNL     1      29.215  19.300  64.037  1.00  0.00     0.023 C 
HETATM   30  C9  UNL     1      27.869  18.771  64.429  1.00  0.00     0.023 C 
HETATM   31  C10 UNL     1      26.908  19.363  63.395  1.00  0.00     0.144 C 
ENDBRANCH  24  27
ENDBRANCH  22  23
ENDBRANCH  19  22
ENDBRANCH  18  19
ENDBRANCH   1  18
TORSDOF 9
ENDMDL
MODEL 5
REMARK VINA RESULT: -7.259989566      2.424      3.951
REMARK  9 active torsions:
REMARK  status: ('A' for Active; 'I' for Inactive)
REMARK    1  A    between atoms: N1_1  and  C1_4 
REMARK    2  A    between atoms: C2_7  and  N3_8 
REMARK    3  A    between atoms: C3_13  and  N5_14 
REMARK    4  A    between atoms: N5_14  and  C4_16 
REMARK    5  A    between atoms: C4_16  and  C5_17 
REMARK    6  A    between atoms: C5_17  and  O1_18 
REMARK    7  A    between atoms: C5_17  and  C6_20 
REMARK    8  A    between atoms: C6_20  and  N6_21 
REMARK    9  A    between atoms: N7_23  and  N8_25 
ROOT
HETATM    1  N5  UNL     1      23.724  17.846  63.577  1.00  0.00    -0.223 N 
ATOM      2  H5  UNL     1      22.808  18.286  63.492  1.00  0.00     0.177 HD
ENDROOT
BRANCH   1   3
HETATM    3  C3  UNL     1      24.056  16.936  62.753  1.00  0.00     0.707 A 
HETATM    4  N4  UNL     1      24.737  17.283  61.646  1.00  0.00    -0.022 N 
HETATM    5  C2  UNL     1      25.098  16.353  60.766  1.00  0.00     0.705 A 
ATOM      6  H4  UNL     1      24.976  18.260  61.481  1.00  0.00     0.203 HD
HETATM    7  N2  UNL     1      24.785  15.048  60.971  1.00  0.00    -0.022 N 
HETATM    8  C1  UNL     1      24.106  14.668  62.065  1.00  0.00     0.705 A 
ATOM      9  H2  UNL     1      25.069  14.348  60.286  1.00  0.00     0.203 HD
HETATM   10  N9  UNL     1      23.755  15.631  62.937  1.00  0.00    -0.022 N 
ATOM     11  H9  UNL     1      23.239  15.364  63.776  1.00  0.00     0.203 HD
BRANCH   5  12
HETATM   12  N3  UNL     1      25.753  16.721  59.709  1.00  0.00    -0.234 N 
ATOM     13  H32 UNL     1      26.715  17.042  59.820  1.00  0.00     0.174 HD
ATOM     14  H31 UNL     1      25.317  16.690  58.787  1.00  0.00     0.174 HD
ENDBRANCH   5  12
BRANCH   8  15
HETATM   15  N1  UNL     1      23.799  13.427  62.277  1.00  0.00    -0.234 N 
ATOM     16  H12 UNL     1      24.496  12.688  62.185  1.00  0.00     0.174 HD
ATOM     17  H11 UNL     1      22.856  13.147  62.544  1.00  0.00     0.174 HD
ENDBRANCH   8  15
ENDBRANCH   1   3
BRANCH   1  18
HETATM   18  C4  UNL     1      24.618  18.272  64.634  1.00  0.00     0.171 C 
BRANCH  18  19
HETATM   19  C5  UNL     1      25.318  19.533  64.108  1.00  0.00     0.155 C 
BRANCH  19  20
HETATM   20  O1  UNL     1      24.451  20.594  64.456  1.00  0.00    -0.392 OA
ATOM     21  H1  UNL     1      24.646  21.279  63.826  1.00  0.00     0.210 HD
ENDBRANCH  19  20
BRANCH  19  22
HETATM   22  C6  UNL     1      26.609  19.640  64.911  1.00  0.00     0.174 C 
BRANCH  22  23
HETATM   23  N6  UNL     1      27.644  18.851  64.304  1.00  0.00    -0.320 N 
HETATM   24  N7  UNL     1      27.810  18.903  63.060  1.00  0.00    -0.249 N 
ATOM     25  H7  UNL     1      27.213  19.502  62.490  1.00  0.00     0.207 HD
ATOM     26  H6  UNL     1      28.239  18.254  64.877  1.00  0.00     0.181 HD
BRANCH  24  27
HETATM   27  N8  UNL     1      28.806  18.146  62.462  1.00  0.00    -0.314 N 
HETATM   28  C7  UNL     1      28.683  16.806  61.950  1.00  0.00     0.144 C 
HETATM   29  C8  UNL     1      30.003  16.187  62.421  1.00  0.00     0.023 C 
HETATM   30  C9  UNL     1      30.999  17.306  62.458  1.00  0.00     0.023 C 
HETATM   31  C10 UNL     1      30.164  18.570  62.242  1.00  0.00     0.144 C 
ENDBRANCH  24  27
ENDBRANCH  22  23
ENDBRANCH  19  22
ENDBRANCH  18  19
ENDBRANCH   1  18
TORSDOF 9
ENDMDL
