MODEL 1
REMARK VINA RESULT: -7.007571214      0.000      0.000
REMARK  9 active torsions:
REMARK  status: ('A' for Active; 'I' for Inactive)
REMARK    1  A    between atoms: C3_3  and  N1_4 
REMARK    2  A    between atoms: N1_4  and  C4_6 
REMARK    3  A    between atoms: C5_9  and  N3_10 
REMARK    4  A    between atoms: N5_15  and  N6_16 
REMARK    5  A    between atoms: C7_19  and  C8_20 
REMARK    6  A    between atoms: C8_20  and  C9_21 
REMARK    7  A    between atoms: C9_21  and  N7_22 
REMARK    8  A    between atoms: C9_21  and  C10_26 
REMARK    9  A    between atoms: C10_26  and  N8_27 
ROOT
HETATM    1  C1  UNL     1      23.621  13.728  62.352  1.00  0.00     0.014 C 
HETATM    2  C2  UNL     1      23.909  14.735  61.735  1.00  0.00    -0.098 C 
HETATM    3  C3  UNL     1      24.240  15.950  60.968  1.00  0.00     0.215 C 
ENDROOT
BRANCH   3   4
HETATM    4  N1  UNL     1      25.578  15.844  60.512  1.00  0.00    -0.364 N 
ATOM      5  H1  UNL     1      25.963  14.900  60.498  1.00  0.00     0.162 HD
BRANCH   4   6
HETATM    6  C4  UNL     1      26.366  16.764  60.117  1.00  0.00     0.144 A 
HETATM    7  N2  UNL     1      26.341  17.005  58.771  1.00  0.00    -0.174 N 
HETATM    8  C5  UNL     1      27.163  17.923  58.259  1.00  0.00     0.695 A 
ATOM      9  H2  UNL     1      25.702  16.489  58.166  1.00  0.00     0.186 HD
HETATM   10  N4  UNL     1      27.982  18.569  59.112  1.00  0.00    -0.111 N 
HETATM   11  N5  UNL     1      28.037  18.369  60.406  1.00  0.00    -0.189 N 
ATOM     12  H4  UNL     1      28.610  19.270  58.719  1.00  0.00     0.207 HD
HETATM   13  C7  UNL     1      27.209  17.437  60.958  1.00  0.00     0.098 A 
BRANCH   8  14
HETATM   14  N3  UNL     1      27.188  18.196  56.983  1.00  0.00    -0.229 N 
HETATM   15  C6  UNL     1      28.432  18.661  56.398  1.00  0.00     0.165 C 
ATOM     16  H3  UNL     1      26.351  18.085  56.409  1.00  0.00     0.177 HD
ENDBRANCH   8  14
BRANCH  11  17
HETATM   17  N6  UNL     1      28.925  19.102  61.204  1.00  0.00    -0.323 N 
ATOM     18  H62 UNL     1      29.377  19.943  60.845  1.00  0.00     0.178 HD
ATOM     19  H61 UNL     1      29.136  18.803  62.156  1.00  0.00     0.178 HD
ENDBRANCH  11  17
BRANCH  13  20
HETATM   20  C8  UNL     1      27.269  17.267  62.409  1.00  0.00     0.099 C 
BRANCH  20  21
HETATM   21  C9  UNL     1      26.364  18.059  63.253  1.00  0.00     0.207 C 
BRANCH  21  22
HETATM   22  N7  UNL     1      25.715  19.158  62.545  1.00  0.00    -0.073 N 
ATOM     23  H73 UNL     1      25.387  18.853  61.629  1.00  0.00     0.274 HD
ATOM     24  H72 UNL     1      24.821  19.387  62.979  1.00  0.00     0.274 HD
ATOM     25  H71 UNL     1      26.298  19.990  62.459  1.00  0.00     0.274 HD
ENDBRANCH  21  22
BRANCH  21  26
HETATM   26  C10 UNL     1      25.416  17.410  64.177  1.00  0.00     0.155 C 
BRANCH  26  27
HETATM   27  N8  UNL     1      24.830  18.321  65.142  1.00  0.00    -0.365 N 
HETATM   28  C11 UNL     1      23.591  18.699  65.101  1.00  0.00     0.197 C 
HETATM   29  N9  UNL     1      22.757  18.197  64.056  1.00  0.00    -0.067 NA
HETATM   30  N10 UNL     1      23.027  19.582  66.042  1.00  0.00    -0.067 NA
ATOM     31  H8  UNL     1      25.422  18.682  65.889  1.00  0.00     0.161 HD
ENDBRANCH  26  27
ENDBRANCH  21  26
ENDBRANCH  20  21
ENDBRANCH  13  20
ENDBRANCH   4   6
ENDBRANCH   3   4
TORSDOF 9
ENDMDL
MODEL 2
REMARK VINA RESULT: -6.875258909      1.969      3.758
REMARK  9 active torsions:
REMARK  status: ('A' for Active; 'I' for Inactive)
REMARK    1  A    between atoms: C3_3  and  N1_4 
REMARK    2  A    between atoms: N1_4  and  C4_6 
REMARK    3  A    between atoms: C5_9  and  N3_10 
REMARK    4  A    between atoms: N5_15  and  N6_16 
REMARK    5  A    between atoms: C7_19  and  C8_20 
REMARK    6  A    between atoms: C8_20  and  C9_21 
REMARK    7  A    between atoms: C9_21  and  N7_22 
REMARK    8  A    between atoms: C9_21  and  C10_26 
REMARK    9  A    between atoms: C10_26  and  N8_27 
ROOT
HETATM    1  C1  UNL     1      32.022  17.445  62.626  1.00  0.00     0.014 C 
HETATM    2  C2  UNL     1      30.882  17.753  62.338  1.00  0.00    -0.098 C 
HETATM    3  C3  UNL     1      29.496  18.138  62.014  1.00  0.00     0.215 C 
ENDROOT
BRANCH   3   4
HETATM    4  N1  UNL     1      28.733  16.957  61.828  1.00  0.00    -0.364 N 
ATOM      5  H1  UNL     1      29.139  16.106  62.218  1.00  0.00     0.162 HD
BRANCH   4   6
HETATM    6  C4  UNL     1      27.612  16.811  61.241  1.00  0.00     0.144 A 
HETATM    7  N2  UNL     1      27.613  17.133  59.912  1.00  0.00    -0.174 N 
HETATM    8  C5  UNL     1      26.473  17.051  59.221  1.00  0.00     0.695 A 
ATOM      9  H2  UNL     1      28.473  17.432  59.453  1.00  0.00     0.186 HD
HETATM   10  N4  UNL     1      25.371  16.648  59.886  1.00  0.00    -0.111 N 
HETATM   11  N5  UNL     1      25.329  16.330  61.157  1.00  0.00    -0.189 N 
ATOM     12  H4  UNL     1      24.501  16.586  59.357  1.00  0.00     0.207 HD
HETATM   13  C7  UNL     1      26.477  16.405  61.887  1.00  0.00     0.098 A 
BRANCH   8  14
HETATM   14  N3  UNL     1      26.409  17.347  57.952  1.00  0.00    -0.229 N 
HETATM   15  C6  UNL     1      27.438  18.200  57.387  1.00  0.00     0.165 C 
ATOM     16  H3  UNL     1      25.653  16.986  57.369  1.00  0.00     0.177 HD
ENDBRANCH   8  14
BRANCH  11  17
HETATM   17  N6  UNL     1      24.127  15.918  61.749  1.00  0.00    -0.323 N 
ATOM     18  H62 UNL     1      23.907  14.927  61.847  1.00  0.00     0.178 HD
ATOM     19  H61 UNL     1      23.454  16.605  62.087  1.00  0.00     0.178 HD
ENDBRANCH  11  17
BRANCH  13  20
HETATM   20  C8  UNL     1      26.402  16.006  63.292  1.00  0.00     0.099 C 
BRANCH  20  21
HETATM   21  C9  UNL     1      26.282  17.048  64.320  1.00  0.00     0.207 C 
BRANCH  21  22
HETATM   22  N7  UNL     1      27.436  17.128  65.210  1.00  0.00    -0.073 N 
ATOM     23  H73 UNL     1      28.121  16.410  64.976  1.00  0.00     0.274 HD
ATOM     24  H72 UNL     1      27.988  17.961  65.010  1.00  0.00     0.274 HD
ATOM     25  H71 UNL     1      27.193  17.084  66.199  1.00  0.00     0.274 HD
ENDBRANCH  21  22
BRANCH  21  26
HETATM   26  C10 UNL     1      25.795  18.400  63.985  1.00  0.00     0.155 C 
BRANCH  26  27
HETATM   27  N8  UNL     1      24.393  18.604  64.294  1.00  0.00    -0.365 N 
HETATM   28  C11 UNL     1      23.918  19.724  64.741  1.00  0.00     0.197 C 
HETATM   29  N9  UNL     1      24.818  20.815  64.941  1.00  0.00    -0.067 NA
HETATM   30  N10 UNL     1      22.556  19.917  65.035  1.00  0.00    -0.067 NA
ATOM     31  H8  UNL     1      23.748  17.827  64.153  1.00  0.00     0.161 HD
ENDBRANCH  26  27
ENDBRANCH  21  26
ENDBRANCH  20  21
ENDBRANCH  13  20
ENDBRANCH   4   6
ENDBRANCH   3   4
TORSDOF 9
ENDMDL
MODEL 3
REMARK VINA RESULT: -6.757856742      1.353      1.493
REMARK  9 active torsions:
REMARK  status: ('A' for Active; 'I' for Inactive)
REMARK    1  A    between atoms: C3_3  and  N1_4 
REMARK    2  A    between atoms: N1_4  and  C4_6 
REMARK    3  A    between atoms: C5_9  and  N3_10 
REMARK    4  A    between atoms: N5_15  and  N6_16 
REMARK    5  A    between atoms: C7_19  and  C8_20 
REMARK    6  A    between atoms: C8_20  and  C9_21 
REMARK    7  A    between atoms: C9_21  and  N7_22 
REMARK    8  A    between atoms: C9_21  and  C10_26 
REMARK    9  A    between atoms: C10_26  and  N8_27 
ROOT
HETATM    1  C1  UNL     1      25.799  13.317  62.258  1.00  0.00     0.014 C 
HETATM    2  C2  UNL     1      26.112  13.754  61.168  1.00  0.00    -0.098 C 
HETATM    3  C3  UNL     1      26.519  14.284  59.854  1.00  0.00     0.215 C 
ENDROOT
BRANCH   3   4
HETATM    4  N1  UNL     1      25.976  15.586  59.707  1.00  0.00    -0.364 N 
ATOM      5  H1  UNL     1      24.962  15.651  59.793  1.00  0.00     0.162 HD
BRANCH   4   6
HETATM    6  C4  UNL     1      26.579  16.686  59.480  1.00  0.00     0.144 A 
HETATM    7  N2  UNL     1      26.731  16.996  58.158  1.00  0.00    -0.174 N 
HETATM    8  C5  UNL     1      27.387  18.110  57.822  1.00  0.00     0.695 A 
ATOM      9  H2  UNL     1      26.348  16.386  57.436  1.00  0.00     0.186 HD
HETATM   10  N4  UNL     1      27.868  18.874  58.823  1.00  0.00    -0.111 N 
HETATM   11  N5  UNL     1      27.743  18.612  60.101  1.00  0.00    -0.189 N 
ATOM     12  H4  UNL     1      28.369  19.724  58.565  1.00  0.00     0.207 HD
HETATM   13  C7  UNL     1      27.078  17.482  60.474  1.00  0.00     0.098 A 
BRANCH   8  14
HETATM   14  N3  UNL     1      27.566  18.459  56.577  1.00  0.00    -0.229 N 
HETATM   15  C6  UNL     1      28.919  18.713  56.118  1.00  0.00     0.165 C 
ATOM     16  H3  UNL     1      26.774  18.552  55.942  1.00  0.00     0.177 HD
ENDBRANCH   8  14
BRANCH  11  17
HETATM   17  N6  UNL     1      28.279  19.480  61.062  1.00  0.00    -0.323 N 
ATOM     18  H62 UNL     1      29.204  19.892  60.935  1.00  0.00     0.178 HD
ATOM     19  H61 UNL     1      27.753  19.709  61.905  1.00  0.00     0.178 HD
ENDBRANCH  11  17
BRANCH  13  20
HETATM   20  C8  UNL     1      26.924  17.241  61.908  1.00  0.00     0.099 C 
BRANCH  20  21
HETATM   21  C9  UNL     1      25.720  17.741  62.585  1.00  0.00     0.207 C 
BRANCH  21  22
HETATM   22  N7  UNL     1      24.604  16.800  62.564  1.00  0.00    -0.073 N 
ATOM     23  H73 UNL     1      23.720  17.293  62.439  1.00  0.00     0.274 HD
ATOM     24  H72 UNL     1      24.615  16.249  61.706  1.00  0.00     0.274 HD
ATOM     25  H71 UNL     1      24.565  16.193  63.382  1.00  0.00     0.274 HD
ENDBRANCH  21  22
BRANCH  21  26
HETATM   26  C10 UNL     1      25.802  18.413  63.896  1.00  0.00     0.155 C 
BRANCH  26  27
HETATM   27  N8  UNL     1      24.521  18.538  64.564  1.00  0.00    -0.365 N 
HETATM   28  C11 UNL     1      23.980  19.678  64.856  1.00  0.00     0.197 C 
HETATM   29  N9  UNL     1      24.676  20.875  64.505  1.00  0.00    -0.067 NA
HETATM   30  N10 UNL     1      22.735  19.793  65.503  1.00  0.00    -0.067 NA
ATOM     31  H8  UNL     1      24.022  17.686  64.818  1.00  0.00     0.161 HD
ENDBRANCH  26  27
ENDBRANCH  21  26
ENDBRANCH  20  21
ENDBRANCH  13  20
ENDBRANCH   4   6
ENDBRANCH   3   4
TORSDOF 9
ENDMDL
MODEL 4
REMARK VINA RESULT: -6.738297661      2.147      4.517
REMARK  9 active torsions:
REMARK  status: ('A' for Active; 'I' for Inactive)
REMARK    1  A    between atoms: C3_3  and  N1_4 
REMARK    2  A    between atoms: N1_4  and  C4_6 
REMARK    3  A    between atoms: C5_9  and  N3_10 
REMARK    4  A    between atoms: N5_15  and  N6_16 
REMARK    5  A    between atoms: C7_19  and  C8_20 
REMARK    6  A    between atoms: C8_20  and  C9_21 
REMARK    7  A    between atoms: C9_21  and  N7_22 
REMARK    8  A    between atoms: C9_21  and  C10_26 
REMARK    9  A    between atoms: C10_26  and  N8_27 
ROOT
HETATM    1  C1  UNL     1      26.627  17.002  58.072  1.00  0.00     0.014 C 
HETATM    2  C2  UNL     1      27.227  17.854  58.696  1.00  0.00    -0.098 C 
HETATM    3  C3  UNL     1      27.976  18.870  59.459  1.00  0.00     0.215 C 
ENDROOT
BRANCH   3   4
HETATM    4  N1  UNL     1      27.240  19.188  60.628  1.00  0.00    -0.364 N 
ATOM      5  H1  UNL     1      26.309  19.572  60.470  1.00  0.00     0.162 HD
BRANCH   4   6
HETATM    6  C4  UNL     1      27.581  19.061  61.849  1.00  0.00     0.144 A 
HETATM    7  N2  UNL     1      28.326  20.094  62.348  1.00  0.00    -0.174 N 
HETATM    8  C5  UNL     1      28.765  20.030  63.608  1.00  0.00     0.695 A 
ATOM      9  H2  UNL     1      28.544  20.902  61.766  1.00  0.00     0.186 HD
HETATM   10  N4  UNL     1      28.442  18.935  64.324  1.00  0.00    -0.111 N 
HETATM   11  N5  UNL     1      27.731  17.926  63.884  1.00  0.00    -0.189 N 
ATOM     12  H4  UNL     1      28.778  18.888  65.286  1.00  0.00     0.207 HD
HETATM   13  C7  UNL     1      27.269  17.962  62.602  1.00  0.00     0.098 A 
BRANCH   8  14
HETATM   14  N3  UNL     1      29.481  20.982  64.141  1.00  0.00    -0.229 N 
HETATM   15  C6  UNL     1      29.196  21.381  65.507  1.00  0.00     0.165 C 
ATOM     16  H3  UNL     1      30.224  21.436  63.609  1.00  0.00     0.177 HD
ENDBRANCH   8  14
BRANCH  11  17
HETATM   17  N6  UNL     1      27.449  16.835  64.718  1.00  0.00    -0.323 N 
ATOM     18  H62 UNL     1      26.690  16.190  64.495  1.00  0.00     0.178 HD
ATOM     19  H61 UNL     1      27.997  16.672  65.562  1.00  0.00     0.178 HD
ENDBRANCH  11  17
BRANCH  13  20
HETATM   20  C8  UNL     1      26.447  16.838  62.156  1.00  0.00     0.099 C 
BRANCH  20  21
HETATM   21  C9  UNL     1      24.994  17.023  62.045  1.00  0.00     0.207 C 
BRANCH  21  22
HETATM   22  N7  UNL     1      24.443  16.576  60.770  1.00  0.00    -0.073 N 
ATOM     23  H73 UNL     1      24.885  17.070  59.994  1.00  0.00     0.274 HD
ATOM     24  H72 UNL     1      24.745  15.625  60.560  1.00  0.00     0.274 HD
ATOM     25  H71 UNL     1      23.428  16.653  60.714  1.00  0.00     0.274 HD
ENDBRANCH  21  22
BRANCH  21  26
HETATM   26  C10 UNL     1      24.090  16.659  63.152  1.00  0.00     0.155 C 
BRANCH  26  27
HETATM   27  N8  UNL     1      23.225  17.744  63.574  1.00  0.00    -0.365 N 
HETATM   28  C11 UNL     1      23.466  18.485  64.609  1.00  0.00     0.197 C 
HETATM   29  N9  UNL     1      24.642  18.224  65.377  1.00  0.00    -0.067 NA
HETATM   30  N10 UNL     1      22.624  19.539  65.012  1.00  0.00    -0.067 NA
ATOM     31  H8  UNL     1      22.384  17.933  63.029  1.00  0.00     0.161 HD
ENDBRANCH  26  27
ENDBRANCH  21  26
ENDBRANCH  20  21
ENDBRANCH  13  20
ENDBRANCH   4   6
ENDBRANCH   3   4
TORSDOF 9
ENDMDL
MODEL 5
REMARK VINA RESULT: -6.727319478      2.194      3.558
REMARK  9 active torsions:
REMARK  status: ('A' for Active; 'I' for Inactive)
REMARK    1  A    between atoms: C3_3  and  N1_4 
REMARK    2  A    between atoms: N1_4  and  C4_6 
REMARK    3  A    between atoms: C5_9  and  N3_10 
REMARK    4  A    between atoms: N5_15  and  N6_16 
REMARK    5  A    between atoms: C7_19  and  C8_20 
REMARK    6  A    between atoms: C8_20  and  C9_21 
REMARK    7  A    between atoms: C9_21  and  N7_22 
REMARK    8  A    between atoms: C9_21  and  C10_26 
REMARK    9  A    between atoms: C10_26  and  N8_27 
ROOT
HETATM    1  C1  UNL     1      26.836  14.066  59.997  1.00  0.00     0.014 C 
HETATM    2  C2  UNL     1      26.824  15.235  59.662  1.00  0.00    -0.098 C 
HETATM    3  C3  UNL     1      26.835  16.649  59.247  1.00  0.00     0.215 C 
ENDROOT
BRANCH   3   4
HETATM    4  N1  UNL     1      26.734  17.459  60.406  1.00  0.00    -0.364 N 
ATOM      5  H1  UNL     1      25.984  18.150  60.395  1.00  0.00     0.162 HD
BRANCH   4   6
HETATM    6  C4  UNL     1      27.450  17.444  61.460  1.00  0.00     0.144 A 
HETATM    7  N2  UNL     1      28.696  17.988  61.315  1.00  0.00    -0.174 N 
HETATM    8  C5  UNL     1      29.535  17.980  62.355  1.00  0.00     0.695 A 
ATOM      9  H2  UNL     1      28.982  18.396  60.425  1.00  0.00     0.186 HD
HETATM   10  N4  UNL     1      29.095  17.427  63.503  1.00  0.00    -0.111 N 
HETATM   11  N5  UNL     1      27.911  16.897  63.682  1.00  0.00    -0.189 N 
ATOM     12  H4  UNL     1      29.737  17.421  64.296  1.00  0.00     0.207 HD
HETATM   13  C7  UNL     1      27.033  16.890  62.639  1.00  0.00     0.098 A 
BRANCH   8  14
HETATM   14  N3  UNL     1      30.737  18.482  62.279  1.00  0.00    -0.229 N 
HETATM   15  C6  UNL     1      31.871  17.581  62.382  1.00  0.00     0.165 C 
ATOM     16  H3  UNL     1      30.877  19.484  62.150  1.00  0.00     0.177 HD
ENDBRANCH   8  14
BRANCH  11  17
HETATM   17  N6  UNL     1      27.554  16.352  64.923  1.00  0.00    -0.323 N 
ATOM     18  H62 UNL     1      28.108  15.607  65.345  1.00  0.00     0.178 HD
ATOM     19  H61 UNL     1      26.731  16.691  65.421  1.00  0.00     0.178 HD
ENDBRANCH  11  17
BRANCH  13  20
HETATM   20  C8  UNL     1      25.707  16.326  62.885  1.00  0.00     0.099 C 
BRANCH  20  21
HETATM   21  C9  UNL     1      24.552  17.231  62.947  1.00  0.00     0.207 C 
BRANCH  21  22
HETATM   22  N7  UNL     1      23.442  16.822  62.091  1.00  0.00    -0.073 N 
ATOM     23  H73 UNL     1      23.613  15.898  61.696  1.00  0.00     0.274 HD
ATOM     24  H72 UNL     1      22.614  16.618  62.650  1.00  0.00     0.274 HD
ATOM     25  H71 UNL     1      23.225  17.493  61.355  1.00  0.00     0.274 HD
ENDBRANCH  21  22
BRANCH  21  26
HETATM   26  C10 UNL     1      24.048  17.742  64.235  1.00  0.00     0.155 C 
BRANCH  26  27
HETATM   27  N8  UNL     1      24.731  18.937  64.692  1.00  0.00    -0.365 N 
HETATM   28  C11 UNL     1      24.111  20.007  65.078  1.00  0.00     0.197 C 
HETATM   29  N9  UNL     1      22.683  20.015  65.054  1.00  0.00    -0.067 NA
HETATM   30  N10 UNL     1      24.779  21.163  65.524  1.00  0.00    -0.067 NA
ATOM     31  H8  UNL     1      25.750  18.935  64.710  1.00  0.00     0.161 HD
ENDBRANCH  26  27
ENDBRANCH  21  26
ENDBRANCH  20  21
ENDBRANCH  13  20
ENDBRANCH   4   6
ENDBRANCH   3   4
TORSDOF 9
ENDMDL
