MODEL 1
REMARK VINA RESULT: -7.456024363      0.000      0.000
REMARK  6 active torsions:
REMARK  status: ('A' for Active; 'I' for Inactive)
REMARK    1  A    between atoms: N3_4  and  C2_6 
REMARK    2  A    between atoms: C2_6  and  C3_7 
REMARK    3  A    between atoms: C3_7  and  C4_8 
REMARK    4  A    between atoms: C6_13  and  C7_14 
REMARK    5  A    between atoms: C7_14  and  S1_15 
REMARK    6  A    between atoms: S1_15  and  N5_16 
ROOT
HETATM    1  C4  UNL     1      27.719  16.615  61.333  1.00  0.00     0.171 C 
HETATM    2  C5  UNL     1      28.326  15.348  61.775  1.00  0.00     0.232 C 
HETATM    3  O1  UNL     1      29.201  15.362  62.665  1.00  0.00    -0.273 OA
HETATM    4  N4  UNL     1      27.899  14.150  61.176  1.00  0.00    -0.338 N 
ATOM      5  H4  UNL     1      28.542  13.367  61.064  1.00  0.00     0.164 HD
HETATM    6  C6  UNL     1      26.532  14.051  60.724  1.00  0.00     0.202 C 
HETATM    7  N6  UNL     1      26.097  15.255  60.077  1.00  0.00    -0.338 N 
ATOM      8  H6  UNL     1      25.238  15.235  59.527  1.00  0.00     0.164 HD
HETATM    9  C8  UNL     1      26.826  16.485  60.176  1.00  0.00     0.232 C 
HETATM   10  O4  UNL     1      26.714  17.400  59.327  1.00  0.00    -0.273 OA
ENDROOT
BRANCH   1  11
HETATM   11  C3  UNL     1      27.080  17.379  62.463  1.00  0.00     0.043 C 
BRANCH  11  12
HETATM   12  C2  UNL     1      27.055  18.863  62.174  1.00  0.00     0.123 C 
BRANCH  12  13
HETATM   13  N3  UNL     1      25.861  19.442  62.759  1.00  0.00    -0.367 N 
HETATM   14  C1  UNL     1      25.892  19.960  63.941  1.00  0.00     0.196 C 
HETATM   15  N1  UNL     1      27.046  20.006  64.736  1.00  0.00    -0.067 NA
HETATM   16  N2  UNL     1      24.682  20.506  64.445  1.00  0.00    -0.067 NA
ATOM     17  H3  UNL     1      24.988  19.440  62.231  1.00  0.00     0.161 HD
ENDBRANCH  12  13
ENDBRANCH  11  12
ENDBRANCH   1  11
BRANCH   6  18
HETATM   18  C7  UNL     1      25.703  13.668  61.924  1.00  0.00     0.209 C 
BRANCH  18  19
HETATM   19  S1  UNL     1      24.071  14.343  61.877  1.00  0.00     0.228 S 
HETATM   20  O2  UNL     1      23.246  13.560  62.882  1.00  0.00    -0.206 OA
HETATM   21  O3  UNL     1      24.016  15.766  62.281  1.00  0.00    -0.206 OA
BRANCH  19  22
HETATM   22  N5  UNL     1      23.323  14.162  60.354  1.00  0.00    -0.328 N 
ATOM     23  H52 UNL     1      23.114  14.953  59.744  1.00  0.00     0.168 HD
ATOM     24  H51 UNL     1      23.112  13.189  60.129  1.00  0.00     0.168 HD
ENDBRANCH  19  22
ENDBRANCH  18  19
ENDBRANCH   6  18
TORSDOF 6
ENDMDL
MODEL 2
REMARK VINA RESULT: -7.454128105      1.839      2.364
REMARK  6 active torsions:
REMARK  status: ('A' for Active; 'I' for Inactive)
REMARK    1  A    between atoms: N3_4  and  C2_6 
REMARK    2  A    between atoms: C2_6  and  C3_7 
REMARK    3  A    between atoms: C3_7  and  C4_8 
REMARK    4  A    between atoms: C6_13  and  C7_14 
REMARK    5  A    between atoms: C7_14  and  S1_15 
REMARK    6  A    between atoms: S1_15  and  N5_16 
ROOT
HETATM    1  C4  UNL     1      27.443  17.848  63.311  1.00  0.00     0.171 C 
HETATM    2  C5  UNL     1      28.261  16.746  62.777  1.00  0.00     0.232 C 
HETATM    3  O1  UNL     1      29.136  16.224  63.499  1.00  0.00    -0.273 OA
HETATM    4  N4  UNL     1      28.032  16.313  61.460  1.00  0.00    -0.338 N 
ATOM      5  H4  UNL     1      28.796  15.944  60.893  1.00  0.00     0.164 HD
HETATM    6  C6  UNL     1      26.694  16.398  60.926  1.00  0.00     0.202 C 
HETATM    7  N6  UNL     1      26.052  17.627  61.293  1.00  0.00    -0.338 N 
ATOM      8  H6  UNL     1      25.200  17.902  60.804  1.00  0.00     0.164 HD
HETATM    9  C8  UNL     1      26.566  18.483  62.321  1.00  0.00     0.232 C 
HETATM   10  O4  UNL     1      26.287  19.704  62.378  1.00  0.00    -0.273 OA
ENDROOT
BRANCH   1  11
HETATM   11  C3  UNL     1      26.704  17.468  64.567  1.00  0.00     0.043 C 
BRANCH  11  12
HETATM   12  C2  UNL     1      26.169  18.690  65.279  1.00  0.00     0.123 C 
BRANCH  12  13
HETATM   13  N3  UNL     1      24.723  18.712  65.167  1.00  0.00    -0.367 N 
HETATM   14  C1  UNL     1      24.088  19.833  65.077  1.00  0.00     0.196 C 
HETATM   15  N1  UNL     1      24.722  21.084  65.080  1.00  0.00    -0.067 NA
HETATM   16  N2  UNL     1      22.674  19.773  64.970  1.00  0.00    -0.067 NA
ATOM     17  H3  UNL     1      24.203  17.835  65.158  1.00  0.00     0.161 HD
ENDBRANCH  12  13
ENDBRANCH  11  12
ENDBRANCH   1  11
BRANCH   6  18
HETATM   18  C7  UNL     1      25.961  15.164  61.388  1.00  0.00     0.209 C 
BRANCH  18  19
HETATM   19  S1  UNL     1      24.240  15.449  61.664  1.00  0.00     0.228 S 
HETATM   20  O2  UNL     1      24.123  16.156  63.002  1.00  0.00    -0.206 OA
HETATM   21  O3  UNL     1      23.624  16.331  60.648  1.00  0.00    -0.206 OA
BRANCH  19  22
HETATM   22  N5  UNL     1      23.339  14.003  61.773  1.00  0.00    -0.328 N 
ATOM     23  H52 UNL     1      22.957  13.528  60.954  1.00  0.00     0.168 HD
ATOM     24  H51 UNL     1      23.229  13.676  62.733  1.00  0.00     0.168 HD
ENDBRANCH  19  22
ENDBRANCH  18  19
ENDBRANCH   6  18
TORSDOF 6
ENDMDL
MODEL 3
REMARK VINA RESULT: -7.353992657      1.877      2.550
REMARK  6 active torsions:
REMARK  status: ('A' for Active; 'I' for Inactive)
REMARK    1  A    between atoms: N3_4  and  C2_6 
REMARK    2  A    between atoms: C2_6  and  C3_7 
REMARK    3  A    between atoms: C3_7  and  C4_8 
REMARK    4  A    between atoms: C6_13  and  C7_14 
REMARK    5  A    between atoms: C7_14  and  S1_15 
REMARK    6  A    between atoms: S1_15  and  N5_16 
ROOT
HETATM    1  C4  UNL     1      27.608  17.968  63.234  1.00  0.00     0.171 C 
HETATM    2  C5  UNL     1      27.722  16.590  62.729  1.00  0.00     0.232 C 
HETATM    3  O1  UNL     1      28.598  15.833  63.196  1.00  0.00    -0.273 OA
HETATM    4  N4  UNL     1      26.832  16.163  61.727  1.00  0.00    -0.338 N 
ATOM      5  H4  UNL     1      27.122  15.474  61.034  1.00  0.00     0.164 HD
HETATM    6  C6  UNL     1      25.501  16.720  61.700  1.00  0.00     0.202 C 
HETATM    7  N6  UNL     1      25.509  18.130  61.960  1.00  0.00    -0.338 N 
ATOM      8  H6  UNL     1      24.669  18.672  61.756  1.00  0.00     0.164 HD
HETATM    9  C8  UNL     1      26.653  18.804  62.498  1.00  0.00     0.232 C 
HETATM   10  O4  UNL     1      26.835  20.035  62.351  1.00  0.00    -0.273 OA
ENDROOT
BRANCH   1  11
HETATM   11  C3  UNL     1      27.388  18.026  64.723  1.00  0.00     0.043 C 
BRANCH  11  12
HETATM   12  C2  UNL     1      25.984  18.480  65.051  1.00  0.00     0.123 C 
BRANCH  12  13
HETATM   13  N3  UNL     1      26.049  19.681  65.862  1.00  0.00    -0.367 N 
HETATM   14  C1  UNL     1      25.297  20.696  65.596  1.00  0.00     0.196 C 
HETATM   15  N1  UNL     1      24.381  20.724  64.534  1.00  0.00    -0.067 NA
HETATM   16  N2  UNL     1      25.418  21.835  66.435  1.00  0.00    -0.067 NA
ATOM     17  H3  UNL     1      26.695  19.724  66.651  1.00  0.00     0.161 HD
ENDBRANCH  12  13
ENDBRANCH  11  12
ENDBRANCH   1  11
BRANCH   6  18
HETATM   18  C7  UNL     1      24.676  15.922  62.678  1.00  0.00     0.209 C 
BRANCH  18  19
HETATM   19  S1  UNL     1      24.249  14.318  62.072  1.00  0.00     0.228 S 
HETATM   20  O2  UNL     1      25.515  13.483  62.119  1.00  0.00    -0.206 OA
HETATM   21  O3  UNL     1      23.239  13.629  62.907  1.00  0.00    -0.206 OA
BRANCH  19  22
HETATM   22  N5  UNL     1      23.715  14.343  60.452  1.00  0.00    -0.328 N 
ATOM     23  H52 UNL     1      24.330  14.578  59.672  1.00  0.00     0.168 HD
ATOM     24  H51 UNL     1      22.729  14.101  60.356  1.00  0.00     0.168 HD
ENDBRANCH  19  22
ENDBRANCH  18  19
ENDBRANCH   6  18
TORSDOF 6
ENDMDL
MODEL 4
REMARK VINA RESULT: -7.321512620      1.525      1.812
REMARK  6 active torsions:
REMARK  status: ('A' for Active; 'I' for Inactive)
REMARK    1  A    between atoms: N3_4  and  C2_6 
REMARK    2  A    between atoms: C2_6  and  C3_7 
REMARK    3  A    between atoms: C3_7  and  C4_8 
REMARK    4  A    between atoms: C6_13  and  C7_14 
REMARK    5  A    between atoms: C7_14  and  S1_15 
REMARK    6  A    between atoms: S1_15  and  N5_16 
ROOT
HETATM    1  C4  UNL     1      27.640  16.695  61.093  1.00  0.00     0.171 C 
HETATM    2  C5  UNL     1      28.279  15.504  61.678  1.00  0.00     0.232 C 
HETATM    3  O1  UNL     1      29.149  15.645  62.563  1.00  0.00    -0.273 OA
HETATM    4  N4  UNL     1      27.888  14.234  61.219  1.00  0.00    -0.338 N 
ATOM      5  H4  UNL     1      28.554  13.461  61.198  1.00  0.00     0.164 HD
HETATM    6  C6  UNL     1      26.528  14.046  60.777  1.00  0.00     0.202 C 
HETATM    7  N6  UNL     1      26.063  15.155  59.996  1.00  0.00    -0.338 N 
ATOM      8  H6  UNL     1      25.208  15.049  59.450  1.00  0.00     0.164 HD
HETATM    9  C8  UNL     1      26.758  16.408  59.956  1.00  0.00     0.232 C 
HETATM   10  O4  UNL     1      26.625  17.217  59.007  1.00  0.00    -0.273 OA
ENDROOT
BRANCH   1  11
HETATM   11  C3  UNL     1      26.974  17.565  62.125  1.00  0.00     0.043 C 
BRANCH  11  12
HETATM   12  C2  UNL     1      27.690  18.889  62.270  1.00  0.00     0.123 C 
BRANCH  12  13
HETATM   13  N3  UNL     1      28.761  18.749  63.237  1.00  0.00    -0.367 N 
HETATM   14  C1  UNL     1      29.340  19.790  63.733  1.00  0.00     0.196 C 
HETATM   15  N1  UNL     1      28.995  21.106  63.389  1.00  0.00    -0.067 NA
HETATM   16  N2  UNL     1      30.381  19.572  64.674  1.00  0.00    -0.067 NA
ATOM     17  H3  UNL     1      29.060  17.818  63.529  1.00  0.00     0.161 HD
ENDBRANCH  12  13
ENDBRANCH  11  12
ENDBRANCH   1  11
BRANCH   6  18
HETATM   18  C7  UNL     1      25.703  13.779  62.011  1.00  0.00     0.209 C 
BRANCH  18  19
HETATM   19  S1  UNL     1      24.059  14.416  61.891  1.00  0.00     0.228 S 
HETATM   20  O2  UNL     1      23.218  13.644  62.893  1.00  0.00    -0.206 OA
HETATM   21  O3  UNL     1      23.960  15.849  62.249  1.00  0.00    -0.206 OA
BRANCH  19  22
HETATM   22  N5  UNL     1      23.365  14.172  60.351  1.00  0.00    -0.328 N 
ATOM     23  H52 UNL     1      22.609  13.507  60.186  1.00  0.00     0.168 HD
ATOM     24  H51 UNL     1      23.786  14.759  59.630  1.00  0.00     0.168 HD
ENDBRANCH  19  22
ENDBRANCH  18  19
ENDBRANCH   6  18
TORSDOF 6
ENDMDL
MODEL 5
REMARK VINA RESULT: -7.273674825      2.247      3.211
REMARK  6 active torsions:
REMARK  status: ('A' for Active; 'I' for Inactive)
REMARK    1  A    between atoms: N3_4  and  C2_6 
REMARK    2  A    between atoms: C2_6  and  C3_7 
REMARK    3  A    between atoms: C3_7  and  C4_8 
REMARK    4  A    between atoms: C6_13  and  C7_14 
REMARK    5  A    between atoms: C7_14  and  S1_15 
REMARK    6  A    between atoms: S1_15  and  N5_16 
ROOT
HETATM    1  C4  UNL     1      27.684  18.118  64.029  1.00  0.00     0.171 C 
HETATM    2  C5  UNL     1      28.738  17.091  64.055  1.00  0.00     0.232 C 
HETATM    3  O1  UNL     1      29.037  16.542  65.136  1.00  0.00    -0.273 OA
HETATM    4  N4  UNL     1      29.382  16.756  62.851  1.00  0.00    -0.338 N 
ATOM      5  H4  UNL     1      30.358  16.459  62.849  1.00  0.00     0.164 HD
HETATM    6  C6  UNL     1      28.635  16.839  61.619  1.00  0.00     0.202 C 
HETATM    7  N6  UNL     1      27.813  18.012  61.574  1.00  0.00    -0.338 N 
ATOM      8  H6  UNL     1      27.410  18.296  60.681  1.00  0.00     0.164 HD
HETATM    9  C8  UNL     1      27.537  18.800  62.738  1.00  0.00     0.232 C 
HETATM   10  O4  UNL     1      27.190  20.003  62.666  1.00  0.00    -0.273 OA
ENDROOT
BRANCH   1  11
HETATM   11  C3  UNL     1      26.368  17.616  64.562  1.00  0.00     0.043 C 
BRANCH  11  12
HETATM   12  C2  UNL     1      25.858  18.495  65.681  1.00  0.00     0.123 C 
BRANCH  12  13
HETATM   13  N3  UNL     1      24.420  18.641  65.554  1.00  0.00    -0.367 N 
HETATM   14  C1  UNL     1      23.908  19.741  65.114  1.00  0.00     0.196 C 
HETATM   15  N1  UNL     1      24.673  20.854  64.732  1.00  0.00    -0.067 NA
HETATM   16  N2  UNL     1      22.493  19.809  65.018  1.00  0.00    -0.067 NA
ATOM     17  H3  UNL     1      23.808  17.868  65.815  1.00  0.00     0.161 HD
ENDBRANCH  12  13
ENDBRANCH  11  12
ENDBRANCH   1  11
BRANCH   6  18
HETATM   18  C7  UNL     1      27.866  15.548  61.489  1.00  0.00     0.209 C 
BRANCH  18  19
HETATM   19  S1  UNL     1      26.434  15.700  60.467  1.00  0.00     0.228 S 
HETATM   20  O2  UNL     1      25.365  16.372  61.310  1.00  0.00    -0.206 OA
HETATM   21  O3  UNL     1      26.653  16.554  59.277  1.00  0.00    -0.206 OA
BRANCH  19  22
HETATM   22  N5  UNL     1      25.812  14.191  59.968  1.00  0.00    -0.328 N 
ATOM     23  H52 UNL     1      26.198  13.668  59.181  1.00  0.00     0.168 HD
ATOM     24  H51 UNL     1      25.026  13.878  60.538  1.00  0.00     0.168 HD
ENDBRANCH  19  22
ENDBRANCH  18  19
ENDBRANCH   6  18
TORSDOF 6
ENDMDL
