MODEL 1
REMARK VINA RESULT: -7.157783570      0.000      0.000
REMARK  6 active torsions:
REMARK  status: ('A' for Active; 'I' for Inactive)
REMARK    1  A    between atoms: N3_12  and  N4_14 
REMARK    2  A    between atoms: C9_18  and  N5_19 
REMARK    3  A    between atoms: N5_19  and  C10_21 
REMARK    4  A    between atoms: C10_21  and  C11_22 
REMARK    5  A    between atoms: C11_22  and  C12_23 
REMARK    6  A    between atoms: C12_23  and  N6_24 
ROOT
HETATM    1  C1  UNL     1      26.786  17.440  58.093  1.00  0.00     0.045 C 
HETATM    2  C2  UNL     1      27.122  17.597  59.361  1.00  0.00     0.051 A 
HETATM    3  N1  UNL     1      28.043  18.388  59.907  1.00  0.00    -0.355 N 
ATOM      4  H1  UNL     1      28.648  19.015  59.378  1.00  0.00     0.166 HD
HETATM    5  C3  UNL     1      28.079  18.254  61.265  1.00  0.00     0.037 A 
HETATM    6  C4  UNL     1      28.892  18.918  62.061  1.00  0.00     0.044 C 
HETATM    7  C5  UNL     1      27.141  17.334  61.636  1.00  0.00     0.041 A 
HETATM    8  C6  UNL     1      26.545  16.930  60.434  1.00  0.00     0.074 A 
HETATM    9  N2  UNL     1      25.593  16.060  60.427  1.00  0.00    -0.342 N 
ATOM     10  H2  UNL     1      25.182  15.799  59.531  1.00  0.00     0.167 HD
HETATM   11  C7  UNL     1      25.091  15.452  61.596  1.00  0.00     0.101 A 
HETATM   12  N3  UNL     1      24.125  14.603  61.587  1.00  0.00    -0.295 N 
ATOM     13  H3  UNL     1      23.815  14.207  62.475  1.00  0.00     0.187 HD
HETATM   14  C8  UNL     1      25.669  15.796  62.907  1.00  0.00     0.135 A 
HETATM   15  C9  UNL     1      26.762  16.826  62.791  1.00  0.00     0.027 A 
ENDROOT
BRANCH  15  16
HETATM   16  N5  UNL     1      27.325  17.185  64.051  1.00  0.00    -0.392 N 
ATOM     17  H5  UNL     1      28.290  16.960  64.292  1.00  0.00     0.159 HD
BRANCH  16  18
HETATM   18  C10 UNL     1      26.447  17.891  64.975  1.00  0.00     0.121 C 
BRANCH  18  19
HETATM   19  C11 UNL     1      26.661  19.365  64.962  1.00  0.00     0.039 C 
BRANCH  19  20
HETATM   20  C12 UNL     1      25.344  20.083  64.932  1.00  0.00     0.123 C 
BRANCH  20  21
HETATM   21  N6  UNL     1      24.626  19.850  66.184  1.00  0.00    -0.367 N 
HETATM   22  C13 UNL     1      23.362  19.724  66.171  1.00  0.00     0.196 C 
HETATM   23  N7  UNL     1      22.655  19.807  64.951  1.00  0.00    -0.067 NA
HETATM   24  N8  UNL     1      22.657  19.499  67.383  1.00  0.00    -0.067 NA
ATOM     25  H6  UNL     1      25.138  19.790  67.065  1.00  0.00     0.161 HD
ENDBRANCH  20  21
ENDBRANCH  19  20
ENDBRANCH  18  19
ENDBRANCH  16  18
ENDBRANCH  15  16
BRANCH  12  26
HETATM   26  N4  UNL     1      23.483  14.202  60.422  1.00  0.00    -0.344 N 
ATOM     27  H42 UNL     1      23.260  14.922  59.735  1.00  0.00     0.176 HD
ATOM     28  H41 UNL     1      23.233  13.231  60.233  1.00  0.00     0.176 HD
ENDBRANCH  12  26
TORSDOF 6
ENDMDL
MODEL 2
REMARK VINA RESULT: -7.155206296      1.755      2.166
REMARK  6 active torsions:
REMARK  status: ('A' for Active; 'I' for Inactive)
REMARK    1  A    between atoms: N3_12  and  N4_14 
REMARK    2  A    between atoms: C9_18  and  N5_19 
REMARK    3  A    between atoms: N5_19  and  C10_21 
REMARK    4  A    between atoms: C10_21  and  C11_22 
REMARK    5  A    between atoms: C11_22  and  C12_23 
REMARK    6  A    between atoms: C12_23  and  N6_24 
ROOT
HETATM    1  C1  UNL     1      27.819  18.710  59.597  1.00  0.00     0.045 C 
HETATM    2  C2  UNL     1      28.099  18.685  60.888  1.00  0.00     0.051 A 
HETATM    3  N1  UNL     1      29.220  19.017  61.524  1.00  0.00    -0.355 N 
ATOM      4  H1  UNL     1      30.063  19.358  61.061  1.00  0.00     0.166 HD
HETATM    5  C3  UNL     1      29.102  18.846  62.872  1.00  0.00     0.037 A 
HETATM    6  C4  UNL     1      30.057  19.101  63.746  1.00  0.00     0.044 C 
HETATM    7  C5  UNL     1      27.849  18.378  63.144  1.00  0.00     0.041 A 
HETATM    8  C6  UNL     1      27.227  18.283  61.892  1.00  0.00     0.074 A 
HETATM    9  N2  UNL     1      26.007  17.876  61.788  1.00  0.00    -0.342 N 
ATOM     10  H2  UNL     1      25.590  17.828  60.858  1.00  0.00     0.167 HD
HETATM   11  C7  UNL     1      25.222  17.495  62.895  1.00  0.00     0.101 A 
HETATM   12  N3  UNL     1      23.998  17.114  62.789  1.00  0.00    -0.295 N 
ATOM     13  H3  UNL     1      23.492  16.855  63.636  1.00  0.00     0.187 HD
HETATM   14  C8  UNL     1      25.795  17.540  64.251  1.00  0.00     0.135 A 
HETATM   15  C9  UNL     1      27.216  18.039  64.248  1.00  0.00     0.027 A 
ENDROOT
BRANCH  15  16
HETATM   16  N5  UNL     1      27.786  18.105  65.554  1.00  0.00    -0.392 N 
ATOM     17  H5  UNL     1      28.308  17.325  65.953  1.00  0.00     0.159 HD
BRANCH  16  18
HETATM   18  C10 UNL     1      27.582  19.347  66.287  1.00  0.00     0.121 C 
BRANCH  18  19
HETATM   19  C11 UNL     1      26.506  19.242  67.313  1.00  0.00     0.039 C 
BRANCH  19  20
HETATM   20  C12 UNL     1      25.463  20.295  67.086  1.00  0.00     0.123 C 
BRANCH  20  21
HETATM   21  N6  UNL     1      24.246  19.681  66.557  1.00  0.00    -0.367 N 
HETATM   22  C13 UNL     1      23.835  19.995  65.397  1.00  0.00     0.196 C 
HETATM   23  N7  UNL     1      24.552  20.931  64.621  1.00  0.00    -0.067 NA
HETATM   24  N8  UNL     1      22.653  19.403  64.877  1.00  0.00    -0.067 NA
ATOM     25  H6  UNL     1      23.729  19.003  67.118  1.00  0.00     0.161 HD
ENDBRANCH  20  21
ENDBRANCH  19  20
ENDBRANCH  18  19
ENDBRANCH  16  18
ENDBRANCH  15  16
BRANCH  12  26
HETATM   26  N4  UNL     1      23.333  17.038  61.572  1.00  0.00    -0.344 N 
ATOM     27  H42 UNL     1      23.281  16.125  61.119  1.00  0.00     0.176 HD
ATOM     28  H41 UNL     1      22.903  17.847  61.123  1.00  0.00     0.176 HD
ENDBRANCH  12  26
TORSDOF 6
ENDMDL
MODEL 3
REMARK VINA RESULT: -6.870026031      2.435      4.769
REMARK  6 active torsions:
REMARK  status: ('A' for Active; 'I' for Inactive)
REMARK    1  A    between atoms: N3_12  and  N4_14 
REMARK    2  A    between atoms: C9_18  and  N5_19 
REMARK    3  A    between atoms: N5_19  and  C10_21 
REMARK    4  A    between atoms: C10_21  and  C11_22 
REMARK    5  A    between atoms: C11_22  and  C12_23 
REMARK    6  A    between atoms: C12_23  and  N6_24 
ROOT
HETATM    1  C1  UNL     1      23.461  13.687  62.360  1.00  0.00     0.045 C 
HETATM    2  C2  UNL     1      24.669  14.119  62.042  1.00  0.00     0.051 A 
HETATM    3  N1  UNL     1      25.631  13.520  61.343  1.00  0.00    -0.355 N 
ATOM      4  H1  UNL     1      25.550  12.588  60.937  1.00  0.00     0.166 HD
HETATM    5  C3  UNL     1      26.739  14.308  61.239  1.00  0.00     0.037 A 
HETATM    6  C4  UNL     1      27.841  13.969  60.598  1.00  0.00     0.044 C 
HETATM    7  C5  UNL     1      26.503  15.481  61.896  1.00  0.00     0.041 A 
HETATM    8  C6  UNL     1      25.200  15.352  62.394  1.00  0.00     0.074 A 
HETATM    9  N2  UNL     1      24.653  16.306  63.068  1.00  0.00    -0.342 N 
ATOM     10  H2  UNL     1      23.699  16.174  63.407  1.00  0.00     0.167 HD
HETATM   11  C7  UNL     1      25.305  17.522  63.359  1.00  0.00     0.101 A 
HETATM   12  N3  UNL     1      24.745  18.479  64.011  1.00  0.00    -0.295 N 
ATOM     13  H3  UNL     1      25.281  19.331  64.182  1.00  0.00     0.187 HD
HETATM   14  C8  UNL     1      26.685  17.742  62.897  1.00  0.00     0.135 A 
HETATM   15  C9  UNL     1      27.214  16.568  62.115  1.00  0.00     0.027 A 
ENDROOT
BRANCH  15  16
HETATM   16  N5  UNL     1      28.546  16.767  61.644  1.00  0.00    -0.392 N 
ATOM     17  H5  UNL     1      28.738  17.120  60.707  1.00  0.00     0.159 HD
BRANCH  16  18
HETATM   18  C10 UNL     1      29.618  16.437  62.575  1.00  0.00     0.121 C 
BRANCH  18  19
HETATM   19  C11 UNL     1      30.762  17.387  62.496  1.00  0.00     0.039 C 
BRANCH  19  20
HETATM   20  C12 UNL     1      30.276  18.801  62.616  1.00  0.00     0.123 C 
BRANCH  20  21
HETATM   21  N6  UNL     1      29.889  19.076  63.999  1.00  0.00    -0.367 N 
HETATM   22  C13 UNL     1      29.300  20.165  64.283  1.00  0.00     0.196 C 
HETATM   23  N7  UNL     1      29.020  21.104  63.268  1.00  0.00    -0.067 NA
HETATM   24  N8  UNL     1      28.921  20.439  65.624  1.00  0.00    -0.067 NA
ATOM     25  H6  UNL     1      30.091  18.396  64.732  1.00  0.00     0.161 HD
ENDBRANCH  20  21
ENDBRANCH  19  20
ENDBRANCH  18  19
ENDBRANCH  16  18
ENDBRANCH  15  16
BRANCH  12  26
HETATM   26  N4  UNL     1      23.445  18.407  64.493  1.00  0.00    -0.344 N 
ATOM     27  H42 UNL     1      22.722  18.082  63.850  1.00  0.00     0.176 HD
ATOM     28  H41 UNL     1      23.192  18.661  65.447  1.00  0.00     0.176 HD
ENDBRANCH  12  26
TORSDOF 6
ENDMDL
MODEL 4
REMARK VINA RESULT: -6.771544409      2.332      4.054
REMARK  6 active torsions:
REMARK  status: ('A' for Active; 'I' for Inactive)
REMARK    1  A    between atoms: N3_12  and  N4_14 
REMARK    2  A    between atoms: C9_18  and  N5_19 
REMARK    3  A    between atoms: N5_19  and  C10_21 
REMARK    4  A    between atoms: C10_21  and  C11_22 
REMARK    5  A    between atoms: C11_22  and  C12_23 
REMARK    6  A    between atoms: C12_23  and  N6_24 
ROOT
HETATM    1  C1  UNL     1      26.171  15.079  60.427  1.00  0.00     0.045 C 
HETATM    2  C2  UNL     1      26.966  15.564  61.364  1.00  0.00     0.051 A 
HETATM    3  N1  UNL     1      28.288  15.475  61.491  1.00  0.00    -0.355 N 
ATOM      4  H1  UNL     1      28.896  14.985  60.834  1.00  0.00     0.166 HD
HETATM    5  C3  UNL     1      28.730  16.118  62.610  1.00  0.00     0.037 A 
HETATM    6  C4  UNL     1      29.993  16.193  62.981  1.00  0.00     0.044 C 
HETATM    7  C5  UNL     1      27.655  16.658  63.254  1.00  0.00     0.041 A 
HETATM    8  C6  UNL     1      26.553  16.306  62.463  1.00  0.00     0.074 A 
HETATM    9  N2  UNL     1      25.361  16.676  62.787  1.00  0.00    -0.342 N 
ATOM     10  H2  UNL     1      24.587  16.404  62.180  1.00  0.00     0.167 HD
HETATM   11  C7  UNL     1      25.072  17.436  63.939  1.00  0.00     0.101 A 
HETATM   12  N3  UNL     1      23.884  17.823  64.245  1.00  0.00    -0.295 N 
ATOM     13  H3  UNL     1      23.754  18.372  65.095  1.00  0.00     0.187 HD
HETATM   14  C8  UNL     1      26.162  17.836  64.846  1.00  0.00     0.135 A 
HETATM   15  C9  UNL     1      27.505  17.358  64.361  1.00  0.00     0.027 A 
ENDROOT
BRANCH  15  16
HETATM   16  N5  UNL     1      28.578  17.748  65.217  1.00  0.00    -0.392 N 
ATOM     17  H5  UNL     1      29.138  17.062  65.722  1.00  0.00     0.159 HD
BRANCH  16  18
HETATM   18  C10 UNL     1      28.829  19.178  65.330  1.00  0.00     0.121 C 
BRANCH  18  19
HETATM   19  C11 UNL     1      29.858  19.662  64.367  1.00  0.00     0.039 C 
BRANCH  19  20
HETATM   20  C12 UNL     1      29.219  20.490  63.292  1.00  0.00     0.123 C 
BRANCH  20  21
HETATM   21  N6  UNL     1      29.148  19.721  62.051  1.00  0.00    -0.367 N 
HETATM   22  C13 UNL     1      28.022  19.524  61.495  1.00  0.00     0.196 C 
HETATM   23  N7  UNL     1      26.847  20.049  62.074  1.00  0.00    -0.067 NA
HETATM   24  N8  UNL     1      27.945  18.777  60.290  1.00  0.00    -0.067 NA
ATOM     25  H6  UNL     1      29.999  19.343  61.633  1.00  0.00     0.161 HD
ENDBRANCH  20  21
ENDBRANCH  19  20
ENDBRANCH  18  19
ENDBRANCH  16  18
ENDBRANCH  15  16
BRANCH  12  26
HETATM   26  N4  UNL     1      22.770  17.526  63.471  1.00  0.00    -0.344 N 
ATOM     27  H42 UNL     1      22.913  16.949  62.641  1.00  0.00     0.176 HD
ATOM     28  H41 UNL     1      21.832  17.856  63.699  1.00  0.00     0.176 HD
ENDBRANCH  12  26
TORSDOF 6
ENDMDL
MODEL 5
REMARK VINA RESULT: -6.765093184      1.643      1.998
REMARK  6 active torsions:
REMARK  status: ('A' for Active; 'I' for Inactive)
REMARK    1  A    between atoms: N3_12  and  N4_14 
REMARK    2  A    between atoms: C9_18  and  N5_19 
REMARK    3  A    between atoms: N5_19  and  C10_21 
REMARK    4  A    between atoms: C10_21  and  C11_22 
REMARK    5  A    between atoms: C11_22  and  C12_23 
REMARK    6  A    between atoms: C12_23  and  N6_24 
ROOT
HETATM    1  C1  UNL     1      27.900  14.175  60.065  1.00  0.00     0.045 C 
HETATM    2  C2  UNL     1      27.604  15.358  60.574  1.00  0.00     0.051 A 
HETATM    3  N1  UNL     1      28.266  16.510  60.491  1.00  0.00    -0.355 N 
ATOM      4  H1  UNL     1      29.145  16.632  59.988  1.00  0.00     0.166 HD
HETATM    5  C3  UNL     1      27.622  17.508  61.163  1.00  0.00     0.037 A 
HETATM    6  C4  UNL     1      28.049  18.752  61.244  1.00  0.00     0.044 C 
HETATM    7  C5  UNL     1      26.484  16.996  61.716  1.00  0.00     0.041 A 
HETATM    8  C6  UNL     1      26.482  15.646  61.338  1.00  0.00     0.074 A 
HETATM    9  N2  UNL     1      25.522  14.862  61.693  1.00  0.00    -0.342 N 
ATOM     10  H2  UNL     1      25.556  13.888  61.391  1.00  0.00     0.167 HD
HETATM   11  C7  UNL     1      24.427  15.282  62.476  1.00  0.00     0.101 A 
HETATM   12  N3  UNL     1      23.460  14.502  62.806  1.00  0.00    -0.295 N 
ATOM     13  H3  UNL     1      22.701  14.879  63.375  1.00  0.00     0.187 HD
HETATM   14  C8  UNL     1      24.352  16.678  62.940  1.00  0.00     0.135 A 
HETATM   15  C9  UNL     1      25.518  17.499  62.458  1.00  0.00     0.027 A 
ENDROOT
BRANCH  15  16
HETATM   16  N5  UNL     1      25.457  18.859  62.884  1.00  0.00    -0.392 N 
ATOM     17  H5  UNL     1      25.110  19.598  62.273  1.00  0.00     0.159 HD
BRANCH  16  18
HETATM   18  C10 UNL     1      25.917  19.134  64.238  1.00  0.00     0.121 C 
BRANCH  18  19
HETATM   19  C11 UNL     1      25.013  20.059  64.978  1.00  0.00     0.039 C 
BRANCH  19  20
HETATM   20  C12 UNL     1      23.714  19.380  65.292  1.00  0.00     0.123 C 
BRANCH  20  21
HETATM   21  N6  UNL     1      23.931  18.337  66.295  1.00  0.00    -0.367 N 
HETATM   22  C13 UNL     1      23.295  18.378  67.394  1.00  0.00     0.196 C 
HETATM   23  N7  UNL     1      22.381  19.424  67.644  1.00  0.00    -0.067 NA
HETATM   24  N8  UNL     1      23.501  17.369  68.372  1.00  0.00    -0.067 NA
ATOM     25  H6  UNL     1      24.591  17.581  66.112  1.00  0.00     0.161 HD
ENDBRANCH  20  21
ENDBRANCH  19  20
ENDBRANCH  18  19
ENDBRANCH  16  18
ENDBRANCH  15  16
BRANCH  12  26
HETATM   26  N4  UNL     1      23.401  13.168  62.425  1.00  0.00    -0.344 N 
ATOM     27  H42 UNL     1      23.837  12.912  61.538  1.00  0.00     0.176 HD
ATOM     28  H41 UNL     1      22.947  12.449  62.988  1.00  0.00     0.176 HD
ENDBRANCH  12  26
TORSDOF 6
ENDMDL
