MODEL 1
REMARK VINA RESULT: -6.798854347      0.000      0.000
REMARK  13 active torsions:
REMARK  status: ('A' for Active; 'I' for Inactive)
REMARK    1  A    between atoms: N6_14  and  C4_15 
REMARK    2  A    between atoms: C4_15  and  C5_16 
REMARK    3  A    between atoms: C5_16  and  C6_17 
REMARK    4  A    between atoms: C5_16  and  C12_31 
REMARK    5  A    between atoms: C6_17  and  N7_18 
REMARK    6  A    between atoms: N7_18  and  N8_19 
REMARK    7  A    between atoms: N8_19  and  C7_20 
REMARK    8  A    between atoms: C7_20  and  C8_21 
REMARK    9  A    between atoms: C9_24  and  O1_25 
REMARK   10  A    between atoms: C11_28  and  O2_29 
REMARK   11  A    between atoms: C13_34  and  N11_35 
REMARK   12  A    between atoms: C15_44  and  O3_45 
REMARK   13  A    between atoms: C16_47  and  O4_48 
ROOT
HETATM    1  C5  UNL     1      21.945   2.967   9.330  1.00  0.00     0.002 C 
ENDROOT
BRANCH   1   2
HETATM    2  C4  UNL     1      21.273   1.829   8.645  1.00  0.00     0.192 C 
BRANCH   2   3
HETATM    3  N6  UNL     1      20.993   0.693   9.505  1.00  0.00    -0.255 N 
HETATM    4  C1  UNL     1      21.949  -0.109  10.070  1.00  0.00     0.149 A 
HETATM    5  N1  UNL     1      23.220   0.018   9.917  1.00  0.00    -0.382 N 
HETATM    6  C2  UNL     1      21.343  -1.083  10.835  1.00  0.00     0.139 A 
ATOM      7  H12 UNL     1      23.932  -0.579  10.337  1.00  0.00     0.157 HD
ATOM      8  H11 UNL     1      23.668   0.739   9.350  1.00  0.00     0.157 HD
HETATM    9  C3  UNL     1      21.487  -2.181  11.660  1.00  0.00     0.146 A 
HETATM   10  N4  UNL     1      20.041  -0.861  10.725  1.00  0.00    -0.162 N 
HETATM   11  N2  UNL     1      20.241  -2.557  11.999  1.00  0.00    -0.293 N 
HETATM   12  N3  UNL     1      19.369  -1.755  11.433  1.00  0.00    -0.220 N 
ATOM     13  H2  UNL     1      20.008  -3.344  12.606  1.00  0.00     0.187 HD
ATOM     14  H3  UNL     1      18.355  -1.811  11.521  1.00  0.00     0.210 HD
HETATM   15  N5  UNL     1      19.855   0.187   9.939  1.00  0.00    -0.215 N 
ATOM     16  H5  UNL     1      18.937   0.561   9.697  1.00  0.00     0.211 HD
ENDBRANCH   2   3
ENDBRANCH   1   2
BRANCH   1  17
HETATM   17  C6  UNL     1      21.032   4.037   9.823  1.00  0.00     0.170 C 
BRANCH  17  18
HETATM   18  N7  UNL     1      21.186   5.174   8.904  1.00  0.00    -0.144 NA
BRANCH  18  19
HETATM   19  N8  UNL     1      20.911   6.388   9.487  1.00  0.00    -0.142 NA
BRANCH  19  20
HETATM   20  C7  UNL     1      21.897   6.809  10.460  1.00  0.00     0.190 C 
BRANCH  20  21
HETATM   21  C8  UNL     1      23.185   7.090   9.775  1.00  0.00     0.060 A 
HETATM   22  N9  UNL     1      24.414   6.887  10.279  1.00  0.00    -0.337 N 
HETATM   23  C9  UNL     1      25.362   7.246   9.401  1.00  0.00     0.142 A 
ATOM     24  H9  UNL     1      24.601   6.510  11.209  1.00  0.00     0.168 HD
HETATM   25  C10 UNL     1      24.731   7.706   8.268  1.00  0.00     0.094 A 
HETATM   26  C11 UNL     1      23.362   7.605   8.508  1.00  0.00     0.093 A 
BRANCH  23  27
HETATM   27  O1  UNL     1      26.747   7.179   9.573  1.00  0.00    -0.346 OA
ATOM     28  H1  UNL     1      27.288   7.737  10.119  1.00  0.00     0.219 HD
ENDBRANCH  23  27
BRANCH  26  29
HETATM   29  O2  UNL     1      22.344   7.961   7.629  1.00  0.00    -0.359 OA
ATOM     30  H2  UNL     1      22.398   8.640   6.966  1.00  0.00     0.217 HD
ENDBRANCH  26  29
ENDBRANCH  20  21
ENDBRANCH  19  20
ENDBRANCH  18  19
ENDBRANCH  17  18
ENDBRANCH   1  17
BRANCH   1  31
HETATM   31  C12 UNL     1      23.227   3.430   8.780  1.00  0.00     0.149 A 
HETATM   32  N10 UNL     1      23.376   3.905   7.492  1.00  0.00    -0.172 N 
HETATM   33  C13 UNL     1      24.631   4.237   7.255  1.00  0.00     0.714 A 
ATOM     34  H10 UNL     1      22.617   3.989   6.815  1.00  0.00     0.186 HD
HETATM   35  N12 UNL     1      25.302   3.982   8.372  1.00  0.00    -0.015 N 
HETATM   36  N13 UNL     1      24.444   3.489   9.308  1.00  0.00    -0.193 N 
HETATM   37  N17 UNL     1      26.649   4.141   8.659  1.00  0.00    -0.269 N 
HETATM   38  C14 UNL     1      25.050   3.186  10.529  1.00  0.00     0.262 C 
HETATM   39  N14 UNL     1      24.461   2.558  11.615  1.00  0.00    -0.074 NA
HETATM   40  N16 UNL     1      25.358   4.294  11.427  1.00  0.00    -0.074 NA
HETATM   41  C15 UNL     1      26.401   2.464  10.311  1.00  0.00     0.234 C 
HETATM   42  N15 UNL     1      25.141   3.417  12.493  1.00  0.00    -0.032 NA
HETATM   43  C16 UNL     1      27.372   3.213   9.502  1.00  0.00     0.269 C 
ATOM     44  H17 UNL     1      27.147   4.939   8.264  1.00  0.00     0.186 HD
BRANCH  33  45
HETATM   45  N11 UNL     1      25.085   4.721   6.122  1.00  0.00    -0.231 N 
ATOM     46 2H11 UNL     1      26.009   4.602   5.707  1.00  0.00     0.174 HD
ATOM     47 1H11 UNL     1      24.554   5.306   5.477  1.00  0.00     0.174 HD
ENDBRANCH  33  45
BRANCH  41  48
HETATM   48  O3  UNL     1      26.166   1.198   9.794  1.00  0.00    -0.386 OA
ATOM     49  H3  UNL     1      26.353   0.548  10.461  1.00  0.00     0.210 HD
ENDBRANCH  41  48
BRANCH  43  50
HETATM   50  O4  UNL     1      28.335   3.896  10.239  1.00  0.00    -0.373 OA
ATOM     51  H4  UNL     1      28.900   4.460   9.725  1.00  0.00     0.212 HD
ENDBRANCH  43  50
ENDBRANCH   1  31
TORSDOF 13
ENDMDL
MODEL 2
REMARK VINA RESULT: -6.685729551      2.761      8.019
REMARK  13 active torsions:
REMARK  status: ('A' for Active; 'I' for Inactive)
REMARK    1  A    between atoms: N6_14  and  C4_15 
REMARK    2  A    between atoms: C4_15  and  C5_16 
REMARK    3  A    between atoms: C5_16  and  C6_17 
REMARK    4  A    between atoms: C5_16  and  C12_31 
REMARK    5  A    between atoms: C6_17  and  N7_18 
REMARK    6  A    between atoms: N7_18  and  N8_19 
REMARK    7  A    between atoms: N8_19  and  C7_20 
REMARK    8  A    between atoms: C7_20  and  C8_21 
REMARK    9  A    between atoms: C9_24  and  O1_25 
REMARK   10  A    between atoms: C11_28  and  O2_29 
REMARK   11  A    between atoms: C13_34  and  N11_35 
REMARK   12  A    between atoms: C15_44  and  O3_45 
REMARK   13  A    between atoms: C16_47  and  O4_48 
ROOT
HETATM    1  C5  UNL     1      26.190   5.173   7.707  1.00  0.00     0.002 C 
ENDROOT
BRANCH   1   2
HETATM    2  C4  UNL     1      26.296   5.541   6.268  1.00  0.00     0.192 C 
BRANCH   2   3
HETATM    3  N6  UNL     1      26.834   6.867   6.026  1.00  0.00    -0.255 N 
HETATM    4  C1  UNL     1      26.145   8.035   6.229  1.00  0.00     0.149 A 
HETATM    5  N1  UNL     1      24.933   8.126   6.650  1.00  0.00    -0.382 N 
HETATM    6  C2  UNL     1      26.950   9.108   5.913  1.00  0.00     0.139 A 
ATOM      7  H12 UNL     1      24.420   8.995   6.801  1.00  0.00     0.157 HD
ATOM      8  H11 UNL     1      24.337   7.331   6.883  1.00  0.00     0.157 HD
HETATM    9  C3  UNL     1      27.089  10.479   5.820  1.00  0.00     0.146 A 
HETATM   10  N4  UNL     1      28.104   8.583   5.527  1.00  0.00    -0.162 N 
HETATM   11  N2  UNL     1      28.341  10.696   5.375  1.00  0.00    -0.293 N 
HETATM   12  N3  UNL     1      28.951   9.547   5.200  1.00  0.00    -0.220 N 
ATOM     13  H2  UNL     1      28.752  11.613   5.202  1.00  0.00     0.187 HD
ATOM     14  H3  UNL     1      29.908   9.419   4.871  1.00  0.00     0.210 HD
HETATM   15  N5  UNL     1      28.016   7.265   5.600  1.00  0.00    -0.215 N 
ATOM     16  H5  UNL     1      28.776   6.630   5.356  1.00  0.00     0.211 HD
ENDBRANCH   2   3
ENDBRANCH   1   2
BRANCH   1  17
HETATM   17  C6  UNL     1      27.343   4.398   8.248  1.00  0.00     0.170 C 
BRANCH  17  18
HETATM   18  N7  UNL     1      27.287   4.535   9.711  1.00  0.00    -0.144 NA
BRANCH  18  19
HETATM   19  N8  UNL     1      27.843   3.470  10.379  1.00  0.00    -0.142 NA
BRANCH  19  20
HETATM   20  C7  UNL     1      27.142   2.220  10.179  1.00  0.00     0.190 C 
BRANCH  20  21
HETATM   21  C8  UNL     1      25.811   2.282  10.838  1.00  0.00     0.060 A 
HETATM   22  N9  UNL     1      25.297   3.338  11.491  1.00  0.00    -0.337 N 
HETATM   23  C9  UNL     1      24.074   3.063  11.967  1.00  0.00     0.142 A 
ATOM     24  H9  UNL     1      25.775   4.232  11.608  1.00  0.00     0.168 HD
HETATM   25  C10 UNL     1      23.768   1.768  11.614  1.00  0.00     0.094 A 
HETATM   26  C11 UNL     1      24.864   1.282  10.903  1.00  0.00     0.093 A 
BRANCH  23  27
HETATM   27  O1  UNL     1      23.237   3.912  12.694  1.00  0.00    -0.346 OA
ATOM     28  H1  UNL     1      22.587   3.665  13.342  1.00  0.00     0.219 HD
ENDBRANCH  23  27
BRANCH  26  29
HETATM   29  O2  UNL     1      24.990   0.011  10.353  1.00  0.00    -0.359 OA
ATOM     30  H2  UNL     1      25.077  -0.185   9.427  1.00  0.00     0.217 HD
ENDBRANCH  26  29
ENDBRANCH  20  21
ENDBRANCH  19  20
ENDBRANCH  18  19
ENDBRANCH  17  18
ENDBRANCH   1  17
BRANCH   1  31
HETATM   31  C12 UNL     1      24.867   4.781   8.212  1.00  0.00     0.149 A 
HETATM   32  N10 UNL     1      24.229   3.612   7.847  1.00  0.00    -0.172 N 
HETATM   33  C13 UNL     1      23.050   3.517   8.434  1.00  0.00     0.714 A 
ATOM     34  H10 UNL     1      24.616   2.916   7.210  1.00  0.00     0.186 HD
HETATM   35  N12 UNL     1      22.913   4.609   9.176  1.00  0.00    -0.015 N 
HETATM   36  N13 UNL     1      24.025   5.385   9.043  1.00  0.00    -0.193 N 
HETATM   37  N17 UNL     1      21.862   5.011   9.986  1.00  0.00    -0.269 N 
HETATM   38  C14 UNL     1      23.985   6.566   9.786  1.00  0.00     0.262 C 
HETATM   39  N14 UNL     1      24.907   7.600   9.752  1.00  0.00    -0.074 NA
HETATM   40  N16 UNL     1      24.247   6.476  11.219  1.00  0.00    -0.074 NA
HETATM   41  C15 UNL     1      22.596   7.240   9.677  1.00  0.00     0.234 C 
HETATM   42  N15 UNL     1      24.798   7.758  11.142  1.00  0.00    -0.032 NA
HETATM   43  C16 UNL     1      21.472   6.399  10.110  1.00  0.00     0.269 C 
ATOM     44  H17 UNL     1      21.346   4.305  10.512  1.00  0.00     0.186 HD
BRANCH  33  45
HETATM   45  N11 UNL     1      22.209   2.519   8.287  1.00  0.00    -0.231 N 
ATOM     46 2H11 UNL     1      22.263   1.581   8.684  1.00  0.00     0.174 HD
ATOM     47 1H11 UNL     1      21.354   2.547   7.732  1.00  0.00     0.174 HD
ENDBRANCH  33  45
BRANCH  41  48
HETATM   48  O3  UNL     1      22.418   7.716   8.387  1.00  0.00    -0.386 OA
ATOM     49  H3  UNL     1      23.035   8.419   8.223  1.00  0.00     0.210 HD
ENDBRANCH  41  48
BRANCH  43  50
HETATM   50  O4  UNL     1      21.026   6.651  11.405  1.00  0.00    -0.373 OA
ATOM     51  H4  UNL     1      20.150   6.336  11.589  1.00  0.00     0.212 HD
ENDBRANCH  43  50
ENDBRANCH   1  31
TORSDOF 13
ENDMDL
MODEL 3
REMARK VINA RESULT: -6.596591367      2.774      7.333
REMARK  13 active torsions:
REMARK  status: ('A' for Active; 'I' for Inactive)
REMARK    1  A    between atoms: N6_14  and  C4_15 
REMARK    2  A    between atoms: C4_15  and  C5_16 
REMARK    3  A    between atoms: C5_16  and  C6_17 
REMARK    4  A    between atoms: C5_16  and  C12_31 
REMARK    5  A    between atoms: C6_17  and  N7_18 
REMARK    6  A    between atoms: N7_18  and  N8_19 
REMARK    7  A    between atoms: N8_19  and  C7_20 
REMARK    8  A    between atoms: C7_20  and  C8_21 
REMARK    9  A    between atoms: C9_24  and  O1_25 
REMARK   10  A    between atoms: C11_28  and  O2_29 
REMARK   11  A    between atoms: C13_34  and  N11_35 
REMARK   12  A    between atoms: C15_44  and  O3_45 
REMARK   13  A    between atoms: C16_47  and  O4_48 
ROOT
HETATM    1  C5  UNL     1      26.324   5.267   7.770  1.00  0.00     0.002 C 
ENDROOT
BRANCH   1   2
HETATM    2  C4  UNL     1      26.476   5.717   6.359  1.00  0.00     0.192 C 
BRANCH   2   3
HETATM    3  N6  UNL     1      25.434   6.618   5.902  1.00  0.00    -0.255 N 
HETATM    4  C1  UNL     1      25.367   7.951   6.213  1.00  0.00     0.149 A 
HETATM    5  N1  UNL     1      26.203   8.590   6.954  1.00  0.00    -0.382 N 
HETATM    6  C2  UNL     1      24.263   8.513   5.609  1.00  0.00     0.139 A 
ATOM      7  H12 UNL     1      26.153   9.582   7.186  1.00  0.00     0.157 HD
ATOM      8  H11 UNL     1      27.020   8.173   7.402  1.00  0.00     0.157 HD
HETATM    9  C3  UNL     1      23.497   9.640   5.389  1.00  0.00     0.146 A 
HETATM   10  N4  UNL     1      23.680   7.524   4.947  1.00  0.00    -0.162 N 
HETATM   11  N2  UNL     1      22.484   9.251   4.593  1.00  0.00    -0.293 N 
HETATM   12  N3  UNL     1      22.599   7.971   4.328  1.00  0.00    -0.220 N 
ATOM     13  H2  UNL     1      21.740   9.859   4.248  1.00  0.00     0.187 HD
ATOM     14  H3  UNL     1      21.968   7.418   3.748  1.00  0.00     0.210 HD
HETATM   15  N5  UNL     1      24.384   6.418   5.131  1.00  0.00    -0.215 N 
ATOM     16  H5  UNL     1      24.141   5.515   4.723  1.00  0.00     0.211 HD
ENDBRANCH   2   3
ENDBRANCH   1   2
BRANCH   1  17
HETATM   17  C6  UNL     1      27.456   4.454   8.300  1.00  0.00     0.170 C 
BRANCH  17  18
HETATM   18  N7  UNL     1      27.362   4.512   9.766  1.00  0.00    -0.144 NA
BRANCH  18  19
HETATM   19  N8  UNL     1      27.884   3.405  10.390  1.00  0.00    -0.142 NA
BRANCH  19  20
HETATM   20  C7  UNL     1      27.149   2.185  10.137  1.00  0.00     0.190 C 
BRANCH  20  21
HETATM   21  C8  UNL     1      25.814   2.263  10.785  1.00  0.00     0.060 A 
HETATM   22  N9  UNL     1      25.314   3.319  11.449  1.00  0.00    -0.337 N 
HETATM   23  C9  UNL     1      24.082   3.060  11.911  1.00  0.00     0.142 A 
ATOM     24  H9  UNL     1      25.807   4.201  11.584  1.00  0.00     0.168 HD
HETATM   25  C10 UNL     1      23.755   1.776  11.535  1.00  0.00     0.094 A 
HETATM   26  C11 UNL     1      24.848   1.280  10.827  1.00  0.00     0.093 A 
BRANCH  23  27
HETATM   27  O1  UNL     1      23.254   3.913  12.644  1.00  0.00    -0.346 OA
ATOM     28  H1  UNL     1      23.220   4.861  12.601  1.00  0.00     0.219 HD
ENDBRANCH  23  27
BRANCH  26  29
HETATM   29  O2  UNL     1      24.955   0.015  10.259  1.00  0.00    -0.359 OA
ATOM     30  H2  UNL     1      25.154  -0.168   9.348  1.00  0.00     0.217 HD
ENDBRANCH  26  29
ENDBRANCH  20  21
ENDBRANCH  19  20
ENDBRANCH  18  19
ENDBRANCH  17  18
ENDBRANCH   1  17
BRANCH   1  31
HETATM   31  C12 UNL     1      24.985   4.856   8.212  1.00  0.00     0.149 A 
HETATM   32  N10 UNL     1      24.368   3.694   7.793  1.00  0.00    -0.172 N 
HETATM   33  C13 UNL     1      23.167   3.578   8.330  1.00  0.00     0.714 A 
ATOM     34  H10 UNL     1      24.785   3.015   7.156  1.00  0.00     0.186 HD
HETATM   35  N12 UNL     1      22.994   4.652   9.092  1.00  0.00    -0.015 N 
HETATM   36  N13 UNL     1      24.106   5.435   9.023  1.00  0.00    -0.193 N 
HETATM   37  N17 UNL     1      21.909   5.028   9.869  1.00  0.00    -0.269 N 
HETATM   38  C14 UNL     1      24.029   6.598   9.793  1.00  0.00     0.262 C 
HETATM   39  N14 UNL     1      24.946   7.637   9.820  1.00  0.00    -0.074 NA
HETATM   40  N16 UNL     1      24.234   6.473  11.232  1.00  0.00    -0.074 NA
HETATM   41  C15 UNL     1      22.642   7.267   9.644  1.00  0.00     0.234 C 
HETATM   42  N15 UNL     1      24.780   7.759  11.209  1.00  0.00    -0.032 NA
HETATM   43  C16 UNL     1      21.506   6.411  10.011  1.00  0.00     0.269 C 
ATOM     44  H17 UNL     1      21.377   4.306  10.356  1.00  0.00     0.186 HD
BRANCH  33  45
HETATM   45  N11 UNL     1      22.339   2.580   8.125  1.00  0.00    -0.231 N 
ATOM     46 2H11 UNL     1      22.479   1.747   7.553  1.00  0.00     0.174 HD
ATOM     47 1H11 UNL     1      21.404   2.500   8.524  1.00  0.00     0.174 HD
ENDBRANCH  33  45
BRANCH  41  48
HETATM   48  O3  UNL     1      22.513   7.774   8.360  1.00  0.00    -0.386 OA
ATOM     49  H3  UNL     1      22.120   8.638   8.401  1.00  0.00     0.210 HD
ENDBRANCH  41  48
BRANCH  43  50
HETATM   50  O4  UNL     1      21.008   6.628  11.293  1.00  0.00    -0.373 OA
ATOM     51  H4  UNL     1      20.082   6.833  11.327  1.00  0.00     0.212 HD
ENDBRANCH  43  50
ENDBRANCH   1  31
TORSDOF 13
ENDMDL
MODEL 4
REMARK VINA RESULT: -6.570016309      2.588      7.190
REMARK  13 active torsions:
REMARK  status: ('A' for Active; 'I' for Inactive)
REMARK    1  A    between atoms: N6_14  and  C4_15 
REMARK    2  A    between atoms: C4_15  and  C5_16 
REMARK    3  A    between atoms: C5_16  and  C6_17 
REMARK    4  A    between atoms: C5_16  and  C12_31 
REMARK    5  A    between atoms: C6_17  and  N7_18 
REMARK    6  A    between atoms: N7_18  and  N8_19 
REMARK    7  A    between atoms: N8_19  and  C7_20 
REMARK    8  A    between atoms: C7_20  and  C8_21 
REMARK    9  A    between atoms: C9_24  and  O1_25 
REMARK   10  A    between atoms: C11_28  and  O2_29 
REMARK   11  A    between atoms: C13_34  and  N11_35 
REMARK   12  A    between atoms: C15_44  and  O3_45 
REMARK   13  A    between atoms: C16_47  and  O4_48 
ROOT
HETATM    1  C5  UNL     1      26.396   1.425  10.548  1.00  0.00     0.002 C 
ENDROOT
BRANCH   1   2
HETATM    2  C4  UNL     1      27.584   1.966   9.832  1.00  0.00     0.192 C 
BRANCH   2   3
HETATM    3  N6  UNL     1      27.419   3.319   9.333  1.00  0.00    -0.255 N 
HETATM    4  C1  UNL     1      27.356   3.656   8.007  1.00  0.00     0.149 A 
HETATM    5  N1  UNL     1      27.442   2.835   7.020  1.00  0.00    -0.382 N 
HETATM    6  C2  UNL     1      27.185   5.018   7.882  1.00  0.00     0.139 A 
ATOM      7  H12 UNL     1      27.396   3.086   6.032  1.00  0.00     0.157 HD
ATOM      8  H11 UNL     1      27.569   1.826   7.112  1.00  0.00     0.157 HD
HETATM    9  C3  UNL     1      27.037   6.108   7.047  1.00  0.00     0.146 A 
HETATM   10  N4  UNL     1      27.147   5.484   9.122  1.00  0.00    -0.162 N 
HETATM   11  N2  UNL     1      26.918   7.179   7.852  1.00  0.00    -0.293 N 
HETATM   12  N3  UNL     1      26.984   6.798   9.106  1.00  0.00    -0.220 N 
ATOM     13  H2  UNL     1      26.794   8.141   7.535  1.00  0.00     0.187 HD
ATOM     14  H3  UNL     1      26.921   7.405   9.923  1.00  0.00     0.210 HD
HETATM   15  N5  UNL     1      27.286   4.470   9.961  1.00  0.00    -0.215 N 
ATOM     16  H5  UNL     1      27.289   4.568  10.977  1.00  0.00     0.211 HD
ENDBRANCH   2   3
ENDBRANCH   1   2
BRANCH   1  17
HETATM   17  C6  UNL     1      26.561   0.048  11.096  1.00  0.00     0.170 C 
BRANCH  17  18
HETATM   18  N7  UNL     1      25.593  -0.082  12.196  1.00  0.00    -0.144 NA
BRANCH  18  19
HETATM   19  N8  UNL     1      25.085  -1.352  12.327  1.00  0.00    -0.142 NA
BRANCH  19  20
HETATM   20  C7  UNL     1      24.341  -1.810  11.174  1.00  0.00     0.190 C 
BRANCH  20  21
HETATM   21  C8  UNL     1      23.015  -1.139  11.136  1.00  0.00     0.060 A 
HETATM   22  N9  UNL     1      22.657  -0.048  11.835  1.00  0.00    -0.337 N 
HETATM   23  C9  UNL     1      21.390   0.300  11.571  1.00  0.00     0.142 A 
ATOM     24  H9  UNL     1      23.270   0.448  12.482  1.00  0.00     0.168 HD
HETATM   25  C10 UNL     1      20.889  -0.600  10.657  1.00  0.00     0.094 A 
HETATM   26  C11 UNL     1      21.916  -1.503  10.388  1.00  0.00     0.093 A 
BRANCH  23  27
HETATM   27  O1  UNL     1      20.676   1.375  12.106  1.00  0.00    -0.346 OA
ATOM     28  H1  UNL     1      19.785   1.369  12.437  1.00  0.00     0.219 HD
ENDBRANCH  23  27
BRANCH  26  29
HETATM   29  O2  UNL     1      21.852  -2.586   9.516  1.00  0.00    -0.359 OA
ATOM     30  H2  UNL     1      21.055  -2.973   9.173  1.00  0.00     0.217 HD
ENDBRANCH  26  29
ENDBRANCH  20  21
ENDBRANCH  19  20
ENDBRANCH  18  19
ENDBRANCH  17  18
ENDBRANCH   1  17
BRANCH   1  31
HETATM   31  C12 UNL     1      25.070   1.735   9.996  1.00  0.00     0.149 A 
HETATM   32  N10 UNL     1      24.555   1.130   8.867  1.00  0.00    -0.172 N 
HETATM   33  C13 UNL     1      23.356   1.605   8.584  1.00  0.00     0.714 A 
ATOM     34  H10 UNL     1      25.036   0.412   8.325  1.00  0.00     0.186 HD
HETATM   35  N12 UNL     1      23.085   2.513   9.514  1.00  0.00    -0.015 N 
HETATM   36  N13 UNL     1      24.132   2.594  10.381  1.00  0.00    -0.193 N 
HETATM   37  N17 UNL     1      21.965   3.313   9.679  1.00  0.00    -0.269 N 
HETATM   38  C14 UNL     1      23.950   3.524  11.406  1.00  0.00     0.262 C 
HETATM   39  N14 UNL     1      24.886   3.912  12.351  1.00  0.00    -0.074 NA
HETATM   40  N16 UNL     1      23.086   3.147  12.520  1.00  0.00    -0.074 NA
HETATM   41  C15 UNL     1      23.341   4.837  10.857  1.00  0.00     0.234 C 
HETATM   42  N15 UNL     1      23.889   3.944  13.340  1.00  0.00    -0.032 NA
HETATM   43  C16 UNL     1      22.055   4.673  10.166  1.00  0.00     0.269 C 
ATOM     44  H17 UNL     1      21.047   2.931   9.450  1.00  0.00     0.186 HD
BRANCH  33  45
HETATM   45  N11 UNL     1      22.612   1.226   7.571  1.00  0.00    -0.231 N 
ATOM     46 2H11 UNL     1      21.972   1.787   7.009  1.00  0.00     0.174 HD
ATOM     47 1H11 UNL     1      22.568   0.279   7.195  1.00  0.00     0.174 HD
ENDBRANCH  33  45
BRANCH  41  48
HETATM   48  O3  UNL     1      24.278   5.479  10.060  1.00  0.00    -0.386 OA
ATOM     49  H3  UNL     1      23.923   6.309   9.766  1.00  0.00     0.210 HD
ENDBRANCH  41  48
BRANCH  43  50
HETATM   50  O4  UNL     1      20.939   4.972  10.941  1.00  0.00    -0.373 OA
ATOM     51  H4  UNL     1      20.159   4.480  10.717  1.00  0.00     0.212 HD
ENDBRANCH  43  50
ENDBRANCH   1  31
TORSDOF 13
ENDMDL
MODEL 5
REMARK VINA RESULT: -6.528513542      0.721      1.319
REMARK  13 active torsions:
REMARK  status: ('A' for Active; 'I' for Inactive)
REMARK    1  A    between atoms: N6_14  and  C4_15 
REMARK    2  A    between atoms: C4_15  and  C5_16 
REMARK    3  A    between atoms: C5_16  and  C6_17 
REMARK    4  A    between atoms: C5_16  and  C12_31 
REMARK    5  A    between atoms: C6_17  and  N7_18 
REMARK    6  A    between atoms: N7_18  and  N8_19 
REMARK    7  A    between atoms: N8_19  and  C7_20 
REMARK    8  A    between atoms: C7_20  and  C8_21 
REMARK    9  A    between atoms: C9_24  and  O1_25 
REMARK   10  A    between atoms: C11_28  and  O2_29 
REMARK   11  A    between atoms: C13_34  and  N11_35 
REMARK   12  A    between atoms: C15_44  and  O3_45 
REMARK   13  A    between atoms: C16_47  and  O4_48 
ROOT
HETATM    1  C5  UNL     1      21.868   3.170   9.248  1.00  0.00     0.002 C 
ENDROOT
BRANCH   1   2
HETATM    2  C4  UNL     1      21.294   1.864   8.822  1.00  0.00     0.192 C 
BRANCH   2   3
HETATM    3  N6  UNL     1      21.781   0.722   9.574  1.00  0.00    -0.255 N 
HETATM    4  C1  UNL     1      20.984  -0.262  10.097  1.00  0.00     0.149 A 
HETATM    5  N1  UNL     1      19.701  -0.314  10.007  1.00  0.00    -0.382 N 
HETATM    6  C2  UNL     1      21.764  -1.199  10.739  1.00  0.00     0.139 A 
ATOM      7  H12 UNL     1      19.107  -1.046  10.396  1.00  0.00     0.157 HD
ATOM      8  H11 UNL     1      19.123   0.380   9.531  1.00  0.00     0.157 HD
HETATM    9  C3  UNL     1      21.826  -2.375  11.459  1.00  0.00     0.146 A 
HETATM   10  N4  UNL     1      23.012  -0.775  10.599  1.00  0.00    -0.162 N 
HETATM   11  N2  UNL     1      23.130  -2.588  11.712  1.00  0.00    -0.293 N 
HETATM   12  N3  UNL     1      23.844  -1.618  11.189  1.00  0.00    -0.220 N 
ATOM     13  H2  UNL     1      23.507  -3.382  12.230  1.00  0.00     0.187 HD
ATOM     14  H3  UNL     1      24.860  -1.530  11.230  1.00  0.00     0.210 HD
HETATM   15  N5  UNL     1      23.001   0.356   9.911  1.00  0.00    -0.215 N 
ATOM     16  H5  UNL     1      23.841   0.883   9.670  1.00  0.00     0.211 HD
ENDBRANCH   2   3
ENDBRANCH   1   2
BRANCH   1  17
HETATM   17  C6  UNL     1      20.885   4.285   9.367  1.00  0.00     0.170 C 
BRANCH  17  18
HETATM   18  N7  UNL     1      21.546   5.483   8.828  1.00  0.00    -0.144 NA
BRANCH  18  19
HETATM   19  N8  UNL     1      21.216   6.636   9.500  1.00  0.00    -0.142 NA
BRANCH  19  20
HETATM   20  C7  UNL     1      22.254   7.118  10.385  1.00  0.00     0.190 C 
BRANCH  20  21
HETATM   21  C8  UNL     1      23.518   7.294   9.622  1.00  0.00     0.060 A 
HETATM   22  N9  UNL     1      24.754   6.986  10.051  1.00  0.00    -0.337 N 
HETATM   23  C9  UNL     1      25.674   7.268   9.116  1.00  0.00     0.142 A 
ATOM     24  H9  UNL     1      24.965   6.589  10.966  1.00  0.00     0.168 HD
HETATM   25  C10 UNL     1      25.015   7.786   8.024  1.00  0.00     0.094 A 
HETATM   26  C11 UNL     1      23.660   7.800   8.347  1.00  0.00     0.093 A 
BRANCH  23  27
HETATM   27  O1  UNL     1      27.055   7.084   9.203  1.00  0.00    -0.346 OA
ATOM     28  H1  UNL     1      27.519   6.420   9.699  1.00  0.00     0.219 HD
ENDBRANCH  23  27
BRANCH  26  29
HETATM   29  O2  UNL     1      22.624   8.245   7.533  1.00  0.00    -0.359 OA
ATOM     30  H2  UNL     1      22.725   8.635   6.672  1.00  0.00     0.217 HD
ENDBRANCH  26  29
ENDBRANCH  20  21
ENDBRANCH  19  20
ENDBRANCH  18  19
ENDBRANCH  17  18
ENDBRANCH   1  17
BRANCH   1  31
HETATM   31  C12 UNL     1      23.186   3.540   8.713  1.00  0.00     0.149 A 
HETATM   32  N10 UNL     1      23.392   3.943   7.409  1.00  0.00    -0.172 N 
HETATM   33  C13 UNL     1      24.669   4.199   7.191  1.00  0.00     0.714 A 
ATOM     34  H10 UNL     1      22.657   4.032   6.707  1.00  0.00     0.186 HD
HETATM   35  N12 UNL     1      25.297   3.965   8.338  1.00  0.00    -0.015 N 
HETATM   36  N13 UNL     1      24.391   3.563   9.272  1.00  0.00    -0.193 N 
HETATM   37  N17 UNL     1      26.643   4.070   8.655  1.00  0.00    -0.269 N 
HETATM   38  C14 UNL     1      24.948   3.291  10.523  1.00  0.00     0.262 C 
HETATM   39  N14 UNL     1      24.299   2.747  11.620  1.00  0.00    -0.074 NA
HETATM   40  N16 UNL     1      25.290   4.424  11.375  1.00  0.00    -0.074 NA
HETATM   41  C15 UNL     1      26.265   2.490  10.377  1.00  0.00     0.234 C 
HETATM   42  N15 UNL     1      25.000   3.613  12.475  1.00  0.00    -0.032 NA
HETATM   43  C16 UNL     1      27.294   3.149   9.561  1.00  0.00     0.269 C 
ATOM     44  H17 UNL     1      27.191   4.821   8.236  1.00  0.00     0.186 HD
BRANCH  33  45
HETATM   45  N11 UNL     1      25.177   4.603   6.050  1.00  0.00    -0.231 N 
ATOM     46 2H11 UNL     1      24.704   4.733   5.156  1.00  0.00     0.174 HD
ATOM     47 1H11 UNL     1      26.154   4.851   5.896  1.00  0.00     0.174 HD
ENDBRANCH  33  45
BRANCH  41  48
HETATM   48  O3  UNL     1      25.978   1.215   9.915  1.00  0.00    -0.386 OA
ATOM     49  H3  UNL     1      25.280   1.263   9.273  1.00  0.00     0.210 HD
ENDBRANCH  41  48
BRANCH  43  50
HETATM   50  O4  UNL     1      28.272   3.817  10.292  1.00  0.00    -0.373 OA
ATOM     51  H4  UNL     1      28.313   4.753  10.133  1.00  0.00     0.212 HD
ENDBRANCH  43  50
ENDBRANCH   1  31
TORSDOF 13
ENDMDL
