MODEL 1
REMARK VINA RESULT: -5.578137313      0.000      0.000
REMARK  17 active torsions:
REMARK  status: ('A' for Active; 'I' for Inactive)
REMARK       I    between atoms: C2_2  and  N1_4 
REMARK    1  A    between atoms: N1_4  and  C3_5 
REMARK    2  A    between atoms: C4_6  and  O2_7 
REMARK    3  A    between atoms: C5_9  and  C6_10 
REMARK    4  A    between atoms: C6_10  and  N2_11 
REMARK    5  A    between atoms: N2_11  and  O3_12 
REMARK    6  A    between atoms: C7_14  and  C8_15 
REMARK    7  A    between atoms: C8_15  and  N3_16 
REMARK    8  A    between atoms: C8_15  and  O4_20 
REMARK    9  A    between atoms: N4_22  and  C9_23 
REMARK   10  A    between atoms: C10_26  and  N7_27 
REMARK   11  A    between atoms: C10_26  and  O5_31 
REMARK   12  A    between atoms: C11_34  and  C12_35 
REMARK   13  A    between atoms: C13_37  and  C14_38 
REMARK   14  A    between atoms: C14_38  and  O8_39 
REMARK   15  A    between atoms: C15_41  and  O9_42 
REMARK   16  A    between atoms: C16_44  and  O10_45 
REMARK   17  A    between atoms: C17_47  and  O11_48 
ROOT
HETATM    1  C3  UNL     1      24.139   4.796  10.556  1.00  0.00     0.171 A 
HETATM    2  C4  UNL     1      24.161   3.825  11.506  1.00  0.00     0.133 A 
HETATM    3  C5  UNL     1      24.938   2.871  11.115  1.00  0.00     0.072 A 
HETATM    4  N4  UNL     1      25.459   3.206   9.849  1.00  0.00    -0.302 N 
HETATM    5  C11 UNL     1      24.958   4.397   9.508  1.00  0.00     0.091 A 
ENDROOT
BRANCH   5   6
HETATM    6  C12 UNL     1      25.251   5.259   8.312  1.00  0.00     0.207 C 
HETATM    7  O7  UNL     1      25.343   4.605   7.156  1.00  0.00    -0.367 OA
HETATM    8  C13 UNL     1      25.232   5.495   6.082  1.00  0.00     0.177 C 
HETATM    9  C15 UNL     1      26.450   6.368   6.085  1.00  0.00     0.180 C 
HETATM   10  C16 UNL     1      26.412   7.205   7.353  1.00  0.00     0.181 C 
HETATM   11  C17 UNL     1      26.329   6.245   8.524  1.00  0.00     0.184 C 
BRANCH   8  12
HETATM   12  C14 UNL     1      25.022   4.717   4.806  1.00  0.00     0.198 C 
BRANCH  12  13
HETATM   13  O8  UNL     1      25.905   3.639   4.624  1.00  0.00    -0.398 OA
ATOM     14  H8  UNL     1      25.521   2.783   4.774  1.00  0.00     0.209 HD
ENDBRANCH  12  13
ENDBRANCH   8  12
BRANCH   9  15
HETATM   15  O9  UNL     1      27.575   5.559   6.192  1.00  0.00    -0.390 OA
ATOM     16  H9  UNL     1      28.329   6.046   5.880  1.00  0.00     0.210 HD
ENDBRANCH   9  15
BRANCH  10  17
HETATM   17  O10 UNL     1      27.575   8.027   7.385  1.00  0.00    -0.390 OA
ATOM     18  H10 UNL     1      27.302   8.935   7.330  1.00  0.00     0.210 HD
ENDBRANCH  10  17
BRANCH  11  19
HETATM   19  O11 UNL     1      26.565   6.797   9.725  1.00  0.00    -0.390 OA
ATOM     20  H11 UNL     1      26.575   7.738   9.854  1.00  0.00     0.210 HD
ENDBRANCH  11  19
ENDBRANCH   5   6
BRANCH   1  21
HETATM   21  N1  UNL     1      23.197   5.734  10.593  1.00  0.00    -0.366 NA
HETATM   22  C2  UNL     1      22.273   6.686  10.633  1.00  0.00     0.288 C 
HETATM   23  C1  UNL     1      20.776   5.888  10.658  1.00  0.00     0.135 C 
HETATM   24  O1  UNL     1      22.063   7.778  10.693  1.00  0.00    -0.258 OA
ENDBRANCH   1  21
BRANCH   4  25
HETATM   25  C9  UNL     1      26.498   2.415   9.307  1.00  0.00     0.350 C 
HETATM   26  N5  UNL     1      27.777   2.935   9.696  1.00  0.00    -0.088 NA
HETATM   27  N6  UNL     1      28.385   3.414   8.549  1.00  0.00    -0.050 NA
HETATM   28  C10 UNL     1      27.960   2.301   7.665  1.00  0.00     0.435 C 
HETATM   29  O6  UNL     1      26.634   2.299   7.953  1.00  0.00    -0.277 OA
BRANCH  28  30
HETATM   30  N7  UNL     1      28.703   1.157   8.191  1.00  0.00    -0.004 N 
ATOM     31  H73 UNL     1      29.078   1.289   9.131  1.00  0.00     0.282 HD
ATOM     32  H72 UNL     1      28.129   0.346   8.421  1.00  0.00     0.282 HD
ATOM     33  H71 UNL     1      29.408   0.988   7.473  1.00  0.00     0.282 HD
ENDBRANCH  28  30
BRANCH  28  34
HETATM   34  O5  UNL     1      28.292   2.574   6.361  1.00  0.00    -0.329 OA
ATOM     35  H5  UNL     1      27.606   3.082   5.945  1.00  0.00     0.216 HD
ENDBRANCH  28  34
ENDBRANCH   4  25
BRANCH   2  36
HETATM   36  O2  UNL     1      23.398   3.907  12.743  1.00  0.00    -0.356 OA
ATOM     37  H2  UNL     1      23.689   3.517  13.559  1.00  0.00     0.218 HD
ENDBRANCH   2  36
BRANCH   3  38
HETATM   38  C6  UNL     1      25.160   1.479  11.783  1.00  0.00     0.215 C 
BRANCH  38  39
HETATM   39  N2  UNL     1      24.008   0.621  11.819  1.00  0.00    -0.266 N 
HETATM   40  C7  UNL     1      23.307   0.362  10.694  1.00  0.00     0.150 C 
BRANCH  39  41
HETATM   41  O3  UNL     1      23.293   0.978  12.947  1.00  0.00    -0.288 OA
ATOM     42  H3  UNL     1      22.521   1.439  12.639  1.00  0.00     0.244 HD
ENDBRANCH  39  41
BRANCH  40  43
HETATM   43  C8  UNL     1      22.058  -0.470  10.932  1.00  0.00     0.358 C 
BRANCH  43  44
HETATM   44  N3  UNL     1      20.898   0.316  11.426  1.00  0.00    -0.048 N 
ATOM     45  H33 UNL     1      20.546   0.935  10.696  1.00  0.00     0.277 HD
ATOM     46  H32 UNL     1      20.084  -0.285  11.549  1.00  0.00     0.277 HD
ATOM     47  H31 UNL     1      21.090   0.840  12.279  1.00  0.00     0.277 HD
ENDBRANCH  43  44
BRANCH  43  48
HETATM   48  O4  UNL     1      22.269  -1.512  11.855  1.00  0.00    -0.366 OA
ATOM     49  H4  UNL     1      21.457  -1.898  12.161  1.00  0.00     0.212 HD
ENDBRANCH  43  48
ENDBRANCH  40  43
ENDBRANCH  38  39
ENDBRANCH   3  38
TORSDOF 17
ENDMDL
MODEL 2
REMARK VINA RESULT: -5.529206989      2.993      6.234
REMARK  17 active torsions:
REMARK  status: ('A' for Active; 'I' for Inactive)
REMARK       I    between atoms: C2_2  and  N1_4 
REMARK    1  A    between atoms: N1_4  and  C3_5 
REMARK    2  A    between atoms: C4_6  and  O2_7 
REMARK    3  A    between atoms: C5_9  and  C6_10 
REMARK    4  A    between atoms: C6_10  and  N2_11 
REMARK    5  A    between atoms: N2_11  and  O3_12 
REMARK    6  A    between atoms: C7_14  and  C8_15 
REMARK    7  A    between atoms: C8_15  and  N3_16 
REMARK    8  A    between atoms: C8_15  and  O4_20 
REMARK    9  A    between atoms: N4_22  and  C9_23 
REMARK   10  A    between atoms: C10_26  and  N7_27 
REMARK   11  A    between atoms: C10_26  and  O5_31 
REMARK   12  A    between atoms: C11_34  and  C12_35 
REMARK   13  A    between atoms: C13_37  and  C14_38 
REMARK   14  A    between atoms: C14_38  and  O8_39 
REMARK   15  A    between atoms: C15_41  and  O9_42 
REMARK   16  A    between atoms: C16_44  and  O10_45 
REMARK   17  A    between atoms: C17_47  and  O11_48 
ROOT
HETATM    1  C3  UNL     1      26.033   0.643  10.369  1.00  0.00     0.171 A 
HETATM    2  C4  UNL     1      26.531  -0.571  10.724  1.00  0.00     0.133 A 
HETATM    3  C5  UNL     1      25.568  -1.303  11.175  1.00  0.00     0.072 A 
HETATM    4  N4  UNL     1      24.374  -0.556  11.127  1.00  0.00    -0.302 N 
HETATM    5  C11 UNL     1      24.670   0.648  10.631  1.00  0.00     0.091 A 
ENDROOT
BRANCH   5   6
HETATM    6  C12 UNL     1      23.764   1.795  10.281  1.00  0.00     0.207 C 
HETATM    7  O7  UNL     1      24.143   2.509   9.224  1.00  0.00    -0.367 OA
HETATM    8  C13 UNL     1      23.078   3.284   8.751  1.00  0.00     0.177 C 
HETATM    9  C15 UNL     1      22.777   4.326   9.785  1.00  0.00     0.180 C 
HETATM   10  C16 UNL     1      22.279   3.609  11.029  1.00  0.00     0.181 C 
HETATM   11  C17 UNL     1      23.351   2.617  11.437  1.00  0.00     0.184 C 
BRANCH   8  12
HETATM   12  C14 UNL     1      23.423   3.834   7.389  1.00  0.00     0.198 C 
BRANCH  12  13
HETATM   13  O8  UNL     1      23.437   5.237   7.309  1.00  0.00    -0.398 OA
ATOM     14  H8  UNL     1      23.006   5.594   6.542  1.00  0.00     0.209 HD
ENDBRANCH  12  13
ENDBRANCH   8  12
BRANCH   9  15
HETATM   15  O9  UNL     1      23.967   4.946  10.149  1.00  0.00    -0.390 OA
ATOM     16  H9  UNL     1      24.473   4.341  10.679  1.00  0.00     0.210 HD
ENDBRANCH   9  15
BRANCH  10  17
HETATM   17  O10 UNL     1      22.009   4.584  12.033  1.00  0.00    -0.390 OA
ATOM     18  H10 UNL     1      21.225   5.059  11.785  1.00  0.00     0.210 HD
ENDBRANCH  10  17
BRANCH  11  19
HETATM   19  O11 UNL     1      23.201   2.096  12.665  1.00  0.00    -0.390 OA
ATOM     20  H11 UNL     1      23.262   2.629  13.449  1.00  0.00     0.210 HD
ENDBRANCH  11  19
ENDBRANCH   5   6
BRANCH   1  21
HETATM   21  N1  UNL     1      26.865   1.659  10.154  1.00  0.00    -0.366 NA
HETATM   22  C2  UNL     1      27.686   2.683   9.959  1.00  0.00     0.288 C 
HETATM   23  C1  UNL     1      28.492   2.367   8.499  1.00  0.00     0.135 C 
HETATM   24  O1  UNL     1      28.043   3.672  10.322  1.00  0.00    -0.258 OA
ENDBRANCH   1  21
BRANCH   4  25
HETATM   25  C9  UNL     1      23.146  -1.215  11.372  1.00  0.00     0.350 C 
HETATM   26  N5  UNL     1      22.563  -1.660  10.139  1.00  0.00    -0.088 NA
HETATM   27  N6  UNL     1      21.413  -0.916   9.944  1.00  0.00    -0.050 NA
HETATM   28  C10 UNL     1      20.961  -0.944  11.357  1.00  0.00     0.435 C 
HETATM   29  O6  UNL     1      22.112  -0.539  11.952  1.00  0.00    -0.277 OA
BRANCH  28  30
HETATM   30  N7  UNL     1      20.624  -2.351  11.570  1.00  0.00    -0.004 N 
ATOM     31  H73 UNL     1      19.845  -2.510  12.209  1.00  0.00     0.282 HD
ATOM     32  H72 UNL     1      20.195  -2.811  10.767  1.00  0.00     0.282 HD
ATOM     33  H71 UNL     1      21.510  -2.759  11.870  1.00  0.00     0.282 HD
ENDBRANCH  28  30
BRANCH  28  34
HETATM   34  O5  UNL     1      19.875  -0.124  11.528  1.00  0.00    -0.329 OA
ATOM     35  H5  UNL     1      20.118   0.649  12.023  1.00  0.00     0.216 HD
ENDBRANCH  28  34
ENDBRANCH   4  25
BRANCH   2  36
HETATM   36  O2  UNL     1      27.938  -0.919  10.600  1.00  0.00    -0.356 OA
ATOM     37  H2  UNL     1      28.430  -0.810   9.795  1.00  0.00     0.218 HD
ENDBRANCH   2  36
BRANCH   3  38
HETATM   38  C6  UNL     1      25.665  -2.708  11.848  1.00  0.00     0.215 C 
BRANCH  38  39
HETATM   39  N2  UNL     1      25.684  -2.703  13.285  1.00  0.00    -0.266 N 
HETATM   40  C7  UNL     1      26.854  -2.731  13.958  1.00  0.00     0.150 C 
BRANCH  39  41
HETATM   41  O3  UNL     1      24.695  -3.581  13.689  1.00  0.00    -0.288 OA
ATOM     42  H3  UNL     1      23.980  -3.046  14.015  1.00  0.00     0.244 HD
ENDBRANCH  39  41
BRANCH  40  43
HETATM   43  C8  UNL     1      26.689  -2.835  15.465  1.00  0.00     0.358 C 
BRANCH  43  44
HETATM   44  N3  UNL     1      26.715  -4.229  15.977  1.00  0.00    -0.048 N 
ATOM     45  H33 UNL     1      26.349  -4.875  15.278  1.00  0.00     0.277 HD
ATOM     46  H32 UNL     1      27.674  -4.570  16.041  1.00  0.00     0.277 HD
ATOM     47  H31 UNL     1      26.231  -4.350  16.866  1.00  0.00     0.277 HD
ENDBRANCH  43  44
BRANCH  43  48
HETATM   48  O4  UNL     1      25.489  -2.254  15.919  1.00  0.00    -0.366 OA
ATOM     49  H4  UNL     1      25.521  -1.305  15.919  1.00  0.00     0.212 HD
ENDBRANCH  43  48
ENDBRANCH  40  43
ENDBRANCH  38  39
ENDBRANCH   3  38
TORSDOF 17
ENDMDL
MODEL 3
REMARK VINA RESULT: -5.463085273      3.247      5.370
REMARK  17 active torsions:
REMARK  status: ('A' for Active; 'I' for Inactive)
REMARK       I    between atoms: C2_2  and  N1_4 
REMARK    1  A    between atoms: N1_4  and  C3_5 
REMARK    2  A    between atoms: C4_6  and  O2_7 
REMARK    3  A    between atoms: C5_9  and  C6_10 
REMARK    4  A    between atoms: C6_10  and  N2_11 
REMARK    5  A    between atoms: N2_11  and  O3_12 
REMARK    6  A    between atoms: C7_14  and  C8_15 
REMARK    7  A    between atoms: C8_15  and  N3_16 
REMARK    8  A    between atoms: C8_15  and  O4_20 
REMARK    9  A    between atoms: N4_22  and  C9_23 
REMARK   10  A    between atoms: C10_26  and  N7_27 
REMARK   11  A    between atoms: C10_26  and  O5_31 
REMARK   12  A    between atoms: C11_34  and  C12_35 
REMARK   13  A    between atoms: C13_37  and  C14_38 
REMARK   14  A    between atoms: C14_38  and  O8_39 
REMARK   15  A    between atoms: C15_41  and  O9_42 
REMARK   16  A    between atoms: C16_44  and  O10_45 
REMARK   17  A    between atoms: C17_47  and  O11_48 
ROOT
HETATM    1  C3  UNL     1      21.654   3.487   7.111  1.00  0.00     0.171 A 
HETATM    2  C4  UNL     1      21.279   2.181   7.118  1.00  0.00     0.133 A 
HETATM    3  C5  UNL     1      21.666   1.639   8.224  1.00  0.00     0.072 A 
HETATM    4  N4  UNL     1      22.331   2.614   8.994  1.00  0.00    -0.302 N 
HETATM    5  C11 UNL     1      22.322   3.754   8.298  1.00  0.00     0.091 A 
ENDROOT
BRANCH   5   6
HETATM    6  C12 UNL     1      22.808   5.123   8.685  1.00  0.00     0.207 C 
HETATM    7  O7  UNL     1      24.122   5.222   8.869  1.00  0.00    -0.367 OA
HETATM    8  C13 UNL     1      24.519   6.564   8.844  1.00  0.00     0.177 C 
HETATM    9  C15 UNL     1      23.945   7.233  10.056  1.00  0.00     0.180 C 
HETATM   10  C16 UNL     1      22.432   7.220   9.915  1.00  0.00     0.181 C 
HETATM   11  C17 UNL     1      22.008   5.774   9.741  1.00  0.00     0.184 C 
BRANCH   8  12
HETATM   12  C14 UNL     1      26.021   6.641   8.737  1.00  0.00     0.198 C 
BRANCH  12  13
HETATM   13  O8  UNL     1      26.674   7.030   9.919  1.00  0.00    -0.398 OA
ATOM     14  H8  UNL     1      26.953   6.310  10.472  1.00  0.00     0.209 HD
ENDBRANCH  12  13
ENDBRANCH   8  12
BRANCH   9  15
HETATM   15  O9  UNL     1      24.235   6.454  11.170  1.00  0.00    -0.390 OA
ATOM     16  H9  UNL     1      23.496   5.882  11.340  1.00  0.00     0.210 HD
ENDBRANCH   9  15
BRANCH  10  17
HETATM   17  O10 UNL     1      21.867   7.833  11.071  1.00  0.00    -0.390 OA
ATOM     18  H10 UNL     1      21.981   8.773  10.998  1.00  0.00     0.210 HD
ENDBRANCH  10  17
BRANCH  11  19
HETATM   19  O11 UNL     1      20.691   5.551   9.879  1.00  0.00    -0.390 OA
ATOM     20  H11 UNL     1      20.230   5.737  10.688  1.00  0.00     0.210 HD
ENDBRANCH  11  19
ENDBRANCH   5   6
BRANCH   1  21
HETATM   21  N1  UNL     1      21.629   4.174   5.971  1.00  0.00    -0.366 NA
HETATM   22  C2  UNL     1      21.595   4.840   4.825  1.00  0.00     0.288 C 
HETATM   23  C1  UNL     1      22.351   6.329   5.124  1.00  0.00     0.135 C 
HETATM   24  O1  UNL     1      21.316   4.825   3.747  1.00  0.00    -0.258 OA
ENDBRANCH   1  21
BRANCH   4  25
HETATM   25  C9  UNL     1      22.661   2.315  10.337  1.00  0.00     0.350 C 
HETATM   26  N5  UNL     1      21.636   2.789  11.221  1.00  0.00    -0.088 NA
HETATM   27  N6  UNL     1      22.187   3.817  11.965  1.00  0.00    -0.050 NA
HETATM   28  C10 UNL     1      23.505   3.171  12.181  1.00  0.00     0.435 C 
HETATM   29  O6  UNL     1      23.790   2.842  10.896  1.00  0.00    -0.277 OA
BRANCH  28  30
HETATM   30  N7  UNL     1      23.181   2.037  13.046  1.00  0.00    -0.004 N 
ATOM     31  H73 UNL     1      23.491   2.138  14.013  1.00  0.00     0.282 HD
ATOM     32  H72 UNL     1      22.190   1.939  13.265  1.00  0.00     0.282 HD
ATOM     33  H71 UNL     1      23.588   1.244  12.551  1.00  0.00     0.282 HD
ENDBRANCH  28  30
BRANCH  28  34
HETATM   34  O5  UNL     1      24.373   4.046  12.785  1.00  0.00    -0.329 OA
ATOM     35  H5  UNL     1      24.532   3.787  13.684  1.00  0.00     0.216 HD
ENDBRANCH  28  34
ENDBRANCH   4  25
BRANCH   2  36
HETATM   36  O2  UNL     1      20.567   1.553   6.015  1.00  0.00    -0.356 OA
ATOM     37  H2  UNL     1      20.028   0.777   6.120  1.00  0.00     0.218 HD
ENDBRANCH   2  36
BRANCH   3  38
HETATM   38  C6  UNL     1      21.611   0.132   8.626  1.00  0.00     0.215 C 
BRANCH  38  39
HETATM   39  N2  UNL     1      20.299  -0.383   8.909  1.00  0.00    -0.266 N 
HETATM   40  C7  UNL     1      19.549  -0.933   7.930  1.00  0.00     0.150 C 
BRANCH  39  41
HETATM   41  O3  UNL     1      19.689   0.542   9.736  1.00  0.00    -0.288 OA
ATOM     42  H3  UNL     1      18.798   0.636   9.419  1.00  0.00     0.244 HD
ENDBRANCH  39  41
BRANCH  40  43
HETATM   43  C8  UNL     1      18.151  -1.323   8.379  1.00  0.00     0.358 C 
BRANCH  43  44
HETATM   44  N3  UNL     1      17.172  -0.207   8.330  1.00  0.00    -0.048 N 
ATOM     45  H33 UNL     1      17.652   0.690   8.256  1.00  0.00     0.277 HD
ATOM     46  H32 UNL     1      16.671  -0.207   7.442  1.00  0.00     0.277 HD
ATOM     47  H31 UNL     1      16.517  -0.199   9.111  1.00  0.00     0.277 HD
ENDBRANCH  43  44
BRANCH  43  48
HETATM   48  O4  UNL     1      18.126  -1.831   9.692  1.00  0.00    -0.366 OA
ATOM     49  H4  UNL     1      17.757  -2.706   9.737  1.00  0.00     0.212 HD
ENDBRANCH  43  48
ENDBRANCH  40  43
ENDBRANCH  38  39
ENDBRANCH   3  38
TORSDOF 17
ENDMDL
MODEL 4
REMARK VINA RESULT: -5.238755078      3.407      5.450
REMARK  17 active torsions:
REMARK  status: ('A' for Active; 'I' for Inactive)
REMARK       I    between atoms: C2_2  and  N1_4 
REMARK    1  A    between atoms: N1_4  and  C3_5 
REMARK    2  A    between atoms: C4_6  and  O2_7 
REMARK    3  A    between atoms: C5_9  and  C6_10 
REMARK    4  A    between atoms: C6_10  and  N2_11 
REMARK    5  A    between atoms: N2_11  and  O3_12 
REMARK    6  A    between atoms: C7_14  and  C8_15 
REMARK    7  A    between atoms: C8_15  and  N3_16 
REMARK    8  A    between atoms: C8_15  and  O4_20 
REMARK    9  A    between atoms: N4_22  and  C9_23 
REMARK   10  A    between atoms: C10_26  and  N7_27 
REMARK   11  A    between atoms: C10_26  and  O5_31 
REMARK   12  A    between atoms: C11_34  and  C12_35 
REMARK   13  A    between atoms: C13_37  and  C14_38 
REMARK   14  A    between atoms: C14_38  and  O8_39 
REMARK   15  A    between atoms: C15_41  and  O9_42 
REMARK   16  A    between atoms: C16_44  and  O10_45 
REMARK   17  A    between atoms: C17_47  and  O11_48 
ROOT
HETATM    1  C3  UNL     1      21.154   3.748   7.318  1.00  0.00     0.171 A 
HETATM    2  C4  UNL     1      20.648   2.487   7.343  1.00  0.00     0.133 A 
HETATM    3  C5  UNL     1      21.086   1.879   8.395  1.00  0.00     0.072 A 
HETATM    4  N4  UNL     1      21.923   2.761   9.108  1.00  0.00    -0.302 N 
HETATM    5  C11 UNL     1      21.964   3.913   8.434  1.00  0.00     0.091 A 
ENDROOT
BRANCH   5   6
HETATM    6  C12 UNL     1      22.625   5.215   8.791  1.00  0.00     0.207 C 
HETATM    7  O7  UNL     1      23.948   5.154   8.928  1.00  0.00    -0.367 OA
HETATM    8  C13 UNL     1      24.503   6.438   8.876  1.00  0.00     0.177 C 
HETATM    9  C15 UNL     1      24.060   7.178  10.101  1.00  0.00     0.180 C 
HETATM   10  C16 UNL     1      22.552   7.349  10.014  1.00  0.00     0.181 C 
HETATM   11  C17 UNL     1      21.949   5.965   9.868  1.00  0.00     0.184 C 
BRANCH   8  12
HETATM   12  C14 UNL     1      26.000   6.331   8.716  1.00  0.00     0.198 C 
BRANCH  12  13
HETATM   13  O8  UNL     1      26.744   7.020   9.689  1.00  0.00    -0.398 OA
ATOM     14  H8  UNL     1      27.188   6.462  10.317  1.00  0.00     0.209 HD
ENDBRANCH  12  13
ENDBRANCH   8  12
BRANCH   9  15
HETATM   15  O9  UNL     1      24.292   6.375  11.212  1.00  0.00    -0.390 OA
ATOM     16  H9  UNL     1      24.810   6.867  11.838  1.00  0.00     0.210 HD
ENDBRANCH   9  15
BRANCH  10  17
HETATM   17  O10 UNL     1      22.108   8.032  11.183  1.00  0.00    -0.390 OA
ATOM     18  H10 UNL     1      22.522   7.632  11.939  1.00  0.00     0.210 HD
ENDBRANCH  10  17
BRANCH  11  19
HETATM   19  O11 UNL     1      20.621   5.905  10.054  1.00  0.00    -0.390 OA
ATOM     20  H11 UNL     1      20.012   6.384   9.505  1.00  0.00     0.210 HD
ENDBRANCH  11  19
ENDBRANCH   5   6
BRANCH   1  21
HETATM   21  N1  UNL     1      21.087   4.463   6.199  1.00  0.00    -0.366 NA
HETATM   22  C2  UNL     1      21.011   5.194   5.094  1.00  0.00     0.288 C 
HETATM   23  C1  UNL     1      21.468   4.171   3.820  1.00  0.00     0.135 C 
HETATM   24  O1  UNL     1      20.741   6.176   4.644  1.00  0.00    -0.258 OA
ENDBRANCH   1  21
BRANCH   4  25
HETATM   25  C9  UNL     1      22.354   2.395  10.404  1.00  0.00     0.350 C 
HETATM   26  N5  UNL     1      21.576   3.073  11.400  1.00  0.00    -0.088 NA
HETATM   27  N6  UNL     1      22.423   3.958  12.042  1.00  0.00    -0.050 NA
HETATM   28  C10 UNL     1      23.592   3.045  12.105  1.00  0.00     0.435 C 
HETATM   29  O6  UNL     1      23.631   2.667  10.802  1.00  0.00    -0.277 OA
BRANCH  28  30
HETATM   30  N7  UNL     1      23.150   2.004  13.032  1.00  0.00    -0.004 N 
ATOM     31  H73 UNL     1      22.151   1.799  12.997  1.00  0.00     0.282 HD
ATOM     32  H72 UNL     1      23.458   1.062  12.791  1.00  0.00     0.282 HD
ATOM     33  H71 UNL     1      23.483   2.342  13.935  1.00  0.00     0.282 HD
ENDBRANCH  28  30
BRANCH  28  34
HETATM   34  O5  UNL     1      24.695   3.714  12.571  1.00  0.00    -0.329 OA
ATOM     35  H5  UNL     1      24.877   3.467  13.470  1.00  0.00     0.216 HD
ENDBRANCH  28  34
ENDBRANCH   4  25
BRANCH   2  36
HETATM   36  O2  UNL     1      19.767   1.964   6.309  1.00  0.00    -0.356 OA
ATOM     37  H2  UNL     1      18.824   1.906   6.412  1.00  0.00     0.218 HD
ENDBRANCH   2  36
BRANCH   3  38
HETATM   38  C6  UNL     1      20.915   0.376   8.776  1.00  0.00     0.215 C 
BRANCH  38  39
HETATM   39  N2  UNL     1      21.641  -0.555   7.956  1.00  0.00    -0.266 N 
HETATM   40  C7  UNL     1      22.954  -0.369   7.703  1.00  0.00     0.150 C 
BRANCH  39  41
HETATM   41  O3  UNL     1      20.820  -0.851   6.884  1.00  0.00    -0.288 OA
ATOM     42  H3  UNL     1      20.443  -0.026   6.601  1.00  0.00     0.244 HD
ENDBRANCH  39  41
BRANCH  40  43
HETATM   43  C8  UNL     1      23.537  -1.382   6.731  1.00  0.00     0.358 C 
BRANCH  43  44
HETATM   44  N3  UNL     1      23.320  -1.036   5.302  1.00  0.00    -0.048 N 
ATOM     45  H33 UNL     1      23.624  -1.799   4.698  1.00  0.00     0.277 HD
ATOM     46  H32 UNL     1      22.324  -1.029   5.082  1.00  0.00     0.277 HD
ATOM     47  H31 UNL     1      23.756  -0.159   5.020  1.00  0.00     0.277 HD
ENDBRANCH  43  44
BRANCH  43  48
HETATM   48  O4  UNL     1      23.017  -2.676   6.922  1.00  0.00    -0.366 OA
ATOM     49  H4  UNL     1      23.227  -3.030   7.778  1.00  0.00     0.212 HD
ENDBRANCH  43  48
ENDBRANCH  40  43
ENDBRANCH  38  39
ENDBRANCH   3  38
TORSDOF 17
ENDMDL
MODEL 5
REMARK VINA RESULT: -5.236183859      2.941      5.400
REMARK  17 active torsions:
REMARK  status: ('A' for Active; 'I' for Inactive)
REMARK       I    between atoms: C2_2  and  N1_4 
REMARK    1  A    between atoms: N1_4  and  C3_5 
REMARK    2  A    between atoms: C4_6  and  O2_7 
REMARK    3  A    between atoms: C5_9  and  C6_10 
REMARK    4  A    between atoms: C6_10  and  N2_11 
REMARK    5  A    between atoms: N2_11  and  O3_12 
REMARK    6  A    between atoms: C7_14  and  C8_15 
REMARK    7  A    between atoms: C8_15  and  N3_16 
REMARK    8  A    between atoms: C8_15  and  O4_20 
REMARK    9  A    between atoms: N4_22  and  C9_23 
REMARK   10  A    between atoms: C10_26  and  N7_27 
REMARK   11  A    between atoms: C10_26  and  O5_31 
REMARK   12  A    between atoms: C11_34  and  C12_35 
REMARK   13  A    between atoms: C13_37  and  C14_38 
REMARK   14  A    between atoms: C14_38  and  O8_39 
REMARK   15  A    between atoms: C15_41  and  O9_42 
REMARK   16  A    between atoms: C16_44  and  O10_45 
REMARK   17  A    between atoms: C17_47  and  O11_48 
ROOT
HETATM    1  C3  UNL     1      23.636   0.241  11.397  1.00  0.00     0.171 A 
HETATM    2  C4  UNL     1      24.833  -0.353  11.645  1.00  0.00     0.133 A 
HETATM    3  C5  UNL     1      25.776   0.384  11.160  1.00  0.00     0.072 A 
HETATM    4  N4  UNL     1      25.196   1.518  10.558  1.00  0.00    -0.302 N 
HETATM    5  C11 UNL     1      23.872   1.421  10.705  1.00  0.00     0.091 A 
ENDROOT
BRANCH   5   6
HETATM    6  C12 UNL     1      22.787   2.395  10.335  1.00  0.00     0.207 C 
HETATM    7  O7  UNL     1      22.691   2.662   9.035  1.00  0.00    -0.367 OA
HETATM    8  C13 UNL     1      21.454   3.250   8.748  1.00  0.00     0.177 C 
HETATM    9  C15 UNL     1      21.434   4.606   9.385  1.00  0.00     0.180 C 
HETATM   10  C16 UNL     1      21.485   4.407  10.891  1.00  0.00     0.181 C 
HETATM   11  C17 UNL     1      22.728   3.593  11.195  1.00  0.00     0.184 C 
BRANCH   8  12
HETATM   12  C14 UNL     1      21.236   3.256   7.255  1.00  0.00     0.198 C 
BRANCH  12  13
HETATM   13  O8  UNL     1      21.038   4.530   6.696  1.00  0.00    -0.398 OA
ATOM     14  H8  UNL     1      21.262   4.597   5.775  1.00  0.00     0.209 HD
ENDBRANCH  12  13
ENDBRANCH   8  12
BRANCH   9  15
HETATM   15  O9  UNL     1      22.605   5.273   9.045  1.00  0.00    -0.390 OA
ATOM     16  H9  UNL     1      22.533   6.176   9.331  1.00  0.00     0.210 HD
ENDBRANCH   9  15
BRANCH  10  17
HETATM   17  O10 UNL     1      21.490   5.688  11.514  1.00  0.00    -0.390 OA
ATOM     18  H10 UNL     1      21.724   5.576  12.428  1.00  0.00     0.210 HD
ENDBRANCH  10  17
BRANCH  11  19
HETATM   19  O11 UNL     1      23.078   3.560  12.491  1.00  0.00    -0.390 OA
ATOM     20  H11 UNL     1      23.487   4.301  12.923  1.00  0.00     0.210 HD
ENDBRANCH  11  19
ENDBRANCH   5   6
BRANCH   1  21
HETATM   21  N1  UNL     1      22.512  -0.457  11.537  1.00  0.00    -0.366 NA
HETATM   22  C2  UNL     1      21.402  -1.167  11.691  1.00  0.00     0.288 C 
HETATM   23  C1  UNL     1      20.271  -0.513  10.608  1.00  0.00     0.135 C 
HETATM   24  O1  UNL     1      20.911  -2.028  12.198  1.00  0.00    -0.258 OA
ENDBRANCH   1  21
BRANCH   4  25
HETATM   25  C9  UNL     1      26.037   2.576  10.142  1.00  0.00     0.350 C 
HETATM   26  N5  UNL     1      26.054   3.618  11.127  1.00  0.00    -0.088 NA
HETATM   27  N6  UNL     1      25.432   4.718  10.565  1.00  0.00    -0.050 NA
HETATM   28  C10 UNL     1      26.039   4.575   9.218  1.00  0.00     0.435 C 
HETATM   29  O6  UNL     1      25.753   3.266   8.999  1.00  0.00    -0.277 OA
BRANCH  28  30
HETATM   30  N7  UNL     1      27.452   4.862   9.459  1.00  0.00    -0.004 N 
ATOM     31  H73 UNL     1      27.640   5.388  10.312  1.00  0.00     0.282 HD
ATOM     32  H72 UNL     1      28.013   4.049   9.713  1.00  0.00     0.282 HD
ATOM     33  H71 UNL     1      27.744   5.327   8.599  1.00  0.00     0.282 HD
ENDBRANCH  28  30
BRANCH  28  34
HETATM   34  O5  UNL     1      25.475   5.469   8.343  1.00  0.00    -0.329 OA
ATOM     35  H5  UNL     1      26.066   5.641   7.619  1.00  0.00     0.216 HD
ENDBRANCH  28  34
ENDBRANCH   4  25
BRANCH   2  36
HETATM   36  O2  UNL     1      24.959  -1.624  12.342  1.00  0.00    -0.356 OA
ATOM     37  H2  UNL     1      25.793  -1.973  12.637  1.00  0.00     0.218 HD
ENDBRANCH   2  36
BRANCH   3  38
HETATM   38  C6  UNL     1      27.297   0.051  11.054  1.00  0.00     0.215 C 
BRANCH  38  39
HETATM   39  N2  UNL     1      27.960  -0.207  12.303  1.00  0.00    -0.266 N 
HETATM   40  C7  UNL     1      28.556  -1.396  12.533  1.00  0.00     0.150 C 
BRANCH  39  41
HETATM   41  O3  UNL     1      27.133   0.294  13.292  1.00  0.00    -0.288 OA
ATOM     42  H3  UNL     1      27.285  -0.242  14.062  1.00  0.00     0.244 HD
ENDBRANCH  39  41
BRANCH  40  43
HETATM   43  C8  UNL     1      29.110  -1.539  13.941  1.00  0.00     0.358 C 
BRANCH  43  44
HETATM   44  N3  UNL     1      28.085  -1.893  14.956  1.00  0.00    -0.048 N 
ATOM     45  H33 UNL     1      27.161  -1.950  14.529  1.00  0.00     0.277 HD
ATOM     46  H32 UNL     1      28.195  -2.861  15.256  1.00  0.00     0.277 HD
ATOM     47  H31 UNL     1      28.070  -1.268  15.761  1.00  0.00     0.277 HD
ENDBRANCH  43  44
BRANCH  43  48
HETATM   48  O4  UNL     1      29.747  -0.368  14.393  1.00  0.00    -0.366 OA
ATOM     49  H4  UNL     1      29.179   0.393  14.356  1.00  0.00     0.212 HD
ENDBRANCH  43  48
ENDBRANCH  40  43
ENDBRANCH  38  39
ENDBRANCH   3  38
TORSDOF 17
ENDMDL
