MODEL 1
REMARK VINA RESULT: -6.839872661      0.000      0.000
REMARK  17 active torsions:
REMARK  status: ('A' for Active; 'I' for Inactive)
REMARK    1  A    between atoms: N1_1  and  C1_4 
REMARK    2  A    between atoms: C2_7  and  C3_8 
REMARK    3  A    between atoms: C3_8  and  O1_9 
REMARK    4  A    between atoms: C3_8  and  C4_11 
REMARK    5  A    between atoms: N5_16  and  C5_17 
REMARK    6  A    between atoms: N6_19  and  O3_20 
REMARK    7  A    between atoms: C6_22  and  N7_23 
REMARK    8  A    between atoms: N7_23  and  C7_25 
REMARK    9  A    between atoms: C7_25  and  O4_26 
REMARK   10  A    between atoms: C7_25  and  C8_28 
REMARK   11  A    between atoms: C8_28  and  C9_29 
REMARK   12  A    between atoms: C10_32  and  O7_33 
REMARK   13  A    between atoms: C11_35  and  O8_36 
REMARK   14  A    between atoms: C12_38  and  O9_39 
REMARK   15  A    between atoms: C13_43  and  C14_44 
REMARK   16  A    between atoms: C14_44  and  O10_45 
REMARK   17  A    between atoms: C14_44  and  O11_47 
ROOT
HETATM    1  C4  UNL     1      28.414  -1.236  13.995  1.00  0.00     0.115 A 
HETATM    2  N3  UNL     1      29.095  -0.653  12.962  1.00  0.00    -0.283 N 
ATOM      3  H3  UNL     1      30.110  -0.601  12.883  1.00  0.00     0.188 HD
HETATM    4  N4  UNL     1      28.250  -0.175  12.096  1.00  0.00    -0.236 N 
ATOM      5  H4  UNL     1      28.507   0.307  11.235  1.00  0.00     0.208 HD
HETATM    6  N5  UNL     1      27.003  -0.404  12.497  1.00  0.00    -0.220 N 
HETATM    7  C12 UNL     1      27.092  -1.056  13.657  1.00  0.00     0.188 A 
ENDROOT
BRANCH   6   8
HETATM    8  C5  UNL     1      25.864   0.047  11.710  1.00  0.00     0.304 C 
HETATM    9  O2  UNL     1      24.787   0.185  12.582  1.00  0.00    -0.246 OA
HETATM   10  N6  UNL     1      23.731   0.643  11.899  1.00  0.00    -0.043 NA
HETATM   11  C6  UNL     1      23.915   2.037  11.660  1.00  0.00     0.242 C 
HETATM   12  C10 UNL     1      25.227   2.398  11.003  1.00  0.00     0.192 C 
HETATM   13  C11 UNL     1      26.261   1.335  11.045  1.00  0.00     0.202 C 
BRANCH  10  14
HETATM   14  O3  UNL     1      23.358  -0.078  10.852  1.00  0.00    -0.287 OA
ATOM     15  H3  UNL     1      22.919  -0.898  11.045  1.00  0.00     0.239 HD
ENDBRANCH  10  14
BRANCH  11  16
HETATM   16  N7  UNL     1      22.870   2.592  10.873  1.00  0.00    -0.374 N 
ATOM     17  H7  UNL     1      22.704   2.267   9.920  1.00  0.00     0.157 HD
BRANCH  16  18
HETATM   18  C7  UNL     1      22.066   3.605  11.442  1.00  0.00     0.224 C 
BRANCH  18  19
HETATM   19  O4  UNL     1      22.675   4.142  12.579  1.00  0.00    -0.377 OA
ATOM     20  H4  UNL     1      22.067   4.163  13.309  1.00  0.00     0.212 HD
ENDBRANCH  18  19
BRANCH  18  21
HETATM   21  C8  UNL     1      21.515   4.646  10.529  1.00  0.00     0.166 C 
BRANCH  21  22
HETATM   22  C9  UNL     1      22.358   5.899  10.650  1.00  0.00     0.176 C 
HETATM   23  O5  UNL     1      23.628   5.805  10.676  1.00  0.00    -0.648 OA
HETATM   24  O6  UNL     1      21.824   7.164  10.739  1.00  0.00    -0.648 OA
ENDBRANCH  21  22
ENDBRANCH  18  21
ENDBRANCH  16  18
ENDBRANCH  11  16
BRANCH  12  25
HETATM   25  O7  UNL     1      25.651   3.620  11.508  1.00  0.00    -0.389 OA
ATOM     26  H7  UNL     1      25.413   3.666  12.426  1.00  0.00     0.210 HD
ENDBRANCH  12  25
BRANCH  13  27
HETATM   27  O8  UNL     1      26.699   0.968   9.750  1.00  0.00    -0.388 OA
ATOM     28  H8  UNL     1      27.307   1.649   9.487  1.00  0.00     0.210 HD
ENDBRANCH  13  27
ENDBRANCH   6   8
BRANCH   7  29
HETATM   29  O9  UNL     1      25.972  -1.475  14.387  1.00  0.00    -0.343 OA
ATOM     30  H9  UNL     1      25.662  -2.367  14.496  1.00  0.00     0.219 HD
ENDBRANCH   7  29
BRANCH   1  31
HETATM   31  C3  UNL     1      29.031  -1.850  15.158  1.00  0.00     0.241 C 
BRANCH  31  32
HETATM   32  C2  UNL     1      29.551  -0.973  16.228  1.00  0.00     0.118 A 
HETATM   33  N2  UNL     1      30.159  -1.455  17.337  1.00  0.00    -0.328 N 
HETATM   34  C1  UNL     1      30.693  -0.687  18.283  1.00  0.00     0.127 A 
ATOM     35  H2  UNL     1      30.212  -2.466  17.455  1.00  0.00     0.169 HD
HETATM   36  C15 UNL     1      30.653   0.707  18.177  1.00  0.00     0.117 A 
HETATM   37  C13 UNL     1      30.027   1.201  17.033  1.00  0.00     0.094 A 
HETATM   38  N9  UNL     1      31.220   1.560  19.167  1.00  0.00    -0.096 NA
HETATM   39  N8  UNL     1      29.508   0.371  16.122  1.00  0.00    -0.341 N 
ATOM     40  H8  UNL     1      29.057   0.777  15.302  1.00  0.00     0.167 HD
BRANCH  34  41
HETATM   41  N1  UNL     1      31.268  -1.159  19.334  1.00  0.00    -0.384 N 
ATOM     42  H12 UNL     1      32.123  -1.691  19.177  1.00  0.00     0.157 HD
ATOM     43  H11 UNL     1      30.908  -1.020  20.279  1.00  0.00     0.157 HD
ENDBRANCH  34  41
BRANCH  37  44
HETATM   44  C14 UNL     1      29.950   2.658  16.847  1.00  0.00     0.307 C 
BRANCH  44  45
HETATM   45  O10 UNL     1      29.248   3.253  17.905  1.00  0.00    -0.366 OA
ATOM     46  H10 UNL     1      28.386   3.530  17.618  1.00  0.00     0.213 HD
ENDBRANCH  44  45
BRANCH  44  47
HETATM   47  O11 UNL     1      31.253   3.195  16.886  1.00  0.00    -0.366 OA
ATOM     48  H11 UNL     1      31.273   3.913  17.507  1.00  0.00     0.213 HD
ENDBRANCH  44  47
ENDBRANCH  37  44
ENDBRANCH  31  32
BRANCH  31  49
HETATM   49  O1  UNL     1      30.033  -2.796  14.796  1.00  0.00    -0.382 OA
ATOM     50  H1  UNL     1      30.527  -2.463  14.056  1.00  0.00     0.211 HD
ENDBRANCH  31  49
ENDBRANCH   1  31
TORSDOF 17
ENDMDL
MODEL 2
REMARK VINA RESULT: -6.517513155      1.462      1.864
REMARK  17 active torsions:
REMARK  status: ('A' for Active; 'I' for Inactive)
REMARK    1  A    between atoms: N1_1  and  C1_4 
REMARK    2  A    between atoms: C2_7  and  C3_8 
REMARK    3  A    between atoms: C3_8  and  O1_9 
REMARK    4  A    between atoms: C3_8  and  C4_11 
REMARK    5  A    between atoms: N5_16  and  C5_17 
REMARK    6  A    between atoms: N6_19  and  O3_20 
REMARK    7  A    between atoms: C6_22  and  N7_23 
REMARK    8  A    between atoms: N7_23  and  C7_25 
REMARK    9  A    between atoms: C7_25  and  O4_26 
REMARK   10  A    between atoms: C7_25  and  C8_28 
REMARK   11  A    between atoms: C8_28  and  C9_29 
REMARK   12  A    between atoms: C10_32  and  O7_33 
REMARK   13  A    between atoms: C11_35  and  O8_36 
REMARK   14  A    between atoms: C12_38  and  O9_39 
REMARK   15  A    between atoms: C13_43  and  C14_44 
REMARK   16  A    between atoms: C14_44  and  O10_45 
REMARK   17  A    between atoms: C14_44  and  O11_47 
ROOT
HETATM    1  C4  UNL     1      29.044  -0.878  14.984  1.00  0.00     0.115 A 
HETATM    2  N3  UNL     1      29.790  -0.536  13.890  1.00  0.00    -0.283 N 
ATOM      3  H3  UNL     1      30.797  -0.368  13.894  1.00  0.00     0.188 HD
HETATM    4  N4  UNL     1      29.022  -0.457  12.844  1.00  0.00    -0.236 N 
ATOM      5  H4  UNL     1      29.337  -0.220  11.903  1.00  0.00     0.208 HD
HETATM    6  N5  UNL     1      27.763  -0.730  13.178  1.00  0.00    -0.220 N 
HETATM    7  C12 UNL     1      27.767  -0.992  14.485  1.00  0.00     0.188 A 
ENDROOT
BRANCH   6   8
HETATM    8  C5  UNL     1      26.697  -0.695  12.187  1.00  0.00     0.304 C 
HETATM    9  O2  UNL     1      25.492  -0.612  12.880  1.00  0.00    -0.246 OA
HETATM   10  N6  UNL     1      24.488  -0.532  11.997  1.00  0.00    -0.043 NA
HETATM   11  C6  UNL     1      24.453   0.792  11.469  1.00  0.00     0.242 C 
HETATM   12  C10 UNL     1      25.764   1.279  10.897  1.00  0.00     0.192 C 
HETATM   13  C11 UNL     1      26.953   0.487  11.294  1.00  0.00     0.202 C 
BRANCH  10  14
HETATM   14  O3  UNL     1      24.416  -1.511  11.107  1.00  0.00    -0.287 OA
ATOM     15  H3  UNL     1      23.666  -1.490  10.524  1.00  0.00     0.239 HD
ENDBRANCH  10  14
BRANCH  11  16
HETATM   16  N7  UNL     1      23.459   0.946  10.465  1.00  0.00    -0.374 N 
ATOM     17  H7  UNL     1      23.571   0.514   9.548  1.00  0.00     0.157 HD
BRANCH  16  18
HETATM   18  C7  UNL     1      22.311   1.712  10.769  1.00  0.00     0.224 C 
BRANCH  18  19
HETATM   19  O4  UNL     1      21.975   1.589  12.119  1.00  0.00    -0.377 OA
ATOM     20  H4  UNL     1      21.050   1.759  12.253  1.00  0.00     0.212 HD
ENDBRANCH  18  19
BRANCH  18  21
HETATM   21  C8  UNL     1      22.272   3.122  10.284  1.00  0.00     0.166 C 
BRANCH  21  22
HETATM   22  C9  UNL     1      22.464   4.051  11.466  1.00  0.00     0.176 C 
HETATM   23  O5  UNL     1      21.496   4.779  11.859  1.00  0.00    -0.648 OA
HETATM   24  O6  UNL     1      23.649   4.162  12.156  1.00  0.00    -0.648 OA
ENDBRANCH  21  22
ENDBRANCH  18  21
ENDBRANCH  16  18
ENDBRANCH  11  16
BRANCH  12  25
HETATM   25  O7  UNL     1      25.878   2.639  11.153  1.00  0.00    -0.389 OA
ATOM     26  H7  UNL     1      26.376   2.754  11.954  1.00  0.00     0.210 HD
ENDBRANCH  12  25
BRANCH  13  27
HETATM   27  O8  UNL     1      27.644  -0.034  10.173  1.00  0.00    -0.388 OA
ATOM     28  H8  UNL     1      26.972  -0.212   9.525  1.00  0.00     0.210 HD
ENDBRANCH  13  27
ENDBRANCH   6   8
BRANCH   7  29
HETATM   29  O9  UNL     1      26.610  -1.329  15.201  1.00  0.00    -0.343 OA
ATOM     30  H9  UNL     1      26.113  -0.763  15.780  1.00  0.00     0.219 HD
ENDBRANCH   7  29
BRANCH   1  31
HETATM   31  C3  UNL     1      29.565  -1.029  16.332  1.00  0.00     0.241 C 
BRANCH  31  32
HETATM   32  C2  UNL     1      30.392   0.058  16.896  1.00  0.00     0.118 A 
HETATM   33  N2  UNL     1      31.663  -0.135  17.320  1.00  0.00    -0.328 N 
HETATM   34  C1  UNL     1      32.451   0.836  17.770  1.00  0.00     0.127 A 
ATOM     35  H2  UNL     1      32.040  -1.083  17.291  1.00  0.00     0.169 HD
HETATM   36  C15 UNL     1      31.992   2.156  17.831  1.00  0.00     0.117 A 
HETATM   37  C13 UNL     1      30.683   2.353  17.393  1.00  0.00     0.094 A 
HETATM   38  N9  UNL     1      32.809   3.223  18.301  1.00  0.00    -0.096 NA
HETATM   39  N8  UNL     1      29.944   1.329  16.954  1.00  0.00    -0.341 N 
ATOM     40  H8  UNL     1      28.990   1.519  16.646  1.00  0.00     0.167 HD
BRANCH  34  41
HETATM   41  N1  UNL     1      33.658   0.639  18.172  1.00  0.00    -0.384 N 
ATOM     42  H12 UNL     1      34.279   0.171  17.511  1.00  0.00     0.157 HD
ATOM     43  H11 UNL     1      33.997   0.924  19.090  1.00  0.00     0.157 HD
ENDBRANCH  34  41
BRANCH  37  44
HETATM   44  C14 UNL     1      30.130   3.717  17.421  1.00  0.00     0.307 C 
BRANCH  44  45
HETATM   45  O10 UNL     1      30.790   4.535  16.494  1.00  0.00    -0.366 OA
ATOM     46  H10 UNL     1      30.934   5.401  16.856  1.00  0.00     0.213 HD
ENDBRANCH  44  45
BRANCH  44  47
HETATM   47  O11 UNL     1      28.780   3.673  17.019  1.00  0.00    -0.366 OA
ATOM     48  H11 UNL     1      28.484   4.555  16.831  1.00  0.00     0.213 HD
ENDBRANCH  44  47
ENDBRANCH  37  44
ENDBRANCH  31  32
BRANCH  31  49
HETATM   49  O1  UNL     1      30.234  -2.273  16.511  1.00  0.00    -0.382 OA
ATOM     50  H1  UNL     1      30.721  -2.254  17.327  1.00  0.00     0.211 HD
ENDBRANCH  31  49
ENDBRANCH   1  31
TORSDOF 17
ENDMDL
MODEL 3
REMARK VINA RESULT: -6.504681723      1.409      1.566
REMARK  17 active torsions:
REMARK  status: ('A' for Active; 'I' for Inactive)
REMARK    1  A    between atoms: N1_1  and  C1_4 
REMARK    2  A    between atoms: C2_7  and  C3_8 
REMARK    3  A    between atoms: C3_8  and  O1_9 
REMARK    4  A    between atoms: C3_8  and  C4_11 
REMARK    5  A    between atoms: N5_16  and  C5_17 
REMARK    6  A    between atoms: N6_19  and  O3_20 
REMARK    7  A    between atoms: C6_22  and  N7_23 
REMARK    8  A    between atoms: N7_23  and  C7_25 
REMARK    9  A    between atoms: C7_25  and  O4_26 
REMARK   10  A    between atoms: C7_25  and  C8_28 
REMARK   11  A    between atoms: C8_28  and  C9_29 
REMARK   12  A    between atoms: C10_32  and  O7_33 
REMARK   13  A    between atoms: C11_35  and  O8_36 
REMARK   14  A    between atoms: C12_38  and  O9_39 
REMARK   15  A    between atoms: C13_43  and  C14_44 
REMARK   16  A    between atoms: C14_44  and  O10_45 
REMARK   17  A    between atoms: C14_44  and  O11_47 
ROOT
HETATM    1  C4  UNL     1      28.533  -1.313  13.849  1.00  0.00     0.115 A 
HETATM    2  N3  UNL     1      29.429  -1.002  12.863  1.00  0.00    -0.283 N 
ATOM      3  H3  UNL     1      30.418  -1.254  12.866  1.00  0.00     0.188 HD
HETATM    4  N4  UNL     1      28.829  -0.335  11.921  1.00  0.00    -0.236 N 
ATOM      5  H4  UNL     1      29.279   0.011  11.074  1.00  0.00     0.208 HD
HETATM    6  N5  UNL     1      27.545  -0.170  12.223  1.00  0.00    -0.220 N 
HETATM    7  C12 UNL     1      27.352  -0.768  13.400  1.00  0.00     0.188 A 
ENDROOT
BRANCH   6   8
HETATM    8  C5  UNL     1      26.650   0.560  11.336  1.00  0.00     0.304 C 
HETATM    9  O2  UNL     1      25.821   1.342  12.137  1.00  0.00    -0.246 OA
HETATM   10  N6  UNL     1      25.014   2.064  11.350  1.00  0.00    -0.043 NA
HETATM   11  C6  UNL     1      25.763   3.146  10.801  1.00  0.00     0.242 C 
HETATM   12  C10 UNL     1      27.038   2.739  10.099  1.00  0.00     0.192 C 
HETATM   13  C11 UNL     1      27.507   1.365  10.400  1.00  0.00     0.202 C 
BRANCH  10  14
HETATM   14  O3  UNL     1      24.274   1.379  10.491  1.00  0.00    -0.287 OA
ATOM     15  H3  UNL     1      23.760   1.894   9.879  1.00  0.00     0.239 HD
ENDBRANCH  10  14
BRANCH  11  16
HETATM   16  N7  UNL     1      24.998   3.925   9.891  1.00  0.00    -0.374 N 
ATOM     17  H7  UNL     1      25.156   3.860   8.886  1.00  0.00     0.157 HD
BRANCH  16  18
HETATM   18  C7  UNL     1      24.011   4.791  10.414  1.00  0.00     0.224 C 
BRANCH  18  19
HETATM   19  O4  UNL     1      24.106   4.868  11.806  1.00  0.00    -0.377 OA
ATOM     20  H4  UNL     1      25.013   4.935  12.080  1.00  0.00     0.212 HD
ENDBRANCH  18  19
BRANCH  18  21
HETATM   21  C8  UNL     1      23.847   6.124   9.766  1.00  0.00     0.166 C 
BRANCH  21  22
HETATM   22  C9  UNL     1      24.852   7.087  10.365  1.00  0.00     0.176 C 
HETATM   23  O5  UNL     1      26.024   7.162   9.872  1.00  0.00    -0.648 OA
HETATM   24  O6  UNL     1      24.572   7.903  11.437  1.00  0.00    -0.648 OA
ENDBRANCH  21  22
ENDBRANCH  18  21
ENDBRANCH  16  18
ENDBRANCH  11  16
BRANCH  12  25
HETATM   25  O7  UNL     1      27.993   3.724  10.317  1.00  0.00    -0.389 OA
ATOM     26  H7  UNL     1      28.551   3.777   9.550  1.00  0.00     0.210 HD
ENDBRANCH  12  25
BRANCH  13  27
HETATM   27  O8  UNL     1      27.626   0.576   9.230  1.00  0.00    -0.388 OA
ATOM     28  H8  UNL     1      26.761   0.211   9.084  1.00  0.00     0.210 HD
ENDBRANCH  13  27
ENDBRANCH   6   8
BRANCH   7  29
HETATM   29  O9  UNL     1      26.109  -0.807  14.044  1.00  0.00    -0.343 OA
ATOM     30  H9  UNL     1      25.435  -0.137  14.024  1.00  0.00     0.219 HD
ENDBRANCH   7  29
BRANCH   1  31
HETATM   31  C3  UNL     1      28.856  -2.029  15.071  1.00  0.00     0.241 C 
BRANCH  31  32
HETATM   32  C2  UNL     1      29.487  -1.285  16.181  1.00  0.00     0.118 A 
HETATM   33  N2  UNL     1      30.083  -1.901  17.228  1.00  0.00    -0.328 N 
HETATM   34  C1  UNL     1      30.714  -1.258  18.206  1.00  0.00     0.127 A 
ATOM     35  H2  UNL     1      30.046  -2.919  17.271  1.00  0.00     0.169 HD
HETATM   36  C15 UNL     1      30.799   0.139  18.202  1.00  0.00     0.117 A 
HETATM   37  C13 UNL     1      30.185   0.771  17.122  1.00  0.00     0.094 A 
HETATM   38  N9  UNL     1      31.472   0.861  19.229  1.00  0.00    -0.096 NA
HETATM   39  N8  UNL     1      29.565   0.062  16.174  1.00  0.00    -0.341 N 
ATOM     40  H8  UNL     1      29.127   0.566  15.403  1.00  0.00     0.167 HD
BRANCH  34  41
HETATM   41  N1  UNL     1      31.276  -1.856  19.198  1.00  0.00    -0.384 N 
ATOM     42  H12 UNL     1      30.838  -1.721  20.109  1.00  0.00     0.157 HD
ATOM     43  H11 UNL     1      32.110  -2.435  19.103  1.00  0.00     0.157 HD
ENDBRANCH  34  41
BRANCH  37  44
HETATM   44  C14 UNL     1      30.237   2.239  17.044  1.00  0.00     0.307 C 
BRANCH  44  45
HETATM   45  O10 UNL     1      29.745   2.812  18.226  1.00  0.00    -0.366 OA
ATOM     46  H10 UNL     1      29.369   3.666  18.051  1.00  0.00     0.213 HD
ENDBRANCH  44  45
BRANCH  44  47
HETATM   47  O11 UNL     1      31.582   2.646  16.937  1.00  0.00    -0.366 OA
ATOM     48  H11 UNL     1      31.777   3.257  17.638  1.00  0.00     0.213 HD
ENDBRANCH  44  47
ENDBRANCH  37  44
ENDBRANCH  31  32
BRANCH  31  49
HETATM   49  O1  UNL     1      29.601  -3.216  14.815  1.00  0.00    -0.382 OA
ATOM     50  H1  UNL     1      29.457  -3.836  15.521  1.00  0.00     0.211 HD
ENDBRANCH  31  49
ENDBRANCH   1  31
TORSDOF 17
ENDMDL
MODEL 4
REMARK VINA RESULT: -6.460258020      1.616      2.133
REMARK  17 active torsions:
REMARK  status: ('A' for Active; 'I' for Inactive)
REMARK    1  A    between atoms: N1_1  and  C1_4 
REMARK    2  A    between atoms: C2_7  and  C3_8 
REMARK    3  A    between atoms: C3_8  and  O1_9 
REMARK    4  A    between atoms: C3_8  and  C4_11 
REMARK    5  A    between atoms: N5_16  and  C5_17 
REMARK    6  A    between atoms: N6_19  and  O3_20 
REMARK    7  A    between atoms: C6_22  and  N7_23 
REMARK    8  A    between atoms: N7_23  and  C7_25 
REMARK    9  A    between atoms: C7_25  and  O4_26 
REMARK   10  A    between atoms: C7_25  and  C8_28 
REMARK   11  A    between atoms: C8_28  and  C9_29 
REMARK   12  A    between atoms: C10_32  and  O7_33 
REMARK   13  A    between atoms: C11_35  and  O8_36 
REMARK   14  A    between atoms: C12_38  and  O9_39 
REMARK   15  A    between atoms: C13_43  and  C14_44 
REMARK   16  A    between atoms: C14_44  and  O10_45 
REMARK   17  A    between atoms: C14_44  and  O11_47 
ROOT
HETATM    1  C4  UNL     1      28.115  -1.392  14.042  1.00  0.00     0.115 A 
HETATM    2  N3  UNL     1      28.839  -0.853  13.013  1.00  0.00    -0.283 N 
ATOM      3  H3  UNL     1      29.857  -0.848  12.951  1.00  0.00     0.188 HD
HETATM    4  N4  UNL     1      28.031  -0.349  12.128  1.00  0.00    -0.236 N 
ATOM      5  H4  UNL     1      28.323   0.110  11.265  1.00  0.00     0.208 HD
HETATM    6  N5  UNL     1      26.768  -0.516  12.511  1.00  0.00    -0.220 N 
HETATM    7  C12 UNL     1      26.808  -1.157  13.680  1.00  0.00     0.188 A 
ENDROOT
BRANCH   6   8
HETATM    8  C5  UNL     1      25.663  -0.025  11.699  1.00  0.00     0.304 C 
HETATM    9  O2  UNL     1      24.574   0.152  12.548  1.00  0.00    -0.246 OA
HETATM   10  N6  UNL     1      23.550   0.648  11.842  1.00  0.00    -0.043 NA
HETATM   11  C6  UNL     1      23.790   2.035  11.607  1.00  0.00     0.242 C 
HETATM   12  C10 UNL     1      25.127   2.347  10.979  1.00  0.00     0.192 C 
HETATM   13  C11 UNL     1      26.121   1.248  11.043  1.00  0.00     0.202 C 
BRANCH  10  14
HETATM   14  O3  UNL     1      23.173  -0.059  10.787  1.00  0.00    -0.287 OA
ATOM     15  H3  UNL     1      22.245  -0.047  10.586  1.00  0.00     0.239 HD
ENDBRANCH  10  14
BRANCH  11  16
HETATM   16  N7  UNL     1      22.782   2.626  10.798  1.00  0.00    -0.374 N 
ATOM     17  H7  UNL     1      22.441   2.155   9.960  1.00  0.00     0.157 HD
BRANCH  16  18
HETATM   18  C7  UNL     1      22.264   3.883  11.182  1.00  0.00     0.224 C 
BRANCH  18  19
HETATM   19  O4  UNL     1      22.605   4.177  12.505  1.00  0.00    -0.377 OA
ATOM     20  H4  UNL     1      21.828   4.238  13.048  1.00  0.00     0.212 HD
ENDBRANCH  18  19
BRANCH  18  21
HETATM   21  C8  UNL     1      22.478   5.032  10.256  1.00  0.00     0.166 C 
BRANCH  21  22
HETATM   22  C9  UNL     1      21.373   6.046  10.472  1.00  0.00     0.176 C 
HETATM   23  O5  UNL     1      20.952   6.739   9.489  1.00  0.00    -0.648 OA
HETATM   24  O6  UNL     1      20.782   6.273  11.693  1.00  0.00    -0.648 OA
ENDBRANCH  21  22
ENDBRANCH  18  21
ENDBRANCH  16  18
ENDBRANCH  11  16
BRANCH  12  25
HETATM   25  O7  UNL     1      25.584   3.554  11.493  1.00  0.00    -0.389 OA
ATOM     26  H7  UNL     1      25.661   4.175  10.779  1.00  0.00     0.210 HD
ENDBRANCH  12  25
BRANCH  13  27
HETATM   27  O8  UNL     1      26.573   0.864   9.757  1.00  0.00    -0.388 OA
ATOM     28  H8  UNL     1      26.304   1.566   9.176  1.00  0.00     0.210 HD
ENDBRANCH  13  27
ENDBRANCH   6   8
BRANCH   7  29
HETATM   29  O9  UNL     1      25.659  -1.515  14.396  1.00  0.00    -0.343 OA
ATOM     30  H9  UNL     1      25.425  -2.384  14.702  1.00  0.00     0.219 HD
ENDBRANCH   7  29
BRANCH   1  31
HETATM   31  C3  UNL     1      28.686  -2.017  15.222  1.00  0.00     0.241 C 
BRANCH  31  32
HETATM   32  C2  UNL     1      29.495  -1.189  16.141  1.00  0.00     0.118 A 
HETATM   33  N2  UNL     1      29.626   0.150  15.994  1.00  0.00    -0.328 N 
HETATM   34  C1  UNL     1      30.293   0.928  16.841  1.00  0.00     0.127 A 
ATOM     35  H2  UNL     1      29.187   0.589  15.185  1.00  0.00     0.169 HD
HETATM   36  C15 UNL     1      30.916   0.383  17.969  1.00  0.00     0.117 A 
HETATM   37  C13 UNL     1      30.778  -0.996  18.119  1.00  0.00     0.094 A 
HETATM   38  N9  UNL     1      31.633   1.186  18.902  1.00  0.00    -0.096 NA
HETATM   39  N8  UNL     1      30.095  -1.719  17.227  1.00  0.00    -0.341 N 
ATOM     40  H8  UNL     1      30.022  -2.726  17.375  1.00  0.00     0.167 HD
BRANCH  34  41
HETATM   41  N1  UNL     1      30.412   2.201  16.689  1.00  0.00    -0.384 N 
ATOM     42  H12 UNL     1      29.965   2.780  17.399  1.00  0.00     0.157 HD
ATOM     43  H11 UNL     1      30.918   2.627  15.913  1.00  0.00     0.157 HD
ENDBRANCH  34  41
BRANCH  37  44
HETATM   44  C14 UNL     1      31.400  -1.642  19.286  1.00  0.00     0.307 C 
BRANCH  44  45
HETATM   45  O10 UNL     1      31.062  -3.002  19.334  1.00  0.00    -0.366 OA
ATOM     46  H10 UNL     1      30.401  -3.158  19.999  1.00  0.00     0.213 HD
ENDBRANCH  44  45
BRANCH  44  47
HETATM   47  O11 UNL     1      32.801  -1.587  19.148  1.00  0.00    -0.366 OA
ATOM     48  H11 UNL     1      33.166  -1.111  19.884  1.00  0.00     0.213 HD
ENDBRANCH  44  47
ENDBRANCH  37  44
ENDBRANCH  31  32
BRANCH  31  49
HETATM   49  O1  UNL     1      29.402  -3.207  14.905  1.00  0.00    -0.382 OA
ATOM     50  H1  UNL     1      29.088  -3.552  14.078  1.00  0.00     0.211 HD
ENDBRANCH  31  49
ENDBRANCH   1  31
TORSDOF 17
ENDMDL
MODEL 5
REMARK VINA RESULT: -6.223673032      5.878     10.282
REMARK  17 active torsions:
REMARK  status: ('A' for Active; 'I' for Inactive)
REMARK    1  A    between atoms: N1_1  and  C1_4 
REMARK    2  A    between atoms: C2_7  and  C3_8 
REMARK    3  A    between atoms: C3_8  and  O1_9 
REMARK    4  A    between atoms: C3_8  and  C4_11 
REMARK    5  A    between atoms: N5_16  and  C5_17 
REMARK    6  A    between atoms: N6_19  and  O3_20 
REMARK    7  A    between atoms: C6_22  and  N7_23 
REMARK    8  A    between atoms: N7_23  and  C7_25 
REMARK    9  A    between atoms: C7_25  and  O4_26 
REMARK   10  A    between atoms: C7_25  and  C8_28 
REMARK   11  A    between atoms: C8_28  and  C9_29 
REMARK   12  A    between atoms: C10_32  and  O7_33 
REMARK   13  A    between atoms: C11_35  and  O8_36 
REMARK   14  A    between atoms: C12_38  and  O9_39 
REMARK   15  A    between atoms: C13_43  and  C14_44 
REMARK   16  A    between atoms: C14_44  and  O10_45 
REMARK   17  A    between atoms: C14_44  and  O11_47 
ROOT
HETATM    1  C4  UNL     1      25.030   7.474   8.323  1.00  0.00     0.115 A 
HETATM    2  N3  UNL     1      25.720   7.596   7.148  1.00  0.00    -0.283 N 
ATOM      3  H3  UNL     1      26.718   7.418   7.031  1.00  0.00     0.188 HD
HETATM    4  N4  UNL     1      24.911   7.974   6.203  1.00  0.00    -0.236 N 
ATOM      5  H4  UNL     1      25.181   8.134   5.232  1.00  0.00     0.208 HD
HETATM    6  N5  UNL     1      23.680   8.122   6.685  1.00  0.00    -0.220 N 
HETATM    7  C12 UNL     1      23.742   7.816   7.981  1.00  0.00     0.188 A 
ENDROOT
BRANCH   6   8
HETATM    8  C5  UNL     1      22.584   8.556   5.831  1.00  0.00     0.304 C 
HETATM    9  O2  UNL     1      21.432   8.574   6.613  1.00  0.00    -0.246 OA
HETATM   10  N6  UNL     1      20.409   9.013   5.869  1.00  0.00    -0.043 NA
HETATM   11  C6  UNL     1      20.524  10.428   5.730  1.00  0.00     0.242 C 
HETATM   12  C10 UNL     1      21.860  10.906   5.211  1.00  0.00     0.192 C 
HETATM   13  C11 UNL     1      22.952   9.905   5.279  1.00  0.00     0.202 C 
BRANCH  10  14
HETATM   14  O3  UNL     1      20.170   8.341   4.753  1.00  0.00    -0.287 OA
ATOM     15  H3  UNL     1      20.494   8.734   3.951  1.00  0.00     0.239 HD
ENDBRANCH  10  14
BRANCH  11  16
HETATM   16  N7  UNL     1      19.514  10.971   4.890  1.00  0.00    -0.374 N 
ATOM     17  H7  UNL     1      19.562  10.860   3.876  1.00  0.00     0.157 HD
BRANCH  16  18
HETATM   18  C7  UNL     1      18.442  11.667   5.492  1.00  0.00     0.224 C 
BRANCH  18  19
HETATM   19  O4  UNL     1      17.977  10.984   6.618  1.00  0.00    -0.377 OA
ATOM     20  H4  UNL     1      17.330  10.332   6.374  1.00  0.00     0.212 HD
ENDBRANCH  18  19
BRANCH  18  21
HETATM   21  C8  UNL     1      18.612  13.130   5.725  1.00  0.00     0.166 C 
BRANCH  21  22
HETATM   22  C9  UNL     1      18.847  13.365   7.203  1.00  0.00     0.176 C 
HETATM   23  O5  UNL     1      20.018  13.230   7.685  1.00  0.00    -0.648 OA
HETATM   24  O6  UNL     1      17.849  13.723   8.080  1.00  0.00    -0.648 OA
ENDBRANCH  21  22
ENDBRANCH  18  21
ENDBRANCH  16  18
ENDBRANCH  11  16
BRANCH  12  25
HETATM   25  O7  UNL     1      22.162  12.116   5.822  1.00  0.00    -0.389 OA
ATOM     26  H7  UNL     1      22.021  12.025   6.757  1.00  0.00     0.210 HD
ENDBRANCH  12  25
BRANCH  13  27
HETATM   27  O8  UNL     1      23.518   9.648   4.007  1.00  0.00    -0.388 OA
ATOM     28  H8  UNL     1      23.868  10.481   3.715  1.00  0.00     0.210 HD
ENDBRANCH  13  27
ENDBRANCH   6   8
BRANCH   7  29
HETATM   29  O9  UNL     1      22.628   7.853   8.830  1.00  0.00    -0.343 OA
ATOM     30  H9  UNL     1      21.792   7.419   8.695  1.00  0.00     0.219 HD
ENDBRANCH   7  29
BRANCH   1  31
HETATM   31  C3  UNL     1      25.617   7.098   9.598  1.00  0.00     0.241 C 
BRANCH  31  32
HETATM   32  C2  UNL     1      25.519   5.689  10.033  1.00  0.00     0.118 A 
HETATM   33  N2  UNL     1      26.486   4.777   9.780  1.00  0.00    -0.328 N 
HETATM   34  C1  UNL     1      26.453   3.521  10.216  1.00  0.00     0.127 A 
ATOM     35  H2  UNL     1      27.288   5.069   9.223  1.00  0.00     0.169 HD
HETATM   36  C15 UNL     1      25.380   3.061  10.987  1.00  0.00     0.117 A 
HETATM   37  C13 UNL     1      24.386   4.003  11.247  1.00  0.00     0.094 A 
HETATM   38  N9  UNL     1      25.315   1.726  11.476  1.00  0.00    -0.096 NA
HETATM   39  N8  UNL     1      24.481   5.250  10.775  1.00  0.00    -0.341 N 
ATOM     40  H8  UNL     1      23.729   5.905  10.987  1.00  0.00     0.167 HD
BRANCH  34  41
HETATM   41  N1  UNL     1      27.380   2.662   9.967  1.00  0.00    -0.384 N 
ATOM     42  H12 UNL     1      28.245   2.770  10.497  1.00  0.00     0.157 HD
ATOM     43  H11 UNL     1      27.278   1.909   9.286  1.00  0.00     0.157 HD
ENDBRANCH  34  41
BRANCH  37  44
HETATM   44  C14 UNL     1      23.227   3.597  12.057  1.00  0.00     0.307 C 
BRANCH  44  45
HETATM   45  O10 UNL     1      23.525   3.689  13.424  1.00  0.00    -0.366 OA
ATOM     46  H10 UNL     1      23.172   2.942  13.893  1.00  0.00     0.213 HD
ENDBRANCH  44  45
BRANCH  44  47
HETATM   47  O11 UNL     1      22.166   4.493  11.822  1.00  0.00    -0.366 OA
ATOM     48  H11 UNL     1      21.349   4.078  12.072  1.00  0.00     0.213 HD
ENDBRANCH  44  47
ENDBRANCH  37  44
ENDBRANCH  31  32
BRANCH  31  49
HETATM   49  O1  UNL     1      25.190   7.950  10.656  1.00  0.00    -0.382 OA
ATOM     50  H1  UNL     1      25.392   8.852  10.436  1.00  0.00     0.211 HD
ENDBRANCH  31  49
ENDBRANCH   1  31
TORSDOF 17
ENDMDL
