MODEL 1
REMARK VINA RESULT: -10.293016112      0.000      0.000
REMARK  5 active torsions:
REMARK  status: ('A' for Active; 'I' for Inactive)
REMARK    1  A    between atoms: C1_2  and  C2_3 
REMARK    2  A    between atoms: C2_3  and  C3_4 
REMARK    3  A    between atoms: C2_3  and  C10_11 
REMARK    4  A    between atoms: C3_4  and  C4_5 
REMARK    5  A    between atoms: C13_14  and  C14_15 
ROOT
HETATM    1  C10 UNL     1      14.673  28.655  46.407  1.00  0.00    -0.053 A 
HETATM    2  C11 UNL     1      13.925  27.924  47.288  1.00  0.00     0.008 A 
HETATM    3  C12 UNL     1      13.801  28.375  48.600  1.00  0.00     0.013 A 
HETATM    4  C13 UNL     1      14.409  29.532  49.033  1.00  0.00    -0.026 A 
HETATM    5  C20 UNL     1      15.156  30.251  48.127  1.00  0.00     0.013 A 
HETATM    6  C21 UNL     1      15.289  29.819  46.824  1.00  0.00     0.008 A 
ENDROOT
BRANCH   1   7
HETATM    7  C2  UNL     1      14.843  28.226  44.988  1.00  0.00     0.033 C 
BRANCH   7   8
HETATM    8  C1  UNL     1      13.919  28.991  44.072  1.00  0.00     0.096 C 
HETATM    9  S1  UNL     1      12.837  30.107  45.046  1.00  0.00    -0.097 SA
ENDBRANCH   7   8
BRANCH   7  10
HETATM   10  C3  UNL     1      16.266  28.535  44.615  1.00  0.00     0.048 C 
BRANCH  10  11
HETATM   11  C4  UNL     1      17.211  27.432  44.749  1.00  0.00    -0.058 A 
HETATM   12  C5  UNL     1      17.735  27.105  45.978  1.00  0.00     0.007 A 
HETATM   13  C6  UNL     1      18.629  26.076  46.075  1.00  0.00     0.001 A 
HETATM   14  C7  UNL     1      19.046  25.335  44.990  1.00  0.00     0.000 A 
HETATM   15  C8  UNL     1      18.499  25.687  43.752  1.00  0.00     0.001 A 
HETATM   16  C9  UNL     1      17.596  26.721  43.635  1.00  0.00     0.007 A 
ENDBRANCH  10  11
ENDBRANCH   7  10
ENDBRANCH   1   7
BRANCH   4  17
HETATM   17  C14 UNL     1      14.235  29.943  50.415  1.00  0.00    -0.026 A 
HETATM   18  C15 UNL     1      12.974  30.023  50.967  1.00  0.00     0.012 A 
HETATM   19  C16 UNL     1      12.763  30.409  52.271  1.00  0.00     0.001 A 
HETATM   20  C17 UNL     1      13.816  30.735  53.091  1.00  0.00     0.000 A 
HETATM   21  C18 UNL     1      15.096  30.662  52.558  1.00  0.00     0.001 A 
HETATM   22  C19 UNL     1      15.290  30.271  51.240  1.00  0.00     0.012 A 
ENDBRANCH   4  17
TORSDOF 5
ENDMDL
MODEL 2
REMARK VINA RESULT: -10.283469952      0.084      1.426
REMARK  5 active torsions:
REMARK  status: ('A' for Active; 'I' for Inactive)
REMARK    1  A    between atoms: C1_2  and  C2_3 
REMARK    2  A    between atoms: C2_3  and  C3_4 
REMARK    3  A    between atoms: C2_3  and  C10_11 
REMARK    4  A    between atoms: C3_4  and  C4_5 
REMARK    5  A    between atoms: C13_14  and  C14_15 
ROOT
HETATM    1  C10 UNL     1      14.656  28.701  46.416  1.00  0.00    -0.053 A 
HETATM    2  C11 UNL     1      15.233  29.855  46.870  1.00  0.00     0.008 A 
HETATM    3  C12 UNL     1      15.049  30.218  48.203  1.00  0.00     0.013 A 
HETATM    4  C13 UNL     1      14.306  29.450  49.071  1.00  0.00    -0.026 A 
HETATM    5  C20 UNL     1      13.736  28.294  48.590  1.00  0.00     0.013 A 
HETATM    6  C21 UNL     1      13.907  27.919  47.273  1.00  0.00     0.008 A 
ENDROOT
BRANCH   1   7
HETATM    7  C2  UNL     1      14.815  28.257  45.000  1.00  0.00     0.033 C 
BRANCH   7   8
HETATM    8  C1  UNL     1      13.882  29.010  44.083  1.00  0.00     0.096 C 
HETATM    9  S1  UNL     1      12.778  30.104  45.058  1.00  0.00    -0.097 SA
ENDBRANCH   7   8
BRANCH   7  10
HETATM   10  C3  UNL     1      16.234  28.562  44.613  1.00  0.00     0.048 C 
BRANCH  10  11
HETATM   11  C4  UNL     1      17.180  27.459  44.743  1.00  0.00    -0.058 A 
HETATM   12  C5  UNL     1      17.706  27.130  45.971  1.00  0.00     0.007 A 
HETATM   13  C6  UNL     1      18.601  26.102  46.064  1.00  0.00     0.001 A 
HETATM   14  C7  UNL     1      19.015  25.362  44.977  1.00  0.00     0.000 A 
HETATM   15  C8  UNL     1      18.466  25.716  43.741  1.00  0.00     0.001 A 
HETATM   16  C9  UNL     1      17.563  26.750  43.627  1.00  0.00     0.007 A 
ENDBRANCH  10  11
ENDBRANCH   7  10
ENDBRANCH   1   7
BRANCH   4  17
HETATM   17  C14 UNL     1      14.158  29.889  50.448  1.00  0.00    -0.026 A 
HETATM   18  C15 UNL     1      15.266  30.227  51.196  1.00  0.00     0.012 A 
HETATM   19  C16 UNL     1      15.172  30.647  52.503  1.00  0.00     0.001 A 
HETATM   20  C17 UNL     1      13.954  30.749  53.128  1.00  0.00     0.000 A 
HETATM   21  C18 UNL     1      12.823  30.414  52.395  1.00  0.00     0.001 A 
HETATM   22  C19 UNL     1      12.936  29.992  51.077  1.00  0.00     0.012 A 
ENDBRANCH   4  17
TORSDOF 5
ENDMDL
MODEL 3
REMARK VINA RESULT: -10.238881132      0.088      1.748
REMARK  5 active torsions:
REMARK  status: ('A' for Active; 'I' for Inactive)
REMARK    1  A    between atoms: C1_2  and  C2_3 
REMARK    2  A    between atoms: C2_3  and  C3_4 
REMARK    3  A    between atoms: C2_3  and  C10_11 
REMARK    4  A    between atoms: C3_4  and  C4_5 
REMARK    5  A    between atoms: C13_14  and  C14_15 
ROOT
HETATM    1  C10 UNL     1      14.662  28.692  46.420  1.00  0.00    -0.053 A 
HETATM    2  C11 UNL     1      15.245  29.842  46.875  1.00  0.00     0.008 A 
HETATM    3  C12 UNL     1      15.064  30.206  48.208  1.00  0.00     0.013 A 
HETATM    4  C13 UNL     1      14.316  29.442  49.075  1.00  0.00    -0.026 A 
HETATM    5  C20 UNL     1      13.738  28.289  48.593  1.00  0.00     0.013 A 
HETATM    6  C21 UNL     1      13.908  27.914  47.276  1.00  0.00     0.008 A 
ENDROOT
BRANCH   1   7
HETATM    7  C2  UNL     1      14.819  28.247  45.004  1.00  0.00     0.033 C 
BRANCH   7   8
HETATM    8  C1  UNL     1      13.873  28.988  44.091  1.00  0.00     0.096 C 
HETATM    9  S1  UNL     1      12.791  30.105  45.065  1.00  0.00    -0.097 SA
ENDBRANCH   7   8
BRANCH   7  10
HETATM   10  C3  UNL     1      16.232  28.568  44.609  1.00  0.00     0.048 C 
BRANCH  10  11
HETATM   11  C4  UNL     1      17.189  27.473  44.725  1.00  0.00    -0.058 A 
HETATM   12  C5  UNL     1      17.564  26.752  43.615  1.00  0.00     0.007 A 
HETATM   13  C6  UNL     1      18.451  25.722  43.752  1.00  0.00     0.001 A 
HETATM   14  C7  UNL     1      19.001  25.356  44.962  1.00  0.00     0.000 A 
HETATM   15  C8  UNL     1      18.604  26.104  46.074  1.00  0.00     0.001 A 
HETATM   16  C9  UNL     1      17.710  27.146  45.956  1.00  0.00     0.007 A 
ENDBRANCH  10  11
ENDBRANCH   7  10
ENDBRANCH   1   7
BRANCH   4  17
HETATM   17  C14 UNL     1      14.169  29.882  50.452  1.00  0.00    -0.026 A 
HETATM   18  C15 UNL     1      15.277  30.229  51.195  1.00  0.00     0.012 A 
HETATM   19  C16 UNL     1      15.186  30.649  52.502  1.00  0.00     0.001 A 
HETATM   20  C17 UNL     1      13.969  30.742  53.132  1.00  0.00     0.000 A 
HETATM   21  C18 UNL     1      12.838  30.398  52.404  1.00  0.00     0.001 A 
HETATM   22  C19 UNL     1      12.949  29.975  51.086  1.00  0.00     0.012 A 
ENDBRANCH   4  17
TORSDOF 5
ENDMDL
MODEL 4
REMARK VINA RESULT: -10.238610842      0.049      1.424
REMARK  5 active torsions:
REMARK  status: ('A' for Active; 'I' for Inactive)
REMARK    1  A    between atoms: C1_2  and  C2_3 
REMARK    2  A    between atoms: C2_3  and  C3_4 
REMARK    3  A    between atoms: C2_3  and  C10_11 
REMARK    4  A    between atoms: C3_4  and  C4_5 
REMARK    5  A    between atoms: C13_14  and  C14_15 
ROOT
HETATM    1  C10 UNL     1      14.660  28.662  46.416  1.00  0.00    -0.053 A 
HETATM    2  C11 UNL     1      13.914  27.925  47.294  1.00  0.00     0.008 A 
HETATM    3  C12 UNL     1      13.784  28.373  48.607  1.00  0.00     0.013 A 
HETATM    4  C13 UNL     1      14.384  29.533  49.043  1.00  0.00    -0.026 A 
HETATM    5  C20 UNL     1      15.129  30.257  48.141  1.00  0.00     0.013 A 
HETATM    6  C21 UNL     1      15.269  29.829  46.837  1.00  0.00     0.008 A 
ENDROOT
BRANCH   1   7
HETATM    7  C2  UNL     1      14.837  28.237  44.997  1.00  0.00     0.033 C 
BRANCH   7   8
HETATM    8  C1  UNL     1      13.905  28.991  44.080  1.00  0.00     0.096 C 
HETATM    9  S1  UNL     1      12.816  30.102  45.054  1.00  0.00    -0.097 SA
ENDBRANCH   7   8
BRANCH   7  10
HETATM   10  C3  UNL     1      16.257  28.561  44.626  1.00  0.00     0.048 C 
BRANCH  10  11
HETATM   11  C4  UNL     1      17.210  27.462  44.736  1.00  0.00    -0.058 A 
HETATM   12  C5  UNL     1      17.578  26.743  43.623  1.00  0.00     0.007 A 
HETATM   13  C6  UNL     1      18.462  25.709  43.754  1.00  0.00     0.001 A 
HETATM   14  C7  UNL     1      19.014  25.338  44.961  1.00  0.00     0.000 A 
HETATM   15  C8  UNL     1      18.624  26.085  46.077  1.00  0.00     0.001 A 
HETATM   16  C9  UNL     1      17.734  27.131  45.964  1.00  0.00     0.007 A 
ENDBRANCH  10  11
ENDBRANCH   7  10
ENDBRANCH   1   7
BRANCH   4  17
HETATM   17  C14 UNL     1      14.204  29.941  50.425  1.00  0.00    -0.026 A 
HETATM   18  C15 UNL     1      15.295  30.258  51.207  1.00  0.00     0.012 A 
HETATM   19  C16 UNL     1      15.172  30.648  52.520  1.00  0.00     0.001 A 
HETATM   20  C17 UNL     1      13.939  30.739  53.118  1.00  0.00     0.000 A 
HETATM   21  C18 UNL     1      12.825  30.425  52.352  1.00  0.00     0.001 A 
HETATM   22  C19 UNL     1      12.968  30.033  51.028  1.00  0.00     0.012 A 
ENDBRANCH   4  17
TORSDOF 5
ENDMDL
MODEL 5
REMARK VINA RESULT: -9.925464475      1.310      7.262
REMARK  5 active torsions:
REMARK  status: ('A' for Active; 'I' for Inactive)
REMARK    1  A    between atoms: C1_2  and  C2_3 
REMARK    2  A    between atoms: C2_3  and  C3_4 
REMARK    3  A    between atoms: C2_3  and  C10_11 
REMARK    4  A    between atoms: C3_4  and  C4_5 
REMARK    5  A    between atoms: C13_14  and  C14_15 
ROOT
HETATM    1  C10 UNL     1      14.973  29.101  46.006  1.00  0.00    -0.053 A 
HETATM    2  C11 UNL     1      16.133  28.800  46.664  1.00  0.00     0.008 A 
HETATM    3  C12 UNL     1      17.031  27.913  46.073  1.00  0.00     0.013 A 
HETATM    4  C13 UNL     1      16.783  27.335  44.849  1.00  0.00    -0.026 A 
HETATM    5  C20 UNL     1      15.609  27.655  44.205  1.00  0.00     0.013 A 
HETATM    6  C21 UNL     1      14.708  28.530  44.776  1.00  0.00     0.008 A 
ENDROOT
BRANCH   1   7
HETATM    7  C2  UNL     1      13.971  30.043  46.585  1.00  0.00     0.033 C 
BRANCH   7   8
HETATM    8  C1  UNL     1      12.767  30.180  45.686  1.00  0.00     0.096 C 
HETATM    9  S1  UNL     1      12.205  31.927  45.636  1.00  0.00    -0.097 SA
ENDBRANCH   7   8
BRANCH   7  10
HETATM   10  C3  UNL     1      13.537  29.453  47.897  1.00  0.00     0.048 C 
BRANCH  10  11
HETATM   11  C4  UNL     1      14.187  29.997  49.085  1.00  0.00    -0.058 A 
HETATM   12  C5  UNL     1      14.680  31.281  49.085  1.00  0.00     0.007 A 
HETATM   13  C6  UNL     1      15.297  31.763  50.206  1.00  0.00     0.001 A 
HETATM   14  C7  UNL     1      15.457  31.021  51.356  1.00  0.00     0.000 A 
HETATM   15  C8  UNL     1      14.947  29.719  51.330  1.00  0.00     0.001 A 
HETATM   16  C9  UNL     1      14.322  29.216  50.210  1.00  0.00     0.007 A 
ENDBRANCH  10  11
ENDBRANCH   7  10
ENDBRANCH   1   7
BRANCH   4  17
HETATM   17  C14 UNL     1      17.764  26.421  44.291  1.00  0.00    -0.026 A 
HETATM   18  C15 UNL     1      17.608  25.922  43.015  1.00  0.00     0.012 A 
HETATM   19  C16 UNL     1      18.511  25.054  42.447  1.00  0.00     0.001 A 
HETATM   20  C17 UNL     1      19.624  24.641  43.137  1.00  0.00     0.000 A 
HETATM   21  C18 UNL     1      19.805  25.129  44.424  1.00  0.00     0.001 A 
HETATM   22  C19 UNL     1      18.882  26.005  44.981  1.00  0.00     0.012 A 
ENDBRANCH   4  17
TORSDOF 5
ENDMDL
