MODEL 1
REMARK VINA RESULT: -8.777986844      0.000      0.000
REMARK  5 active torsions:
REMARK  status: ('A' for Active; 'I' for Inactive)
REMARK    1  A    between atoms: C2_2  and  C3_3 
REMARK    2  A    between atoms: C3_3  and  C4_4 
REMARK    3  A    between atoms: C4_4  and  C5_5 
REMARK    4  A    between atoms: C5_5  and  C6_6 
REMARK    5  A    between atoms: C6_6  and  C7_7 
ROOT
HETATM    1  C7  UNL     1      13.477  30.167  45.986  1.00  0.00    -0.057 A 
HETATM    2  C8  UNL     1      13.975  31.146  46.808  1.00  0.00     0.008 A 
HETATM    3  C9  UNL     1      14.216  30.856  48.156  1.00  0.00     0.013 A 
HETATM    4  C10 UNL     1      13.974  29.626  48.703  1.00  0.00    -0.015 A 
HETATM    5  C11 UNL     1      13.467  28.636  47.862  1.00  0.00    -0.025 A 
HETATM    6  C12 UNL     1      13.202  27.375  48.351  1.00  0.00     0.013 A 
HETATM    7  C13 UNL     1      13.445  27.120  49.666  1.00  0.00     0.015 A 
HETATM    8  C14 UNL     1      13.948  28.099  50.503  1.00  0.00     0.004 A 
HETATM    9  C15 UNL     1      14.224  29.375  50.037  1.00  0.00    -0.013 A 
HETATM   10  C16 UNL     1      14.725  30.349  50.875  1.00  0.00     0.014 A 
HETATM   11  C17 UNL     1      14.946  30.019  52.194  1.00  0.00     0.016 A 
HETATM   12  C18 UNL     1      14.673  28.737  52.676  1.00  0.00     0.010 A 
HETATM   13  C19 UNL     1      14.793  28.142  53.911  1.00  0.00     0.120 A 
HETATM   14  N1  UNL     1      14.379  26.868  53.810  1.00  0.00    -0.311 N 
ATOM     15  H1  UNL     1      14.354  26.182  54.564  1.00  0.00     0.186 HD
HETATM   16  N2  UNL     1      14.012  26.663  52.558  1.00  0.00    -0.299 N 
ATOM     17  H2  UNL     1      13.654  25.779  52.196  1.00  0.00     0.187 HD
HETATM   18  C20 UNL     1      14.175  27.782  51.826  1.00  0.00     0.070 A 
HETATM   19  C21 UNL     1      13.228  28.925  46.519  1.00  0.00     0.019 A 
ENDROOT
BRANCH   1  20
HETATM   20  C6  UNL     1      13.219  30.464  44.558  1.00  0.00     0.038 C 
BRANCH  20  21
HETATM   21  C5  UNL     1      14.041  29.561  43.696  1.00  0.00     0.005 C 
BRANCH  21  22
HETATM   22  C4  UNL     1      15.469  29.454  44.150  1.00  0.00     0.000 C 
BRANCH  22  23
HETATM   23  C3  UNL     1      15.863  28.021  44.451  1.00  0.00    -0.000 C 
BRANCH  23  24
HETATM   24  C2  UNL     1      16.599  27.912  45.762  1.00  0.00    -0.005 C 
HETATM   25  C1  UNL     1      17.885  27.107  45.612  1.00  0.00     0.005 C 
ENDBRANCH  23  24
ENDBRANCH  22  23
ENDBRANCH  21  22
ENDBRANCH  20  21
ENDBRANCH   1  20
TORSDOF 5
ENDMDL
MODEL 2
REMARK VINA RESULT: -8.729601242      1.683      2.409
REMARK  5 active torsions:
REMARK  status: ('A' for Active; 'I' for Inactive)
REMARK    1  A    between atoms: C2_2  and  C3_3 
REMARK    2  A    between atoms: C3_3  and  C4_4 
REMARK    3  A    between atoms: C4_4  and  C5_5 
REMARK    4  A    between atoms: C5_5  and  C6_6 
REMARK    5  A    between atoms: C6_6  and  C7_7 
ROOT
HETATM    1  C7  UNL     1      15.419  28.913  45.304  1.00  0.00    -0.057 A 
HETATM    2  C8  UNL     1      15.252  30.252  45.557  1.00  0.00     0.008 A 
HETATM    3  C9  UNL     1      14.854  30.666  46.833  1.00  0.00     0.013 A 
HETATM    4  C10 UNL     1      14.618  29.790  47.857  1.00  0.00    -0.015 A 
HETATM    5  C11 UNL     1      14.788  28.432  47.592  1.00  0.00    -0.025 A 
HETATM    6  C12 UNL     1      14.566  27.497  48.581  1.00  0.00     0.013 A 
HETATM    7  C13 UNL     1      14.180  27.928  49.813  1.00  0.00     0.015 A 
HETATM    8  C14 UNL     1      14.009  29.275  50.078  1.00  0.00     0.004 A 
HETATM    9  C15 UNL     1      14.226  30.235  49.103  1.00  0.00    -0.013 A 
HETATM   10  C16 UNL     1      14.055  31.577  49.372  1.00  0.00     0.014 A 
HETATM   11  C17 UNL     1      13.662  31.939  50.641  1.00  0.00     0.016 A 
HETATM   12  C18 UNL     1      13.441  30.982  51.633  1.00  0.00     0.010 A 
HETATM   13  C19 UNL     1      13.053  31.052  52.951  1.00  0.00     0.120 A 
HETATM   14  N1  UNL     1      12.996  29.804  53.444  1.00  0.00    -0.311 N 
ATOM     15  H1  UNL     1      12.738  29.545  54.396  1.00  0.00     0.186 HD
HETATM   16  N2  UNL     1      13.335  28.973  52.475  1.00  0.00    -0.299 N 
ATOM     17  H2  UNL     1      13.378  27.959  52.569  1.00  0.00     0.187 HD
HETATM   18  C20 UNL     1      13.616  29.652  51.345  1.00  0.00     0.070 A 
HETATM   19  C21 UNL     1      15.186  28.018  46.322  1.00  0.00     0.019 A 
ENDROOT
BRANCH   1  20
HETATM   20  C6  UNL     1      15.841  28.464  43.957  1.00  0.00     0.038 C 
BRANCH  20  21
HETATM   21  C5  UNL     1      16.355  27.062  44.029  1.00  0.00     0.005 C 
BRANCH  21  22
HETATM   22  C4  UNL     1      17.767  26.926  43.537  1.00  0.00     0.000 C 
BRANCH  22  23
HETATM   23  C3  UNL     1      18.644  26.182  44.525  1.00  0.00    -0.000 C 
BRANCH  23  24
HETATM   24  C2  UNL     1      18.592  26.809  45.895  1.00  0.00    -0.005 C 
HETATM   25  C1  UNL     1      18.177  25.797  46.955  1.00  0.00     0.005 C 
ENDBRANCH  23  24
ENDBRANCH  22  23
ENDBRANCH  21  22
ENDBRANCH  20  21
ENDBRANCH   1  20
TORSDOF 5
ENDMDL
MODEL 3
REMARK VINA RESULT: -8.514451797      2.087      2.894
REMARK  5 active torsions:
REMARK  status: ('A' for Active; 'I' for Inactive)
REMARK    1  A    between atoms: C2_2  and  C3_3 
REMARK    2  A    between atoms: C3_3  and  C4_4 
REMARK    3  A    between atoms: C4_4  and  C5_5 
REMARK    4  A    between atoms: C5_5  and  C6_6 
REMARK    5  A    between atoms: C6_6  and  C7_7 
ROOT
HETATM    1  C7  UNL     1      15.536  28.635  45.406  1.00  0.00    -0.057 A 
HETATM    2  C8  UNL     1      15.330  29.983  45.565  1.00  0.00     0.008 A 
HETATM    3  C9  UNL     1      14.894  30.470  46.803  1.00  0.00     0.013 A 
HETATM    4  C10 UNL     1      14.657  29.658  47.877  1.00  0.00    -0.015 A 
HETATM    5  C11 UNL     1      14.867  28.290  47.707  1.00  0.00    -0.025 A 
HETATM    6  C12 UNL     1      14.647  27.416  48.751  1.00  0.00     0.013 A 
HETATM    7  C13 UNL     1      14.222  27.918  49.943  1.00  0.00     0.015 A 
HETATM    8  C14 UNL     1      14.013  29.274  50.115  1.00  0.00     0.004 A 
HETATM    9  C15 UNL     1      14.227  30.174  49.082  1.00  0.00    -0.013 A 
HETATM   10  C16 UNL     1      14.016  31.525  49.258  1.00  0.00     0.014 A 
HETATM   11  C17 UNL     1      13.587  31.960  50.492  1.00  0.00     0.016 A 
HETATM   12  C18 UNL     1      13.368  31.065  51.540  1.00  0.00     0.010 A 
HETATM   13  C19 UNL     1      12.950  31.212  52.843  1.00  0.00     0.120 A 
HETATM   14  N1  UNL     1      12.913  29.998  53.417  1.00  0.00    -0.311 N 
ATOM     15  H1  UNL     1      12.640  29.796  54.378  1.00  0.00     0.186 HD
HETATM   16  N2  UNL     1      13.294  29.115  52.512  1.00  0.00    -0.299 N 
ATOM     17  H2  UNL     1      13.360  28.110  52.674  1.00  0.00     0.187 HD
HETATM   18  C20 UNL     1      13.583  29.724  51.346  1.00  0.00     0.070 A 
HETATM   19  C21 UNL     1      15.302  27.804  46.475  1.00  0.00     0.019 A 
ENDROOT
BRANCH   1  20
HETATM   20  C6  UNL     1      15.998  28.109  44.100  1.00  0.00     0.038 C 
BRANCH  20  21
HETATM   21  C5  UNL     1      16.996  27.018  44.319  1.00  0.00     0.005 C 
BRANCH  21  22
HETATM   22  C4  UNL     1      17.892  26.793  43.135  1.00  0.00     0.000 C 
BRANCH  22  23
HETATM   23  C3  UNL     1      19.142  26.019  43.508  1.00  0.00    -0.000 C 
BRANCH  23  24
HETATM   24  C2  UNL     1      19.087  24.599  43.005  1.00  0.00    -0.005 C 
HETATM   25  C1  UNL     1      18.098  24.454  41.855  1.00  0.00     0.005 C 
ENDBRANCH  23  24
ENDBRANCH  22  23
ENDBRANCH  21  22
ENDBRANCH  20  21
ENDBRANCH   1  20
TORSDOF 5
ENDMDL
MODEL 4
REMARK VINA RESULT: -8.225233414      3.745      6.949
REMARK  5 active torsions:
REMARK  status: ('A' for Active; 'I' for Inactive)
REMARK    1  A    between atoms: C2_2  and  C3_3 
REMARK    2  A    between atoms: C3_3  and  C4_4 
REMARK    3  A    between atoms: C4_4  and  C5_5 
REMARK    4  A    between atoms: C5_5  and  C6_6 
REMARK    5  A    between atoms: C6_6  and  C7_7 
ROOT
HETATM    1  C7  UNL     1      14.113  30.552  47.553  1.00  0.00    -0.057 A 
HETATM    2  C8  UNL     1      15.263  30.185  48.207  1.00  0.00     0.008 A 
HETATM    3  C9  UNL     1      16.144  29.285  47.596  1.00  0.00     0.013 A 
HETATM    4  C10 UNL     1      15.912  28.744  46.362  1.00  0.00    -0.015 A 
HETATM    5  C11 UNL     1      14.741  29.120  45.704  1.00  0.00    -0.025 A 
HETATM    6  C12 UNL     1      14.448  28.610  44.457  1.00  0.00     0.013 A 
HETATM    7  C13 UNL     1      15.323  27.737  43.887  1.00  0.00     0.015 A 
HETATM    8  C14 UNL     1      16.485  27.361  44.536  1.00  0.00     0.004 A 
HETATM    9  C15 UNL     1      16.803  27.859  45.790  1.00  0.00    -0.013 A 
HETATM   10  C16 UNL     1      17.963  27.481  46.434  1.00  0.00     0.014 A 
HETATM   11  C17 UNL     1      18.800  26.594  45.796  1.00  0.00     0.016 A 
HETATM   12  C18 UNL     1      18.491  26.085  44.533  1.00  0.00     0.010 A 
HETATM   13  C19 UNL     1      19.123  25.208  43.681  1.00  0.00     0.120 A 
HETATM   14  N1  UNL     1      18.370  25.071  42.578  1.00  0.00    -0.311 N 
ATOM     15  H1  UNL     1      18.585  24.484  41.772  1.00  0.00     0.186 HD
HETATM   16  N2  UNL     1      17.301  25.832  42.724  1.00  0.00    -0.299 N 
ATOM     17  H2  UNL     1      16.554  25.922  42.035  1.00  0.00     0.187 HD
HETATM   18  C20 UNL     1      17.333  26.473  43.908  1.00  0.00     0.070 A 
HETATM   19  C21 UNL     1      13.864  30.017  46.311  1.00  0.00     0.019 A 
ENDROOT
BRANCH   1  20
HETATM   20  C6  UNL     1      13.174  31.504  48.191  1.00  0.00     0.038 C 
BRANCH  20  21
HETATM   21  C5  UNL     1      13.584  31.747  49.607  1.00  0.00     0.005 C 
BRANCH  21  22
HETATM   22  C4  UNL     1      12.615  31.183  50.606  1.00  0.00     0.000 C 
BRANCH  22  23
HETATM   23  C3  UNL     1      13.287  30.851  51.924  1.00  0.00    -0.000 C 
BRANCH  23  24
HETATM   24  C2  UNL     1      14.788  30.831  51.793  1.00  0.00    -0.005 C 
HETATM   25  C1  UNL     1      15.458  30.490  53.118  1.00  0.00     0.005 C 
ENDBRANCH  23  24
ENDBRANCH  22  23
ENDBRANCH  21  22
ENDBRANCH  20  21
ENDBRANCH   1  20
TORSDOF 5
ENDMDL
MODEL 5
REMARK VINA RESULT: -8.222454903      3.020      6.724
REMARK  5 active torsions:
REMARK  status: ('A' for Active; 'I' for Inactive)
REMARK    1  A    between atoms: C2_2  and  C3_3 
REMARK    2  A    between atoms: C3_3  and  C4_4 
REMARK    3  A    between atoms: C4_4  and  C5_5 
REMARK    4  A    between atoms: C5_5  and  C6_6 
REMARK    5  A    between atoms: C6_6  and  C7_7 
ROOT
HETATM    1  C7  UNL     1      15.253  30.442  51.663  1.00  0.00    -0.057 A 
HETATM    2  C8  UNL     1      15.612  31.553  50.942  1.00  0.00     0.008 A 
HETATM    3  C9  UNL     1      15.460  31.548  49.551  1.00  0.00     0.013 A 
HETATM    4  C10 UNL     1      14.966  30.475  48.863  1.00  0.00    -0.015 A 
HETATM    5  C11 UNL     1      14.604  29.349  49.602  1.00  0.00    -0.025 A 
HETATM    6  C12 UNL     1      14.099  28.233  48.970  1.00  0.00     0.013 A 
HETATM    7  C13 UNL     1      13.962  28.256  47.615  1.00  0.00     0.015 A 
HETATM    8  C14 UNL     1      14.321  29.371  46.879  1.00  0.00     0.004 A 
HETATM    9  C15 UNL     1      14.831  30.506  47.490  1.00  0.00    -0.013 A 
HETATM   10  C16 UNL     1      15.187  31.615  46.752  1.00  0.00     0.014 A 
HETATM   11  C17 UNL     1      15.021  31.566  45.386  1.00  0.00     0.016 A 
HETATM   12  C18 UNL     1      14.508  30.429  44.758  1.00  0.00     0.010 A 
HETATM   13  C19 UNL     1      14.242  30.107  43.447  1.00  0.00     0.120 A 
HETATM   14  N1  UNL     1      13.748  28.859  43.408  1.00  0.00    -0.311 N 
ATOM     15  H1  UNL     1      13.460  28.351  42.572  1.00  0.00     0.186 HD
HETATM   16  N2  UNL     1      13.703  28.406  44.648  1.00  0.00    -0.299 N 
ATOM     17  H2  UNL     1      13.369  27.480  44.916  1.00  0.00     0.187 HD
HETATM   18  C20 UNL     1      14.160  29.336  45.510  1.00  0.00     0.070 A 
HETATM   19  C21 UNL     1      14.753  29.353  50.988  1.00  0.00     0.019 A 
ENDROOT
BRANCH   1  20
HETATM   20  C6  UNL     1      15.408  30.437  53.137  1.00  0.00     0.038 C 
BRANCH  20  21
HETATM   21  C5  UNL     1      15.278  29.041  53.654  1.00  0.00     0.005 C 
BRANCH  21  22
HETATM   22  C4  UNL     1      13.951  28.415  53.333  1.00  0.00     0.000 C 
BRANCH  22  23
HETATM   23  C3  UNL     1      14.031  26.901  53.299  1.00  0.00    -0.000 C 
BRANCH  23  24
HETATM   24  C2  UNL     1      13.223  26.328  52.162  1.00  0.00    -0.005 C 
HETATM   25  C1  UNL     1      14.092  25.503  51.222  1.00  0.00     0.005 C 
ENDBRANCH  23  24
ENDBRANCH  22  23
ENDBRANCH  21  22
ENDBRANCH  20  21
ENDBRANCH   1  20
TORSDOF 5
ENDMDL
