MODEL 1
REMARK VINA RESULT: -10.690113456      0.000      0.000
REMARK  5 active torsions:
REMARK  status: ('A' for Active; 'I' for Inactive)
REMARK    1  A    between atoms: C4_4  and  C5_5 
REMARK    2  A    between atoms: C5_5  and  C6_6 
REMARK    3  A    between atoms: C6_6  and  C7_7 
REMARK    4  A    between atoms: C7_7  and  C8_8 
REMARK    5  A    between atoms: C8_8  and  C9_9 
ROOT
HETATM    1  C9  UNL     1      13.781  29.711  47.207  1.00  0.00     0.036 A 
HETATM    2  N1  UNL     1      14.027  31.014  47.461  1.00  0.00    -0.367 N 
ATOM      3  H1  UNL     1      14.037  31.658  46.670  1.00  0.00     0.165 HD
HETATM    4  C10 UNL     1      14.258  31.514  48.663  1.00  0.00     0.089 A 
HETATM    5  C11 UNL     1      14.252  30.668  49.759  1.00  0.00     0.031 A 
HETATM    6  C12 UNL     1      14.007  29.320  49.577  1.00  0.00     0.006 A 
HETATM    7  C13 UNL     1      13.772  28.856  48.291  1.00  0.00     0.066 A 
HETATM    8  N2  UNL     1      13.562  27.518  48.385  1.00  0.00    -0.353 N 
ATOM      9  H2  UNL     1      13.363  26.890  47.607  1.00  0.00     0.166 HD
HETATM   10  C14 UNL     1      13.664  27.154  49.699  1.00  0.00     0.043 A 
HETATM   11  C15 UNL     1      13.542  25.945  50.340  1.00  0.00     0.030 A 
HETATM   12  C16 UNL     1      13.696  25.867  51.702  1.00  0.00     0.002 A 
HETATM   13  C17 UNL     1      13.976  26.972  52.488  1.00  0.00     0.001 A 
HETATM   14  C18 UNL     1      14.095  28.186  51.823  1.00  0.00     0.014 A 
HETATM   15  C19 UNL     1      13.941  28.268  50.457  1.00  0.00     0.003 A 
ENDROOT
BRANCH   1  16
HETATM   16  C8  UNL     1      13.538  29.264  45.826  1.00  0.00     0.059 C 
BRANCH  16  17
HETATM   17  C7  UNL     1      14.761  29.387  44.940  1.00  0.00     0.006 C 
BRANCH  17  18
HETATM   18  C6  UNL     1      15.426  28.028  44.905  1.00  0.00     0.005 C 
BRANCH  18  19
HETATM   19  C5  UNL     1      16.692  27.994  45.725  1.00  0.00     0.038 C 
BRANCH  19  20
HETATM   20  C4  UNL     1      17.619  27.014  45.105  1.00  0.00    -0.058 A 
HETATM   21  C3  UNL     1      17.651  26.904  43.730  1.00  0.00     0.007 A 
HETATM   22  C2  UNL     1      18.504  26.000  43.124  1.00  0.00     0.001 A 
HETATM   23  C1  UNL     1      19.317  25.213  43.894  1.00  0.00     0.000 A 
HETATM   24  C21 UNL     1      19.266  25.342  45.253  1.00  0.00     0.001 A 
HETATM   25  C20 UNL     1      18.418  26.245  45.898  1.00  0.00     0.007 A 
ENDBRANCH  19  20
ENDBRANCH  18  19
ENDBRANCH  17  18
ENDBRANCH  16  17
ENDBRANCH   1  16
TORSDOF 5
ENDMDL
MODEL 2
REMARK VINA RESULT: -10.622160111      0.568      1.175
REMARK  5 active torsions:
REMARK  status: ('A' for Active; 'I' for Inactive)
REMARK    1  A    between atoms: C4_4  and  C5_5 
REMARK    2  A    between atoms: C5_5  and  C6_6 
REMARK    3  A    between atoms: C6_6  and  C7_7 
REMARK    4  A    between atoms: C7_7  and  C8_8 
REMARK    5  A    between atoms: C8_8  and  C9_9 
ROOT
HETATM    1  C9  UNL     1      13.883  29.380  47.447  1.00  0.00     0.036 A 
HETATM    2  N1  UNL     1      13.744  30.723  47.442  1.00  0.00    -0.367 N 
ATOM      3  H1  UNL     1      13.704  31.192  46.537  1.00  0.00     0.165 HD
HETATM    4  C10 UNL     1      13.656  31.473  48.527  1.00  0.00     0.089 A 
HETATM    5  C11 UNL     1      13.707  30.868  49.771  1.00  0.00     0.031 A 
HETATM    6  C12 UNL     1      13.848  29.497  49.856  1.00  0.00     0.006 A 
HETATM    7  C13 UNL     1      13.935  28.764  48.682  1.00  0.00     0.066 A 
HETATM    8  N2  UNL     1      14.066  27.461  49.037  1.00  0.00    -0.353 N 
ATOM      9  H2  UNL     1      14.154  26.673  48.394  1.00  0.00     0.166 HD
HETATM   10  C14 UNL     1      14.062  27.380  50.402  1.00  0.00     0.043 A 
HETATM   11  C15 UNL     1      14.163  26.320  51.270  1.00  0.00     0.030 A 
HETATM   12  C16 UNL     1      14.128  26.532  52.626  1.00  0.00     0.002 A 
HETATM   13  C17 UNL     1      13.993  27.792  53.183  1.00  0.00     0.001 A 
HETATM   14  C18 UNL     1      13.892  28.852  52.290  1.00  0.00     0.014 A 
HETATM   15  C19 UNL     1      13.926  28.643  50.929  1.00  0.00     0.003 A 
ENDROOT
BRANCH   1  16
HETATM   16  C8  UNL     1      13.972  28.644  46.176  1.00  0.00     0.059 C 
BRANCH  16  17
HETATM   17  C7  UNL     1      14.845  29.339  45.150  1.00  0.00     0.006 C 
BRANCH  17  18
HETATM   18  C6  UNL     1      15.811  28.305  44.614  1.00  0.00     0.005 C 
BRANCH  18  19
HETATM   19  C5  UNL     1      16.771  27.822  45.673  1.00  0.00     0.038 C 
BRANCH  19  20
HETATM   20  C4  UNL     1      17.716  26.867  45.041  1.00  0.00    -0.058 A 
HETATM   21  C3  UNL     1      18.506  26.078  45.850  1.00  0.00     0.007 A 
HETATM   22  C2  UNL     1      19.397  25.179  45.291  1.00  0.00     0.001 A 
HETATM   23  C1  UNL     1      19.491  25.077  43.930  1.00  0.00     0.000 A 
HETATM   24  C21 UNL     1      18.697  25.869  43.151  1.00  0.00     0.001 A 
HETATM   25  C20 UNL     1      17.787  26.786  43.682  1.00  0.00     0.007 A 
ENDBRANCH  19  20
ENDBRANCH  18  19
ENDBRANCH  17  18
ENDBRANCH  16  17
ENDBRANCH   1  16
TORSDOF 5
ENDMDL
MODEL 3
REMARK VINA RESULT: -10.466058044      1.911      7.078
REMARK  5 active torsions:
REMARK  status: ('A' for Active; 'I' for Inactive)
REMARK    1  A    between atoms: C4_4  and  C5_5 
REMARK    2  A    between atoms: C5_5  and  C6_6 
REMARK    3  A    between atoms: C6_6  and  C7_7 
REMARK    4  A    between atoms: C7_7  and  C8_8 
REMARK    5  A    between atoms: C8_8  and  C9_9 
ROOT
HETATM    1  C9  UNL     1      14.277  29.329  46.679  1.00  0.00     0.036 A 
HETATM    2  N1  UNL     1      13.391  29.778  45.765  1.00  0.00    -0.367 N 
ATOM      3  H1  UNL     1      12.602  30.332  46.100  1.00  0.00     0.165 HD
HETATM    4  C10 UNL     1      13.473  29.551  44.465  1.00  0.00     0.089 A 
HETATM    5  C11 UNL     1      14.530  28.803  43.976  1.00  0.00     0.031 A 
HETATM    6  C12 UNL     1      15.477  28.309  44.852  1.00  0.00     0.006 A 
HETATM    7  C13 UNL     1      15.337  28.582  46.205  1.00  0.00     0.066 A 
HETATM    8  N2  UNL     1      16.382  27.992  46.838  1.00  0.00    -0.353 N 
ATOM      9  H2  UNL     1      16.559  28.013  47.843  1.00  0.00     0.166 HD
HETATM   10  C14 UNL     1      17.159  27.366  45.904  1.00  0.00     0.043 A 
HETATM   11  C15 UNL     1      18.317  26.633  46.000  1.00  0.00     0.030 A 
HETATM   12  C16 UNL     1      18.897  26.108  44.871  1.00  0.00     0.002 A 
HETATM   13  C17 UNL     1      18.363  26.281  43.606  1.00  0.00     0.001 A 
HETATM   14  C18 UNL     1      17.192  27.026  43.529  1.00  0.00     0.014 A 
HETATM   15  C19 UNL     1      16.608  27.554  44.658  1.00  0.00     0.003 A 
ENDROOT
BRANCH   1  16
HETATM   16  C8  UNL     1      14.086  29.642  48.104  1.00  0.00     0.059 C 
BRANCH  16  17
HETATM   17  C7  UNL     1      14.249  31.118  48.413  1.00  0.00     0.006 C 
BRANCH  17  18
HETATM   18  C6  UNL     1      13.150  31.495  49.382  1.00  0.00     0.005 C 
BRANCH  18  19
HETATM   19  C5  UNL     1      13.687  32.196  50.605  1.00  0.00     0.038 C 
BRANCH  19  20
HETATM   20  C4  UNL     1      14.239  31.169  51.524  1.00  0.00    -0.058 A 
HETATM   21  C3  UNL     1      13.382  30.242  52.079  1.00  0.00     0.007 A 
HETATM   22  C2  UNL     1      13.867  29.273  52.939  1.00  0.00     0.001 A 
HETATM   23  C1  UNL     1      15.202  29.237  53.236  1.00  0.00     0.000 A 
HETATM   24  C21 UNL     1      16.030  30.166  52.672  1.00  0.00     0.001 A 
HETATM   25  C20 UNL     1      15.574  31.158  51.800  1.00  0.00     0.007 A 
ENDBRANCH  19  20
ENDBRANCH  18  19
ENDBRANCH  17  18
ENDBRANCH  16  17
ENDBRANCH   1  16
TORSDOF 5
ENDMDL
MODEL 4
REMARK VINA RESULT: -10.435417873      1.254      2.603
REMARK  5 active torsions:
REMARK  status: ('A' for Active; 'I' for Inactive)
REMARK    1  A    between atoms: C4_4  and  C5_5 
REMARK    2  A    between atoms: C5_5  and  C6_6 
REMARK    3  A    between atoms: C6_6  and  C7_7 
REMARK    4  A    between atoms: C7_7  and  C8_8 
REMARK    5  A    between atoms: C8_8  and  C9_9 
ROOT
HETATM    1  C9  UNL     1      13.688  28.519  47.684  1.00  0.00     0.036 A 
HETATM    2  N1  UNL     1      13.027  27.342  47.731  1.00  0.00    -0.367 N 
ATOM      3  H1  UNL     1      12.684  26.955  46.852  1.00  0.00     0.165 HD
HETATM    4  C10 UNL     1      12.794  26.656  48.837  1.00  0.00     0.089 A 
HETATM    5  C11 UNL     1      13.246  27.153  50.048  1.00  0.00     0.031 A 
HETATM    6  C12 UNL     1      13.930  28.353  50.078  1.00  0.00     0.006 A 
HETATM    7  C13 UNL     1      14.145  29.026  48.884  1.00  0.00     0.066 A 
HETATM    8  N2  UNL     1      14.829  30.158  49.185  1.00  0.00    -0.353 N 
ATOM      9  H2  UNL     1      15.136  30.865  48.516  1.00  0.00     0.166 HD
HETATM   10  C14 UNL     1      15.039  30.194  50.535  1.00  0.00     0.043 A 
HETATM   11  C15 UNL     1      15.668  31.099  51.354  1.00  0.00     0.030 A 
HETATM   12  C16 UNL     1      15.734  30.878  52.707  1.00  0.00     0.002 A 
HETATM   13  C17 UNL     1      15.184  29.760  53.310  1.00  0.00     0.001 A 
HETATM   14  C18 UNL     1      14.551  28.855  52.466  1.00  0.00     0.014 A 
HETATM   15  C19 UNL     1      14.484  29.073  51.108  1.00  0.00     0.003 A 
ENDROOT
BRANCH   1  16
HETATM   16  C8  UNL     1      13.890  29.197  46.394  1.00  0.00     0.059 C 
BRANCH  16  17
HETATM   17  C7  UNL     1      14.361  28.259  45.299  1.00  0.00     0.006 C 
BRANCH  17  18
HETATM   18  C6  UNL     1      15.815  28.581  45.031  1.00  0.00     0.005 C 
BRANCH  18  19
HETATM   19  C5  UNL     1      16.740  27.855  45.976  1.00  0.00     0.038 C 
BRANCH  19  20
HETATM   20  C4  UNL     1      17.608  26.955  45.175  1.00  0.00    -0.058 A 
HETATM   21  C3  UNL     1      17.466  26.940  43.803  1.00  0.00     0.007 A 
HETATM   22  C2  UNL     1      18.259  26.112  43.030  1.00  0.00     0.001 A 
HETATM   23  C1  UNL     1      19.187  25.306  43.632  1.00  0.00     0.000 A 
HETATM   24  C21 UNL     1      19.307  25.340  44.992  1.00  0.00     0.001 A 
HETATM   25  C20 UNL     1      18.523  26.164  45.803  1.00  0.00     0.007 A 
ENDBRANCH  19  20
ENDBRANCH  18  19
ENDBRANCH  17  18
ENDBRANCH  16  17
ENDBRANCH   1  16
TORSDOF 5
ENDMDL
MODEL 5
REMARK VINA RESULT: -10.428787826      1.080      1.822
REMARK  5 active torsions:
REMARK  status: ('A' for Active; 'I' for Inactive)
REMARK    1  A    between atoms: C4_4  and  C5_5 
REMARK    2  A    between atoms: C5_5  and  C6_6 
REMARK    3  A    between atoms: C6_6  and  C7_7 
REMARK    4  A    between atoms: C7_7  and  C8_8 
REMARK    5  A    between atoms: C8_8  and  C9_9 
ROOT
HETATM    1  C9  UNL     1      14.037  29.233  47.168  1.00  0.00     0.036 A 
HETATM    2  N1  UNL     1      13.772  30.433  46.608  1.00  0.00    -0.367 N 
ATOM      3  H1  UNL     1      13.790  30.495  45.590  1.00  0.00     0.165 HD
HETATM    4  C10 UNL     1      13.491  31.532  47.286  1.00  0.00     0.089 A 
HETATM    5  C11 UNL     1      13.459  31.483  48.670  1.00  0.00     0.031 A 
HETATM    6  C12 UNL     1      13.719  30.289  49.314  1.00  0.00     0.006 A 
HETATM    7  C13 UNL     1      14.007  29.169  48.547  1.00  0.00     0.066 A 
HETATM    8  N2  UNL     1      14.221  28.143  49.409  1.00  0.00    -0.353 N 
ATOM      9  H2  UNL     1      14.455  27.185  49.149  1.00  0.00     0.166 HD
HETATM   10  C14 UNL     1      14.071  28.609  50.685  1.00  0.00     0.043 A 
HETATM   11  C15 UNL     1      14.173  28.003  51.914  1.00  0.00     0.030 A 
HETATM   12  C16 UNL     1      13.965  28.728  53.061  1.00  0.00     0.002 A 
HETATM   13  C17 UNL     1      13.649  30.075  53.048  1.00  0.00     0.001 A 
HETATM   14  C18 UNL     1      13.549  30.671  51.797  1.00  0.00     0.014 A 
HETATM   15  C19 UNL     1      13.757  29.948  50.644  1.00  0.00     0.003 A 
ENDROOT
BRANCH   1  16
HETATM   16  C8  UNL     1      14.338  28.073  46.314  1.00  0.00     0.059 C 
BRANCH  16  17
HETATM   17  C7  UNL     1      14.488  28.438  44.851  1.00  0.00     0.006 C 
BRANCH  17  18
HETATM   18  C6  UNL     1      15.968  28.417  44.535  1.00  0.00     0.005 C 
BRANCH  18  19
HETATM   19  C5  UNL     1      16.770  27.746  45.622  1.00  0.00     0.038 C 
BRANCH  19  20
HETATM   20  C4  UNL     1      17.726  26.808  44.981  1.00  0.00    -0.058 A 
HETATM   21  C3  UNL     1      18.563  26.059  45.782  1.00  0.00     0.007 A 
HETATM   22  C2  UNL     1      19.464  25.177  45.214  1.00  0.00     0.001 A 
HETATM   23  C1  UNL     1      19.523  25.051  43.852  1.00  0.00     0.000 A 
HETATM   24  C21 UNL     1      18.684  25.805  43.082  1.00  0.00     0.001 A 
HETATM   25  C20 UNL     1      17.762  26.704  43.623  1.00  0.00     0.007 A 
ENDBRANCH  19  20
ENDBRANCH  18  19
ENDBRANCH  17  18
ENDBRANCH  16  17
ENDBRANCH   1  16
TORSDOF 5
ENDMDL
