MODEL 1
REMARK VINA RESULT: -9.883650901      0.000      0.000
REMARK  4 active torsions:
REMARK  status: ('A' for Active; 'I' for Inactive)
REMARK    1  A    between atoms: C2_2  and  C4_4 
REMARK    2  A    between atoms: N1_6  and  C6_7 
REMARK       I    between atoms: N2_15  and  C14_16 
REMARK    3  A    between atoms: C14_16  and  O2_18 
REMARK    4  A    between atoms: O2_18  and  C15_19 
ROOT
HETATM    1  C4  UNL     1      39.073  14.684  85.614  1.00  0.00     0.121 C 
HETATM    2  C5  UNL     1      38.212  15.444  86.572  1.00  0.00     0.298 C 
HETATM    3  N1  UNL     1      38.252  16.869  86.427  1.00  0.00     0.096 N 
HETATM    4  C12 UNL     1      38.160  17.412  85.132  1.00  0.00     0.293 C 
HETATM    5  C13 UNL     1      38.953  16.694  84.099  1.00  0.00     0.159 C 
HETATM    6  N2  UNL     1      39.676  15.554  84.606  1.00  0.00    -0.320 N 
HETATM    7  C14 UNL     1      40.976  15.336  84.084  1.00  0.00     0.363 C 
HETATM    8  O1  UNL     1      41.601  14.343  84.533  1.00  0.00    -0.238 OA
ENDROOT
BRANCH   1   9
HETATM    9  C2  UNL     1      38.415  13.489  85.003  1.00  0.00     0.002 C 
HETATM   10  C1  UNL     1      39.285  12.330  84.732  1.00  0.00     0.011 C 
HETATM   11  C3  UNL     1      37.743  13.922  83.721  1.00  0.00     0.011 C 
ENDBRANCH   1   9
BRANCH   7  12
HETATM   12  O2  UNL     1      41.568  16.134  83.136  1.00  0.00    -0.298 OA
BRANCH  12  13
HETATM   13  C15 UNL     1      42.945  16.119  82.919  1.00  0.00     0.142 C 
HETATM   14  C16 UNL     1      43.388  16.914  81.723  1.00  0.00     0.016 C 
HETATM   15  C17 UNL     1      44.900  17.135  81.861  1.00  0.00     0.012 C 
HETATM   16  C21 UNL     1      43.181  16.202  80.423  1.00  0.00     0.012 C 
HETATM   17  C18 UNL     1      45.600  15.795  81.947  1.00  0.00    -0.013 C 
HETATM   18  C19 UNL     1      45.393  15.097  80.624  1.00  0.00     0.009 C 
HETATM   19  C24 UNL     1      45.052  14.929  83.064  1.00  0.00     0.012 C 
HETATM   20  C20 UNL     1      43.911  14.882  80.421  1.00  0.00    -0.013 C 
HETATM   21  C22 UNL     1      43.358  14.040  81.549  1.00  0.00     0.012 C 
HETATM   22  C23 UNL     1      43.544  14.740  82.856  1.00  0.00     0.016 C 
ENDBRANCH  12  13
ENDBRANCH   7  12
BRANCH   3  23
HETATM   23  C6  UNL     1      37.292  17.409  87.361  1.00  0.00     0.223 C 
HETATM   24  C7  UNL     1      36.298  18.230  86.551  1.00  0.00     0.036 C 
HETATM   25  C8  UNL     1      34.930  18.221  87.236  1.00  0.00     0.002 C 
HETATM   26  C9  UNL     1      34.310  16.859  87.098  1.00  0.00     0.000 C 
HETATM   27  C10 UNL     1      35.395  15.784  87.193  1.00  0.00     0.002 C 
HETATM   28  C11 UNL     1      36.499  16.363  88.085  1.00  0.00     0.036 C 
ENDBRANCH   3  23
TORSDOF 4
ENDMDL
MODEL 2
REMARK VINA RESULT: -9.699232456      2.082      7.929
REMARK  4 active torsions:
REMARK  status: ('A' for Active; 'I' for Inactive)
REMARK    1  A    between atoms: C2_2  and  C4_4 
REMARK    2  A    between atoms: N1_6  and  C6_7 
REMARK       I    between atoms: N2_15  and  C14_16 
REMARK    3  A    between atoms: C14_16  and  O2_18 
REMARK    4  A    between atoms: O2_18  and  C15_19 
ROOT
HETATM    1  C4  UNL     1      43.974  15.620  83.028  1.00  0.00     0.121 C 
HETATM    2  C5  UNL     1      44.372  14.474  82.154  1.00  0.00     0.298 C 
HETATM    3  N1  UNL     1      43.503  13.336  82.209  1.00  0.00     0.096 N 
HETATM    4  C12 UNL     1      42.114  13.553  82.147  1.00  0.00     0.293 C 
HETATM    5  C13 UNL     1      41.628  14.702  82.956  1.00  0.00     0.159 C 
HETATM    6  N2  UNL     1      42.673  15.404  83.659  1.00  0.00    -0.320 N 
HETATM    7  C14 UNL     1      42.371  15.859  84.968  1.00  0.00     0.363 C 
HETATM    8  O1  UNL     1      43.288  16.467  85.575  1.00  0.00    -0.238 OA
ENDROOT
BRANCH   1   9
HETATM    9  C2  UNL     1      44.065  16.961  82.373  1.00  0.00     0.002 C 
HETATM   10  C1  UNL     1      42.786  17.597  82.006  1.00  0.00     0.011 C 
HETATM   11  C3  UNL     1      44.931  16.828  81.142  1.00  0.00     0.011 C 
ENDBRANCH   1   9
BRANCH   7  12
HETATM   12  O2  UNL     1      41.159  15.673  85.586  1.00  0.00    -0.298 OA
BRANCH  12  13
HETATM   13  C15 UNL     1      39.968  15.612  84.865  1.00  0.00     0.142 C 
HETATM   14  C16 UNL     1      39.118  16.848  84.975  1.00  0.00     0.016 C 
HETATM   15  C17 UNL     1      38.090  16.794  83.838  1.00  0.00     0.012 C 
HETATM   16  C21 UNL     1      38.336  16.921  86.250  1.00  0.00     0.012 C 
HETATM   17  C18 UNL     1      37.273  15.525  83.956  1.00  0.00    -0.013 C 
HETATM   18  C19 UNL     1      36.480  15.622  85.237  1.00  0.00     0.009 C 
HETATM   19  C24 UNL     1      38.138  14.282  83.993  1.00  0.00     0.012 C 
HETATM   20  C20 UNL     1      37.447  15.711  86.395  1.00  0.00    -0.013 C 
HETATM   21  C22 UNL     1      38.330  14.483  86.417  1.00  0.00     0.012 C 
HETATM   22  C23 UNL     1      39.130  14.398  85.158  1.00  0.00     0.016 C 
ENDBRANCH  12  13
ENDBRANCH   7  12
BRANCH   3  23
HETATM   23  C6  UNL     1      43.995  12.391  81.233  1.00  0.00     0.223 C 
HETATM   24  C7  UNL     1      42.873  11.393  80.978  1.00  0.00     0.036 C 
HETATM   25  C8  UNL     1      42.967  10.853  79.549  1.00  0.00     0.002 C 
HETATM   26  C9  UNL     1      42.575  11.934  78.581  1.00  0.00     0.000 C 
HETATM   27  C10 UNL     1      43.070  13.290  79.088  1.00  0.00     0.002 C 
HETATM   28  C11 UNL     1      44.332  13.008  79.910  1.00  0.00     0.036 C 
ENDBRANCH   3  23
TORSDOF 4
ENDMDL
MODEL 3
REMARK VINA RESULT: -9.555329889      0.466      1.598
REMARK  4 active torsions:
REMARK  status: ('A' for Active; 'I' for Inactive)
REMARK    1  A    between atoms: C2_2  and  C4_4 
REMARK    2  A    between atoms: N1_6  and  C6_7 
REMARK       I    between atoms: N2_15  and  C14_16 
REMARK    3  A    between atoms: C14_16  and  O2_18 
REMARK    4  A    between atoms: O2_18  and  C15_19 
ROOT
HETATM    1  C4  UNL     1      39.039  14.594  85.644  1.00  0.00     0.121 C 
HETATM    2  C5  UNL     1      38.178  15.380  86.580  1.00  0.00     0.298 C 
HETATM    3  N1  UNL     1      38.286  16.803  86.457  1.00  0.00     0.096 N 
HETATM    4  C12 UNL     1      38.264  17.366  85.167  1.00  0.00     0.293 C 
HETATM    5  C13 UNL     1      39.062  16.627  84.154  1.00  0.00     0.159 C 
HETATM    6  N2  UNL     1      39.716  15.450  84.670  1.00  0.00    -0.320 N 
HETATM    7  C14 UNL     1      41.023  15.181  84.191  1.00  0.00     0.363 C 
HETATM    8  O1  UNL     1      41.587  14.155  84.649  1.00  0.00    -0.238 OA
ENDROOT
BRANCH   1   9
HETATM    9  C2  UNL     1      38.352  13.437  84.992  1.00  0.00     0.002 C 
HETATM   10  C1  UNL     1      39.188  12.257  84.706  1.00  0.00     0.011 C 
HETATM   11  C3  UNL     1      37.717  13.924  83.711  1.00  0.00     0.011 C 
ENDBRANCH   1   9
BRANCH   7  12
HETATM   12  O2  UNL     1      41.684  15.964  83.277  1.00  0.00    -0.298 OA
BRANCH  12  13
HETATM   13  C15 UNL     1      42.532  15.415  82.317  1.00  0.00     0.142 C 
HETATM   14  C16 UNL     1      43.668  14.612  82.886  1.00  0.00     0.016 C 
HETATM   15  C17 UNL     1      44.240  13.763  81.743  1.00  0.00     0.012 C 
HETATM   16  C21 UNL     1      44.797  15.454  83.393  1.00  0.00     0.012 C 
HETATM   17  C18 UNL     1      44.688  14.668  80.617  1.00  0.00    -0.013 C 
HETATM   18  C19 UNL     1      45.836  15.499  81.140  1.00  0.00     0.009 C 
HETATM   19  C24 UNL     1      43.581  15.585  80.137  1.00  0.00     0.012 C 
HETATM   20  C20 UNL     1      45.334  16.336  82.294  1.00  0.00    -0.013 C 
HETATM   21  C22 UNL     1      44.211  17.233  81.823  1.00  0.00     0.012 C 
HETATM   22  C23 UNL     1      43.068  16.411  81.324  1.00  0.00     0.016 C 
ENDBRANCH  12  13
ENDBRANCH   7  12
BRANCH   3  23
HETATM   23  C6  UNL     1      37.317  17.373  87.363  1.00  0.00     0.223 C 
HETATM   24  C7  UNL     1      36.350  18.195  86.521  1.00  0.00     0.036 C 
HETATM   25  C8  UNL     1      34.970  18.219  87.180  1.00  0.00     0.002 C 
HETATM   26  C9  UNL     1      34.332  16.864  87.054  1.00  0.00     0.000 C 
HETATM   27  C10 UNL     1      35.399  15.775  87.187  1.00  0.00     0.002 C 
HETATM   28  C11 UNL     1      36.494  16.352  88.090  1.00  0.00     0.036 C 
ENDBRANCH   3  23
TORSDOF 4
ENDMDL
MODEL 4
REMARK VINA RESULT: -9.554341812      1.194      1.783
REMARK  4 active torsions:
REMARK  status: ('A' for Active; 'I' for Inactive)
REMARK    1  A    between atoms: C2_2  and  C4_4 
REMARK    2  A    between atoms: N1_6  and  C6_7 
REMARK       I    between atoms: N2_15  and  C14_16 
REMARK    3  A    between atoms: C14_16  and  O2_18 
REMARK    4  A    between atoms: O2_18  and  C15_19 
ROOT
HETATM    1  C4  UNL     1      40.392  14.463  85.175  1.00  0.00     0.121 C 
HETATM    2  C5  UNL     1      38.976  14.858  85.445  1.00  0.00     0.298 C 
HETATM    3  N1  UNL     1      38.644  16.209  85.102  1.00  0.00     0.096 N 
HETATM    4  C12 UNL     1      39.074  16.706  83.857  1.00  0.00     0.293 C 
HETATM    5  C13 UNL     1      40.462  16.329  83.483  1.00  0.00     0.159 C 
HETATM    6  N2  UNL     1      41.128  15.506  84.462  1.00  0.00    -0.320 N 
HETATM    7  C14 UNL     1      42.503  15.766  84.688  1.00  0.00     0.363 C 
HETATM    8  O1  UNL     1      43.075  15.046  85.546  1.00  0.00    -0.238 OA
ENDROOT
BRANCH   1   9
HETATM    9  C2  UNL     1      40.551  13.123  84.530  1.00  0.00     0.002 C 
HETATM   10  C1  UNL     1      40.846  13.124  83.085  1.00  0.00     0.011 C 
HETATM   11  C3  UNL     1      39.295  12.324  84.785  1.00  0.00     0.011 C 
ENDBRANCH   1   9
BRANCH   7  12
HETATM   12  O2  UNL     1      43.221  16.737  84.034  1.00  0.00    -0.298 OA
BRANCH  12  13
HETATM   13  C15 UNL     1      44.306  16.422  83.218  1.00  0.00     0.142 C 
HETATM   14  C16 UNL     1      44.185  16.934  81.810  1.00  0.00     0.016 C 
HETATM   15  C17 UNL     1      45.585  16.874  81.184  1.00  0.00     0.012 C 
HETATM   16  C21 UNL     1      43.299  16.094  80.944  1.00  0.00     0.012 C 
HETATM   17  C18 UNL     1      46.099  15.451  81.232  1.00  0.00    -0.013 C 
HETATM   18  C19 UNL     1      45.203  14.622  80.344  1.00  0.00     0.009 C 
HETATM   19  C24 UNL     1      46.084  14.880  82.636  1.00  0.00     0.012 C 
HETATM   20  C20 UNL     1      43.798  14.672  80.898  1.00  0.00    -0.013 C 
HETATM   21  C22 UNL     1      43.786  14.126  82.308  1.00  0.00     0.012 C 
HETATM   22  C23 UNL     1      44.656  14.959  83.192  1.00  0.00     0.016 C 
ENDBRANCH  12  13
ENDBRANCH   7  12
BRANCH   3  23
HETATM   23  C6  UNL     1      37.228  16.362  85.339  1.00  0.00     0.223 C 
HETATM   24  C7  UNL     1      36.849  15.363  86.424  1.00  0.00     0.036 C 
HETATM   25  C8  UNL     1      35.666  15.896  87.236  1.00  0.00     0.002 C 
HETATM   26  C9  UNL     1      36.124  17.042  88.093  1.00  0.00     0.000 C 
HETATM   27  C10 UNL     1      37.171  17.867  87.339  1.00  0.00     0.002 C 
HETATM   28  C11 UNL     1      36.845  17.719  85.849  1.00  0.00     0.036 C 
ENDBRANCH   3  23
TORSDOF 4
ENDMDL
MODEL 5
REMARK VINA RESULT: -9.345867963      2.055      8.116
REMARK  4 active torsions:
REMARK  status: ('A' for Active; 'I' for Inactive)
REMARK    1  A    between atoms: C2_2  and  C4_4 
REMARK    2  A    between atoms: N1_6  and  C6_7 
REMARK       I    between atoms: N2_15  and  C14_16 
REMARK    3  A    between atoms: C14_16  and  O2_18 
REMARK    4  A    between atoms: O2_18  and  C15_19 
ROOT
HETATM    1  C4  UNL     1      43.563  15.433  83.195  1.00  0.00     0.121 C 
HETATM    2  C5  UNL     1      44.092  14.365  82.292  1.00  0.00     0.298 C 
HETATM    3  N1  UNL     1      43.263  13.203  82.173  1.00  0.00     0.096 N 
HETATM    4  C12 UNL     1      41.881  13.385  81.975  1.00  0.00     0.293 C 
HETATM    5  C13 UNL     1      41.271  14.459  82.803  1.00  0.00     0.159 C 
HETATM    6  N2  UNL     1      42.210  15.136  83.664  1.00  0.00    -0.320 N 
HETATM    7  C14 UNL     1      41.753  15.486  84.960  1.00  0.00     0.363 C 
HETATM    8  O1  UNL     1      42.578  16.073  85.704  1.00  0.00    -0.238 OA
ENDROOT
BRANCH   1   9
HETATM    9  C2  UNL     1      43.676  16.820  82.648  1.00  0.00     0.002 C 
HETATM   10  C1  UNL     1      42.409  17.496  82.314  1.00  0.00     0.011 C 
HETATM   11  C3  UNL     1      44.559  16.775  81.424  1.00  0.00     0.011 C 
ENDBRANCH   1   9
BRANCH   7  12
HETATM   12  O2  UNL     1      40.489  15.223  85.428  1.00  0.00    -0.298 OA
BRANCH  12  13
HETATM   13  C15 UNL     1      39.509  16.211  85.490  1.00  0.00     0.142 C 
HETATM   14  C16 UNL     1      38.796  16.288  86.812  1.00  0.00     0.016 C 
HETATM   15  C17 UNL     1      38.074  17.641  86.859  1.00  0.00     0.012 C 
HETATM   16  C21 UNL     1      37.742  15.239  86.982  1.00  0.00     0.012 C 
HETATM   17  C18 UNL     1      37.120  17.744  85.689  1.00  0.00    -0.013 C 
HETATM   18  C19 UNL     1      36.056  16.691  85.884  1.00  0.00     0.009 C 
HETATM   19  C24 UNL     1      37.811  17.521  84.359  1.00  0.00     0.012 C 
HETATM   20  C20 UNL     1      36.719  15.333  85.878  1.00  0.00    -0.013 C 
HETATM   21  C22 UNL     1      37.432  15.119  84.561  1.00  0.00     0.012 C 
HETATM   22  C23 UNL     1      38.498  16.149  84.377  1.00  0.00     0.016 C 
ENDBRANCH  12  13
ENDBRANCH   7  12
BRANCH   3  23
HETATM   23  C6  UNL     1      43.888  12.345  81.194  1.00  0.00     0.223 C 
HETATM   24  C7  UNL     1      42.896  11.234  80.878  1.00  0.00     0.036 C 
HETATM   25  C8  UNL     1      43.095  10.746  79.441  1.00  0.00     0.002 C 
HETATM   26  C9  UNL     1      42.613  11.801  78.484  1.00  0.00     0.000 C 
HETATM   27  C10 UNL     1      42.935  13.190  79.039  1.00  0.00     0.002 C 
HETATM   28  C11 UNL     1      44.195  13.031  79.897  1.00  0.00     0.036 C 
ENDBRANCH   3  23
TORSDOF 4
ENDMDL
