MODEL 1
REMARK VINA RESULT: -8.420163789      0.000      0.000
REMARK  6 active torsions:
REMARK  status: ('A' for Active; 'I' for Inactive)
REMARK    1  A    between atoms: C3_4  and  C4_5 
REMARK    2  A    between atoms: C4_5  and  C5_6 
REMARK    3  A    between atoms: C5_6  and  C6_7 
REMARK    4  A    between atoms: C6_7  and  N1_8 
REMARK    5  A    between atoms: C11_13  and  N2_14 
REMARK    6  A    between atoms: N2_14  and  C12_16 
ROOT
HETATM    1  C1  UNL     1      43.056  15.880  84.642  1.00  0.00     0.057 C 
HETATM    2  C2  UNL     1      41.561  15.706  84.813  1.00  0.00    -0.011 A 
HETATM    3  S1  UNL     1      40.504  16.786  85.657  1.00  0.00    -0.085 SA
HETATM    4  C3  UNL     1      39.055  15.949  85.447  1.00  0.00     0.065 A 
HETATM    5  C9  UNL     1      39.406  14.842  84.729  1.00  0.00    -0.023 A 
HETATM    6  C10 UNL     1      40.721  14.720  84.396  1.00  0.00    -0.015 A 
HETATM    7  C11 UNL     1      41.035  13.480  83.543  1.00  0.00     0.112 C 
HETATM    8  C22 UNL     1      40.573  12.258  84.262  1.00  0.00     0.030 C 
HETATM    9  C23 UNL     1      39.197  12.471  84.912  1.00  0.00     0.007 C 
HETATM   10  C24 UNL     1      38.516  13.682  84.283  1.00  0.00     0.041 C 
ENDROOT
BRANCH   7  11
HETATM   11  N2  UNL     1      42.328  13.559  83.042  1.00  0.00    -0.404 N 
ATOM     12  H2  UNL     1      43.072  13.836  83.682  1.00  0.00     0.154 HD
BRANCH  11  13
HETATM   13  C12 UNL     1      42.676  13.281  81.704  1.00  0.00     0.027 C 
HETATM   14  C13 UNL     1      43.533  12.128  81.379  1.00  0.00     0.035 C 
HETATM   15  C14 UNL     1      43.960  12.224  79.903  1.00  0.00    -0.012 C 
HETATM   16  C15 UNL     1      44.654  13.499  79.574  1.00  0.00     0.009 C 
HETATM   17  C19 UNL     1      42.707  12.008  79.080  1.00  0.00     0.009 C 
HETATM   18  C16 UNL     1      43.648  14.623  79.794  1.00  0.00    -0.012 C 
HETATM   19  C17 UNL     1      42.459  14.419  78.912  1.00  0.00     0.009 C 
HETATM   20  C21 UNL     1      43.330  14.610  81.241  1.00  0.00     0.035 C 
HETATM   21  C18 UNL     1      41.761  13.157  79.378  1.00  0.00    -0.012 C 
HETATM   22  C20 UNL     1      41.416  13.180  80.831  1.00  0.00     0.035 C 
ENDBRANCH  11  13
ENDBRANCH   7  11
BRANCH   4  23
HETATM   23  C4  UNL     1      37.724  16.327  85.899  1.00  0.00    -0.057 C 
BRANCH  23  24
HETATM   24  C5  UNL     1      36.625  16.637  86.306  1.00  0.00    -0.070 C 
BRANCH  24  25
HETATM   25  C6  UNL     1      35.332  17.004  86.824  1.00  0.00     0.365 C 
BRANCH  25  26
HETATM   26  N1  UNL     1      35.372  17.908  87.924  1.00  0.00     0.090 N 
HETATM   27  C7  UNL     1      34.421  17.642  88.960  1.00  0.00     0.310 C 
HETATM   28  C8  UNL     1      35.099  19.259  87.415  1.00  0.00     0.310 C 
ENDBRANCH  25  26
ENDBRANCH  24  25
ENDBRANCH  23  24
ENDBRANCH   4  23
TORSDOF 6
ENDMDL
MODEL 2
REMARK VINA RESULT: -8.325900893      0.570      1.630
REMARK  6 active torsions:
REMARK  status: ('A' for Active; 'I' for Inactive)
REMARK    1  A    between atoms: C3_4  and  C4_5 
REMARK    2  A    between atoms: C4_5  and  C5_6 
REMARK    3  A    between atoms: C5_6  and  C6_7 
REMARK    4  A    between atoms: C6_7  and  N1_8 
REMARK    5  A    between atoms: C11_13  and  N2_14 
REMARK    6  A    between atoms: N2_14  and  C12_16 
ROOT
HETATM    1  C1  UNL     1      43.303  15.499  84.474  1.00  0.00     0.057 C 
HETATM    2  C2  UNL     1      41.809  15.540  84.722  1.00  0.00    -0.011 A 
HETATM    3  S1  UNL     1      40.958  16.772  85.592  1.00  0.00    -0.085 SA
HETATM    4  C3  UNL     1      39.398  16.143  85.473  1.00  0.00     0.065 A 
HETATM    5  C9  UNL     1      39.553  14.988  84.763  1.00  0.00    -0.023 A 
HETATM    6  C10 UNL     1      40.818  14.676  84.369  1.00  0.00    -0.015 A 
HETATM    7  C11 UNL     1      40.912  13.391  83.530  1.00  0.00     0.112 C 
HETATM    8  C22 UNL     1      40.321  12.258  84.298  1.00  0.00     0.030 C 
HETATM    9  C23 UNL     1      39.024  12.672  85.010  1.00  0.00     0.007 C 
HETATM   10  C24 UNL     1      38.487  13.957  84.388  1.00  0.00     0.041 C 
ENDROOT
BRANCH   7  11
HETATM   11  N2  UNL     1      42.175  13.280  82.964  1.00  0.00    -0.404 N 
ATOM     12  H2  UNL     1      42.970  13.157  83.592  1.00  0.00     0.154 HD
BRANCH  11  13
HETATM   13  C12 UNL     1      42.428  13.326  81.578  1.00  0.00     0.027 C 
HETATM   14  C13 UNL     1      41.317  13.256  80.613  1.00  0.00     0.035 C 
HETATM   15  C14 UNL     1      41.894  13.060  79.200  1.00  0.00    -0.012 C 
HETATM   16  C15 UNL     1      42.763  11.858  79.082  1.00  0.00     0.009 C 
HETATM   17  C19 UNL     1      42.618  14.344  78.851  1.00  0.00     0.009 C 
HETATM   18  C16 UNL     1      43.961  12.082  79.998  1.00  0.00    -0.012 C 
HETATM   19  C17 UNL     1      44.695  13.314  79.579  1.00  0.00     0.009 C 
HETATM   20  C21 UNL     1      43.417  12.148  81.374  1.00  0.00     0.035 C 
HETATM   21  C18 UNL     1      43.775  14.495  79.823  1.00  0.00    -0.012 C 
HETATM   22  C20 UNL     1      43.268  14.562  81.225  1.00  0.00     0.035 C 
ENDBRANCH  11  13
ENDBRANCH   7  11
BRANCH   4  23
HETATM   23  C4  UNL     1      38.158  16.712  85.981  1.00  0.00    -0.057 C 
BRANCH  23  24
HETATM   24  C5  UNL     1      37.131  17.172  86.433  1.00  0.00    -0.070 C 
BRANCH  24  25
HETATM   25  C6  UNL     1      35.915  17.696  86.999  1.00  0.00     0.365 C 
BRANCH  25  26
HETATM   26  N1  UNL     1      35.426  16.970  88.123  1.00  0.00     0.090 N 
HETATM   27  C7  UNL     1      35.616  15.553  88.056  1.00  0.00     0.310 C 
HETATM   28  C8  UNL     1      33.982  17.213  88.231  1.00  0.00     0.310 C 
ENDBRANCH  25  26
ENDBRANCH  24  25
ENDBRANCH  23  24
ENDBRANCH   4  23
TORSDOF 6
ENDMDL
MODEL 3
REMARK VINA RESULT: -8.281941258      0.210      1.441
REMARK  6 active torsions:
REMARK  status: ('A' for Active; 'I' for Inactive)
REMARK    1  A    between atoms: C3_4  and  C4_5 
REMARK    2  A    between atoms: C4_5  and  C5_6 
REMARK    3  A    between atoms: C5_6  and  C6_7 
REMARK    4  A    between atoms: C6_7  and  N1_8 
REMARK    5  A    between atoms: C11_13  and  N2_14 
REMARK    6  A    between atoms: N2_14  and  C12_16 
ROOT
HETATM    1  C1  UNL     1      43.151  15.974  84.726  1.00  0.00     0.057 C 
HETATM    2  C2  UNL     1      41.657  15.762  84.864  1.00  0.00    -0.011 A 
HETATM    3  S1  UNL     1      40.558  16.802  85.705  1.00  0.00    -0.085 SA
HETATM    4  C3  UNL     1      39.134  15.934  85.451  1.00  0.00     0.065 A 
HETATM    5  C9  UNL     1      39.526  14.849  84.720  1.00  0.00    -0.023 A 
HETATM    6  C10 UNL     1      40.849  14.764  84.412  1.00  0.00    -0.015 A 
HETATM    7  C11 UNL     1      41.210  13.547  83.544  1.00  0.00     0.112 C 
HETATM    8  C22 UNL     1      40.763  12.302  84.231  1.00  0.00     0.030 C 
HETATM    9  C23 UNL     1      39.370  12.471  84.857  1.00  0.00     0.007 C 
HETATM   10  C24 UNL     1      38.673  13.676  84.236  1.00  0.00     0.041 C 
ENDROOT
BRANCH   7  11
HETATM   11  N2  UNL     1      42.510  13.666  83.070  1.00  0.00    -0.404 N 
ATOM     12  H2  UNL     1      43.256  13.804  83.752  1.00  0.00     0.154 HD
BRANCH  11  13
HETATM   13  C12 UNL     1      42.863  13.610  81.706  1.00  0.00     0.027 C 
HETATM   14  C13 UNL     1      43.510  14.761  81.054  1.00  0.00     0.035 C 
HETATM   15  C14 UNL     1      43.536  14.524  79.533  1.00  0.00    -0.012 C 
HETATM   16  C15 UNL     1      42.186  14.286  78.953  1.00  0.00     0.009 C 
HETATM   17  C19 UNL     1      44.488  13.370  79.296  1.00  0.00     0.009 C 
HETATM   18  C16 UNL     1      41.656  12.997  79.571  1.00  0.00    -0.012 C 
HETATM   19  C17 UNL     1      42.580  11.866  79.254  1.00  0.00     0.009 C 
HETATM   20  C21 UNL     1      41.515  13.266  81.021  1.00  0.00     0.035 C 
HETATM   21  C18 UNL     1      43.893  12.142  79.960  1.00  0.00    -0.012 C 
HETATM   22  C20 UNL     1      43.731  12.373  81.427  1.00  0.00     0.035 C 
ENDBRANCH  11  13
ENDBRANCH   7  11
BRANCH   4  23
HETATM   23  C4  UNL     1      37.785  16.272  85.882  1.00  0.00    -0.057 C 
BRANCH  23  24
HETATM   24  C5  UNL     1      36.673  16.556  86.272  1.00  0.00    -0.070 C 
BRANCH  24  25
HETATM   25  C6  UNL     1      35.367  16.916  86.760  1.00  0.00     0.365 C 
BRANCH  25  26
HETATM   26  N1  UNL     1      35.377  17.793  87.883  1.00  0.00     0.090 N 
HETATM   27  C7  UNL     1      34.383  17.516  88.875  1.00  0.00     0.310 C 
HETATM   28  C8  UNL     1      35.142  19.159  87.398  1.00  0.00     0.310 C 
ENDBRANCH  25  26
ENDBRANCH  24  25
ENDBRANCH  23  24
ENDBRANCH   4  23
TORSDOF 6
ENDMDL
MODEL 4
REMARK VINA RESULT: -7.979865822      0.552      1.617
REMARK  6 active torsions:
REMARK  status: ('A' for Active; 'I' for Inactive)
REMARK    1  A    between atoms: C3_4  and  C4_5 
REMARK    2  A    between atoms: C4_5  and  C5_6 
REMARK    3  A    between atoms: C5_6  and  C6_7 
REMARK    4  A    between atoms: C6_7  and  N1_8 
REMARK    5  A    between atoms: C11_13  and  N2_14 
REMARK    6  A    between atoms: N2_14  and  C12_16 
ROOT
HETATM    1  C1  UNL     1      42.490  16.081  84.813  1.00  0.00     0.057 C 
HETATM    2  C2  UNL     1      41.008  15.802  84.963  1.00  0.00    -0.011 A 
HETATM    3  S1  UNL     1      39.888  16.739  85.893  1.00  0.00    -0.085 SA
HETATM    4  C3  UNL     1      38.494  15.835  85.606  1.00  0.00     0.065 A 
HETATM    5  C9  UNL     1      38.911  14.818  84.796  1.00  0.00    -0.023 A 
HETATM    6  C10 UNL     1      40.230  14.806  84.459  1.00  0.00    -0.015 A 
HETATM    7  C11 UNL     1      40.619  13.665  83.504  1.00  0.00     0.112 C 
HETATM    8  C22 UNL     1      40.234  12.360  84.113  1.00  0.00     0.030 C 
HETATM    9  C23 UNL     1      38.849  12.432  84.774  1.00  0.00     0.007 C 
HETATM   10  C24 UNL     1      38.093  13.648  84.249  1.00  0.00     0.041 C 
ENDROOT
BRANCH   7  11
HETATM   11  N2  UNL     1      41.903  13.867  83.016  1.00  0.00    -0.404 N 
ATOM     12  H2  UNL     1      42.609  14.222  83.662  1.00  0.00     0.154 HD
BRANCH  11  13
HETATM   13  C12 UNL     1      42.293  13.612  81.685  1.00  0.00     0.027 C 
HETATM   14  C13 UNL     1      41.284  13.312  80.656  1.00  0.00     0.035 C 
HETATM   15  C14 UNL     1      41.998  12.822  79.383  1.00  0.00    -0.012 C 
HETATM   16  C15 UNL     1      42.870  11.639  79.619  1.00  0.00     0.009 C 
HETATM   17  C19 UNL     1      42.759  14.011  78.834  1.00  0.00     0.009 C 
HETATM   18  C16 UNL     1      43.972  12.081  80.577  1.00  0.00    -0.012 C 
HETATM   19  C17 UNL     1      44.749  13.204  79.971  1.00  0.00     0.009 C 
HETATM   20  C21 UNL     1      43.293  12.437  81.844  1.00  0.00     0.035 C 
HETATM   21  C18 UNL     1      43.814  14.392  79.857  1.00  0.00    -0.012 C 
HETATM   22  C20 UNL     1      43.170  14.757  81.154  1.00  0.00     0.035 C 
ENDBRANCH  11  13
ENDBRANCH   7  11
BRANCH   4  23
HETATM   23  C4  UNL     1      37.142  16.090  86.084  1.00  0.00    -0.057 C 
BRANCH  23  24
HETATM   24  C5  UNL     1      36.029  16.318  86.507  1.00  0.00    -0.070 C 
BRANCH  24  25
HETATM   25  C6  UNL     1      34.693  16.583  86.975  1.00  0.00     0.365 C 
BRANCH  25  26
HETATM   26  N1  UNL     1      34.539  17.831  87.644  1.00  0.00     0.090 N 
HETATM   27  C7  UNL     1      35.397  18.877  87.177  1.00  0.00     0.310 C 
HETATM   28  C8  UNL     1      34.836  17.626  89.068  1.00  0.00     0.310 C 
ENDBRANCH  25  26
ENDBRANCH  24  25
ENDBRANCH  23  24
ENDBRANCH   4  23
TORSDOF 6
ENDMDL
MODEL 5
REMARK VINA RESULT: -6.103359332      1.804      3.130
REMARK  6 active torsions:
REMARK  status: ('A' for Active; 'I' for Inactive)
REMARK    1  A    between atoms: C3_4  and  C4_5 
REMARK    2  A    between atoms: C4_5  and  C5_6 
REMARK    3  A    between atoms: C5_6  and  C6_7 
REMARK    4  A    between atoms: C6_7  and  N1_8 
REMARK    5  A    between atoms: C11_13  and  N2_14 
REMARK    6  A    between atoms: N2_14  and  C12_16 
ROOT
HETATM    1  C1  UNL     1      41.264  12.067  83.418  1.00  0.00     0.057 C 
HETATM    2  C2  UNL     1      40.442  13.084  84.182  1.00  0.00    -0.011 A 
HETATM    3  S1  UNL     1      38.909  12.793  84.932  1.00  0.00    -0.085 SA
HETATM    4  C3  UNL     1      38.620  14.340  85.540  1.00  0.00     0.065 A 
HETATM    5  C9  UNL     1      39.712  15.063  85.155  1.00  0.00    -0.023 A 
HETATM    6  C10 UNL     1      40.667  14.401  84.446  1.00  0.00    -0.015 A 
HETATM    7  C11 UNL     1      41.890  15.261  84.091  1.00  0.00     0.112 C 
HETATM    8  C22 UNL     1      41.442  16.470  83.342  1.00  0.00     0.030 C 
HETATM    9  C23 UNL     1      40.171  17.076  83.956  1.00  0.00     0.007 C 
HETATM   10  C24 UNL     1      39.988  16.551  85.377  1.00  0.00     0.041 C 
ENDROOT
BRANCH   7  11
HETATM   11  N2  UNL     1      42.911  14.461  83.596  1.00  0.00    -0.404 N 
ATOM     12  H2  UNL     1      43.096  13.575  84.068  1.00  0.00     0.154 HD
BRANCH  11  13
HETATM   13  C12 UNL     1      43.709  14.795  82.482  1.00  0.00     0.027 C 
HETATM   14  C13 UNL     1      43.128  14.826  81.130  1.00  0.00     0.035 C 
HETATM   15  C14 UNL     1      44.264  14.955  80.100  1.00  0.00    -0.012 C 
HETATM   16  C15 UNL     1      45.278  13.870  80.206  1.00  0.00     0.009 C 
HETATM   17  C19 UNL     1      44.860  16.335  80.288  1.00  0.00     0.009 C 
HETATM   18  C16 UNL     1      45.934  14.006  81.576  1.00  0.00    -0.012 C 
HETATM   19  C17 UNL     1      46.575  15.350  81.700  1.00  0.00     0.009 C 
HETATM   20  C21 UNL     1      44.862  13.761  82.569  1.00  0.00     0.035 C 
HETATM   21  C18 UNL     1      45.467  16.384  81.679  1.00  0.00    -0.012 C 
HETATM   22  C20 UNL     1      44.417  16.139  82.712  1.00  0.00     0.035 C 
ENDBRANCH  11  13
ENDBRANCH   7  11
BRANCH   4  23
HETATM   23  C4  UNL     1      37.484  14.800  86.325  1.00  0.00    -0.057 C 
BRANCH  23  24
HETATM   24  C5  UNL     1      36.557  15.203  86.995  1.00  0.00    -0.070 C 
BRANCH  24  25
HETATM   25  C6  UNL     1      35.480  15.700  87.812  1.00  0.00     0.365 C 
BRANCH  25  26
HETATM   26  N1  UNL     1      35.049  17.017  87.482  1.00  0.00     0.090 N 
HETATM   27  C7  UNL     1      36.097  17.927  87.132  1.00  0.00     0.310 C 
HETATM   28  C8  UNL     1      34.356  17.577  88.650  1.00  0.00     0.310 C 
ENDBRANCH  25  26
ENDBRANCH  24  25
ENDBRANCH  23  24
ENDBRANCH   4  23
TORSDOF 6
ENDMDL
