MODEL 1
REMARK VINA RESULT: -8.771416028      0.000      0.000
REMARK  3 active torsions:
REMARK  status: ('A' for Active; 'I' for Inactive)
REMARK       I    between atoms: N1_4  and  C4_5 
REMARK    1  A    between atoms: C4_5  and  C5_7 
REMARK    2  A    between atoms: C13_16  and  C14_17 
REMARK       I    between atoms: C14_17  and  N2_19 
REMARK    3  A    between atoms: N2_19  and  C15_21 
ROOT
HETATM    1  C1  UNL     1      41.176  12.324  85.338  1.00  0.00     0.012 C 
HETATM    2  C2  UNL     1      41.748  13.610  84.787  1.00  0.00     0.004 C 
HETATM    3  C3  UNL     1      42.071  13.399  83.310  1.00  0.00     0.130 C 
HETATM    4  N1  UNL     1      42.875  14.475  82.810  1.00  0.00    -0.347 N 
HETATM    5  C4  UNL     1      43.344  14.364  81.500  1.00  0.00     0.260 C 
HETATM    6  O1  UNL     1      44.059  15.331  81.069  1.00  0.00    -0.267 OA
HETATM    7  C9  UNL     1      43.245  15.679  83.556  1.00  0.00     0.126 C 
HETATM    8  C10 UNL     1      42.041  16.570  83.703  1.00  0.00     0.025 C 
HETATM    9  C11 UNL     1      40.815  15.722  83.825  1.00  0.00    -0.008 C 
HETATM   10  C12 UNL     1      39.609  16.591  84.202  1.00  0.00     0.019 C 
HETATM   11  C13 UNL     1      38.601  15.523  84.566  1.00  0.00     0.078 C 
HETATM   12  C21 UNL     1      39.403  14.405  85.171  1.00  0.00     0.019 C 
HETATM   13  C22 UNL     1      40.872  14.791  85.015  1.00  0.00    -0.004 C 
ENDROOT
BRANCH  11  14
HETATM   14  C14 UNL     1      37.538  16.029  85.437  1.00  0.00     0.222 C 
HETATM   15  O2  UNL     1      36.345  15.743  85.121  1.00  0.00    -0.273 OA
HETATM   16  N2  UNL     1      37.737  16.804  86.595  1.00  0.00    -0.356 N 
ATOM     17  H2  UNL     1      38.698  17.032  86.849  1.00  0.00     0.162 HD
BRANCH  16  18
HETATM   18  C15 UNL     1      36.696  17.295  87.441  1.00  0.00     0.084 C 
HETATM   19  C16 UNL     1      35.801  16.174  87.854  1.00  0.00     0.025 C 
HETATM   20  C17 UNL     1      34.350  16.503  87.920  1.00  0.00     0.002 C 
HETATM   21  C18 UNL     1      34.057  17.877  88.468  1.00  0.00     0.000 C 
HETATM   22  C19 UNL     1      34.952  18.938  87.878  1.00  0.00     0.002 C 
HETATM   23  C20 UNL     1      35.871  18.382  86.812  1.00  0.00     0.025 C 
ENDBRANCH  16  18
ENDBRANCH  11  14
BRANCH   5  24
HETATM   24  C5  UNL     1      43.111  13.272  80.567  1.00  0.00     0.072 A 
HETATM   25  C6  UNL     1      43.796  12.079  80.484  1.00  0.00     0.025 A 
HETATM   26  C7  UNL     1      43.413  11.214  79.548  1.00  0.00     0.009 A 
HETATM   27  C8  UNL     1      42.370  11.559  78.734  1.00  0.00     0.050 A 
HETATM   28  S1  UNL     1      41.954  13.101  79.310  1.00  0.00    -0.097 SA
ENDBRANCH   5  24
TORSDOF 3
ENDMDL
MODEL 2
REMARK VINA RESULT: -8.622958061      0.772      1.205
REMARK  3 active torsions:
REMARK  status: ('A' for Active; 'I' for Inactive)
REMARK       I    between atoms: N1_4  and  C4_5 
REMARK    1  A    between atoms: C4_5  and  C5_7 
REMARK    2  A    between atoms: C13_16  and  C14_17 
REMARK       I    between atoms: C14_17  and  N2_19 
REMARK    3  A    between atoms: N2_19  and  C15_21 
ROOT
HETATM    1  C1  UNL     1      40.523  12.372  85.140  1.00  0.00     0.012 C 
HETATM    2  C2  UNL     1      41.393  13.541  84.737  1.00  0.00     0.004 C 
HETATM    3  C3  UNL     1      41.864  13.317  83.302  1.00  0.00     0.130 C 
HETATM    4  N1  UNL     1      42.914  14.234  82.966  1.00  0.00    -0.347 N 
HETATM    5  C4  UNL     1      43.524  14.075  81.721  1.00  0.00     0.260 C 
HETATM    6  O1  UNL     1      44.458  14.899  81.437  1.00  0.00    -0.267 OA
HETATM    7  C9  UNL     1      43.400  15.320  83.818  1.00  0.00     0.126 C 
HETATM    8  C10 UNL     1      42.374  16.421  83.863  1.00  0.00     0.025 C 
HETATM    9  C11 UNL     1      41.006  15.822  83.785  1.00  0.00    -0.008 C 
HETATM   10  C12 UNL     1      39.944  16.894  84.056  1.00  0.00     0.019 C 
HETATM   11  C13 UNL     1      38.716  16.029  84.231  1.00  0.00     0.078 C 
HETATM   12  C21 UNL     1      39.207  14.759  84.869  1.00  0.00     0.019 C 
HETATM   13  C22 UNL     1      40.730  14.861  84.919  1.00  0.00    -0.004 C 
ENDROOT
BRANCH  11  14
HETATM   14  C14 UNL     1      37.660  16.703  84.990  1.00  0.00     0.222 C 
HETATM   15  O2  UNL     1      37.535  17.952  84.825  1.00  0.00    -0.273 OA
HETATM   16  N2  UNL     1      36.775  16.073  85.884  1.00  0.00    -0.356 N 
ATOM     17  H2  UNL     1      36.875  15.066  86.015  1.00  0.00     0.162 HD
BRANCH  16  18
HETATM   18  C15 UNL     1      35.746  16.735  86.622  1.00  0.00     0.084 C 
HETATM   19  C16 UNL     1      36.089  18.177  86.797  1.00  0.00     0.025 C 
HETATM   20  C17 UNL     1      35.736  18.764  88.119  1.00  0.00     0.002 C 
HETATM   21  C18 UNL     1      34.419  18.281  88.674  1.00  0.00     0.000 C 
HETATM   22  C19 UNL     1      34.251  16.788  88.544  1.00  0.00     0.002 C 
HETATM   23  C20 UNL     1      35.481  16.122  87.969  1.00  0.00     0.025 C 
ENDBRANCH  16  18
ENDBRANCH  11  14
BRANCH   5  24
HETATM   24  C5  UNL     1      43.218  13.077  80.708  1.00  0.00     0.072 A 
HETATM   25  C6  UNL     1      43.498  11.728  80.746  1.00  0.00     0.025 A 
HETATM   26  C7  UNL     1      43.125  10.992  79.702  1.00  0.00     0.009 A 
HETATM   27  C8  UNL     1      42.490  11.616  78.664  1.00  0.00     0.050 A 
HETATM   28  S1  UNL     1      42.435  13.230  79.187  1.00  0.00    -0.097 SA
ENDBRANCH   5  24
TORSDOF 3
ENDMDL
MODEL 3
REMARK VINA RESULT: -7.738495130      1.049      1.171
REMARK  3 active torsions:
REMARK  status: ('A' for Active; 'I' for Inactive)
REMARK       I    between atoms: N1_4  and  C4_5 
REMARK    1  A    between atoms: C4_5  and  C5_7 
REMARK    2  A    between atoms: C13_16  and  C14_17 
REMARK       I    between atoms: C14_17  and  N2_19 
REMARK    3  A    between atoms: N2_19  and  C15_21 
ROOT
HETATM    1  C1  UNL     1      39.789  12.182  84.766  1.00  0.00     0.012 C 
HETATM    2  C2  UNL     1      40.921  13.178  84.659  1.00  0.00     0.004 C 
HETATM    3  C3  UNL     1      41.477  13.123  83.239  1.00  0.00     0.130 C 
HETATM    4  N1  UNL     1      42.725  13.825  83.158  1.00  0.00    -0.347 N 
HETATM    5  C4  UNL     1      43.411  13.766  81.943  1.00  0.00     0.260 C 
HETATM    6  O1  UNL     1      44.520  14.396  81.886  1.00  0.00    -0.267 OA
HETATM    7  C9  UNL     1      43.339  14.598  84.238  1.00  0.00     0.126 C 
HETATM    8  C10 UNL     1      42.568  15.874  84.446  1.00  0.00     0.025 C 
HETATM    9  C11 UNL     1      41.119  15.623  84.168  1.00  0.00    -0.008 C 
HETATM   10  C12 UNL     1      40.284  16.839  84.589  1.00  0.00     0.019 C 
HETATM   11  C13 UNL     1      38.891  16.256  84.514  1.00  0.00     0.078 C 
HETATM   12  C21 UNL     1      39.037  14.813  84.909  1.00  0.00     0.019 C 
HETATM   13  C22 UNL     1      40.535  14.557  85.067  1.00  0.00    -0.004 C 
ENDROOT
BRANCH  11  14
HETATM   14  C14 UNL     1      37.928  16.998  85.331  1.00  0.00     0.222 C 
HETATM   15  O2  UNL     1      37.490  18.090  84.861  1.00  0.00    -0.273 OA
HETATM   16  N2  UNL     1      37.452  16.595  86.592  1.00  0.00    -0.356 N 
ATOM     17  H2  UNL     1      37.804  15.715  86.969  1.00  0.00     0.162 HD
BRANCH  16  18
HETATM   18  C15 UNL     1      36.513  17.323  87.385  1.00  0.00     0.084 C 
HETATM   19  C16 UNL     1      35.370  16.442  87.763  1.00  0.00     0.025 C 
HETATM   20  C17 UNL     1      34.030  17.091  87.758  1.00  0.00     0.002 C 
HETATM   21  C18 UNL     1      34.031  18.505  88.282  1.00  0.00     0.000 C 
HETATM   22  C19 UNL     1      35.169  19.325  87.727  1.00  0.00     0.002 C 
HETATM   23  C20 UNL     1      35.984  18.557  86.710  1.00  0.00     0.025 C 
ENDBRANCH  16  18
ENDBRANCH  11  14
BRANCH   5  24
HETATM   24  C5  UNL     1      43.005  13.067  80.733  1.00  0.00     0.072 A 
HETATM   25  C6  UNL     1      42.179  13.532  79.732  1.00  0.00     0.025 A 
HETATM   26  C7  UNL     1      41.939  12.719  78.706  1.00  0.00     0.009 A 
HETATM   27  C8  UNL     1      42.524  11.484  78.707  1.00  0.00     0.050 A 
HETATM   28  S1  UNL     1      43.400  11.497  80.161  1.00  0.00    -0.097 SA
ENDBRANCH   5  24
TORSDOF 3
ENDMDL
MODEL 4
REMARK VINA RESULT: -7.724643917      1.164      1.518
REMARK  3 active torsions:
REMARK  status: ('A' for Active; 'I' for Inactive)
REMARK       I    between atoms: N1_4  and  C4_5 
REMARK    1  A    between atoms: C4_5  and  C5_7 
REMARK    2  A    between atoms: C13_16  and  C14_17 
REMARK       I    between atoms: C14_17  and  N2_19 
REMARK    3  A    between atoms: N2_19  and  C15_21 
ROOT
HETATM    1  C1  UNL     1      41.017  12.072  84.288  1.00  0.00     0.012 C 
HETATM    2  C2  UNL     1      41.662  13.434  84.402  1.00  0.00     0.004 C 
HETATM    3  C3  UNL     1      42.367  13.745  83.084  1.00  0.00     0.130 C 
HETATM    4  N1  UNL     1      43.231  14.880  83.229  1.00  0.00    -0.347 N 
HETATM    5  C4  UNL     1      44.029  15.216  82.134  1.00  0.00     0.260 C 
HETATM    6  O1  UNL     1      44.794  16.229  82.278  1.00  0.00    -0.267 OA
HETATM    7  C9  UNL     1      43.347  15.714  84.425  1.00  0.00     0.126 C 
HETATM    8  C10 UNL     1      42.112  16.564  84.568  1.00  0.00     0.025 C 
HETATM    9  C11 UNL     1      40.930  15.802  84.059  1.00  0.00    -0.008 C 
HETATM   10  C12 UNL     1      39.635  16.548  84.398  1.00  0.00     0.019 C 
HETATM   11  C13 UNL     1      38.610  15.482  84.083  1.00  0.00     0.078 C 
HETATM   12  C21 UNL     1      39.269  14.176  84.430  1.00  0.00     0.019 C 
HETATM   13  C22 UNL     1      40.712  14.506  84.806  1.00  0.00    -0.004 C 
ENDROOT
BRANCH  11  14
HETATM   14  C14 UNL     1      37.338  15.705  84.773  1.00  0.00     0.222 C 
HETATM   15  O2  UNL     1      36.304  15.177  84.267  1.00  0.00    -0.273 OA
HETATM   16  N2  UNL     1      37.174  16.456  85.952  1.00  0.00    -0.356 N 
ATOM     17  H2  UNL     1      38.008  16.880  86.360  1.00  0.00     0.162 HD
BRANCH  16  18
HETATM   18  C15 UNL     1      35.931  16.671  86.621  1.00  0.00     0.084 C 
HETATM   19  C16 UNL     1      35.804  18.104  87.018  1.00  0.00     0.025 C 
HETATM   20  C17 UNL     1      35.171  18.349  88.344  1.00  0.00     0.002 C 
HETATM   21  C18 UNL     1      34.017  17.429  88.652  1.00  0.00     0.000 C 
HETATM   22  C19 UNL     1      34.320  15.990  88.316  1.00  0.00     0.002 C 
HETATM   23  C20 UNL     1      35.742  15.803  87.833  1.00  0.00     0.025 C 
ENDBRANCH  16  18
ENDBRANCH  11  14
BRANCH   5  24
HETATM   24  C5  UNL     1      44.090  14.543  80.845  1.00  0.00     0.072 A 
HETATM   25  C6  UNL     1      45.143  13.825  80.322  1.00  0.00     0.025 A 
HETATM   26  C7  UNL     1      44.983  13.289  79.114  1.00  0.00     0.009 A 
HETATM   27  C8  UNL     1      43.790  13.481  78.473  1.00  0.00     0.050 A 
HETATM   28  S1  UNL     1      42.922  14.417  79.592  1.00  0.00    -0.097 SA
ENDBRANCH   5  24
TORSDOF 3
ENDMDL
MODEL 5
REMARK VINA RESULT: -6.393605869      0.973      1.085
REMARK  3 active torsions:
REMARK  status: ('A' for Active; 'I' for Inactive)
REMARK       I    between atoms: N1_4  and  C4_5 
REMARK    1  A    between atoms: C4_5  and  C5_7 
REMARK    2  A    between atoms: C13_16  and  C14_17 
REMARK       I    between atoms: C14_17  and  N2_19 
REMARK    3  A    between atoms: N2_19  and  C15_21 
ROOT
HETATM    1  C1  UNL     1      42.278  12.983  85.398  1.00  0.00     0.012 C 
HETATM    2  C2  UNL     1      42.374  14.278  84.624  1.00  0.00     0.004 C 
HETATM    3  C3  UNL     1      42.455  13.945  83.136  1.00  0.00     0.130 C 
HETATM    4  N1  UNL     1      42.835  15.102  82.380  1.00  0.00    -0.347 N 
HETATM    5  C4  UNL     1      43.060  14.923  81.014  1.00  0.00     0.260 C 
HETATM    6  O1  UNL     1      43.399  15.963  80.354  1.00  0.00    -0.267 OA
HETATM    7  C9  UNL     1      43.008  16.451  82.918  1.00  0.00     0.126 C 
HETATM    8  C10 UNL     1      41.662  17.038  83.247  1.00  0.00     0.025 C 
HETATM    9  C11 UNL     1      40.750  15.947  83.710  1.00  0.00    -0.008 C 
HETATM   10  C12 UNL     1      39.451  16.544  84.264  1.00  0.00     0.019 C 
HETATM   11  C13 UNL     1      38.850  15.328  84.932  1.00  0.00     0.078 C 
HETATM   12  C21 UNL     1      40.018  14.531  85.443  1.00  0.00     0.019 C 
HETATM   13  C22 UNL     1      41.276  15.234  84.935  1.00  0.00    -0.004 C 
ENDROOT
BRANCH  11  14
HETATM   14  C14 UNL     1      37.876  15.681  85.968  1.00  0.00     0.222 C 
HETATM   15  O2  UNL     1      37.463  14.746  86.716  1.00  0.00    -0.273 OA
HETATM   16  N2  UNL     1      37.367  16.972  86.197  1.00  0.00    -0.356 N 
ATOM     17  H2  UNL     1      37.701  17.724  85.595  1.00  0.00     0.162 HD
BRANCH  16  18
HETATM   18  C15 UNL     1      36.417  17.311  87.209  1.00  0.00     0.084 C 
HETATM   19  C16 UNL     1      35.269  16.358  87.173  1.00  0.00     0.025 C 
HETATM   20  C17 UNL     1      33.929  16.958  87.420  1.00  0.00     0.002 C 
HETATM   21  C18 UNL     1      33.923  18.028  88.484  1.00  0.00     0.000 C 
HETATM   22  C19 UNL     1      35.068  18.998  88.335  1.00  0.00     0.002 C 
HETATM   23  C20 UNL     1      35.897  18.717  87.101  1.00  0.00     0.025 C 
ENDBRANCH  16  18
ENDBRANCH  11  14
BRANCH   5  24
HETATM   24  C5  UNL     1      42.952  13.687  80.255  1.00  0.00     0.072 A 
HETATM   25  C6  UNL     1      41.891  13.267  79.481  1.00  0.00     0.025 A 
HETATM   26  C7  UNL     1      42.004  12.091  78.868  1.00  0.00     0.009 A 
HETATM   27  C8  UNL     1      43.158  11.378  79.042  1.00  0.00     0.050 A 
HETATM   28  S1  UNL     1      44.058  12.386  80.070  1.00  0.00    -0.097 SA
ENDBRANCH   5  24
TORSDOF 3
ENDMDL
