MODEL 1
REMARK VINA RESULT: -8.741872193      0.000      0.000
REMARK  4 active torsions:
REMARK  status: ('A' for Active; 'I' for Inactive)
REMARK    1  A    between atoms: S1_2  and  C2_3 
REMARK    2  A    between atoms: C2_3  and  C4_10 
REMARK    3  A    between atoms: N1_4  and  S2_6 
REMARK    4  A    between atoms: C4_10  and  C15_28 
REMARK       I    between atoms: N2_11  and  C5_13 
REMARK       I    between atoms: C5_13  and  N4_17 
ROOT
HETATM    1  C4  UNL     1      43.191  14.714  83.202  1.00  0.00     0.064 C 
HETATM    2  N2  UNL     1      42.199  14.493  83.914  1.00  0.00    -0.193 N 
ATOM      3  H2  UNL     1      42.457  14.426  84.899  1.00  0.00     0.184 HD
HETATM    4  C5  UNL     1      40.851  14.314  83.739  1.00  0.00     0.676 C 
HETATM    5  N3  UNL     1      40.294  13.146  83.562  1.00  0.00    -0.234 N 
ATOM      6  H31 UNL     1      39.291  13.013  83.431  1.00  0.00     0.174 HD
ATOM      7  H32 UNL     1      40.918  12.339  83.548  1.00  0.00     0.174 HD
HETATM    8  N4  UNL     1      39.977  15.445  83.759  1.00  0.00    -0.199 N 
ATOM      9  H4  UNL     1      40.026  16.112  82.989  1.00  0.00     0.183 HD
HETATM   10  C6  UNL     1      39.131  15.660  84.706  1.00  0.00     0.005 C 
HETATM   11  C7  UNL     1      38.227  16.842  84.715  1.00  0.00     0.058 C 
HETATM   12  C8  UNL     1      37.736  16.849  86.125  1.00  0.00    -0.005 C 
HETATM   13  C9  UNL     1      36.408  17.486  86.331  1.00  0.00     0.005 C 
HETATM   14  C10 UNL     1      35.384  16.554  86.933  1.00  0.00     0.000 C 
HETATM   15  C11 UNL     1      35.899  15.761  88.092  1.00  0.00     0.000 C 
HETATM   16  C12 UNL     1      37.291  15.178  87.822  1.00  0.00     0.005 C 
HETATM   17  C13 UNL     1      37.553  15.344  86.367  1.00  0.00    -0.005 C 
HETATM   18  C14 UNL     1      38.893  14.828  85.916  1.00  0.00     0.058 C 
ENDROOT
BRANCH   1  19
HETATM   19  C2  UNL     1      43.103  14.857  81.724  1.00  0.00     0.102 C 
HETATM   20  N1  UNL     1      42.828  13.841  81.095  1.00  0.00    -0.277 N 
ATOM     21  H1  UNL     1      42.716  13.086  81.772  1.00  0.00     0.179 HD
BRANCH  19  22
HETATM   22  S1  UNL     1      43.403  16.458  81.077  1.00  0.00    -0.114 SA
HETATM   23  C1  UNL     1      42.786  17.831  82.016  1.00  0.00     0.097 C 
ENDBRANCH  19  22
BRANCH  20  24
HETATM   24  S2  UNL     1      42.568  13.204  79.604  1.00  0.00     0.227 S 
HETATM   25  C3  UNL     1      42.751  11.410  79.668  1.00  0.00     0.186 C 
HETATM   26  O1  UNL     1      43.537  13.695  78.554  1.00  0.00    -0.206 OA
HETATM   27  O2  UNL     1      41.133  13.452  79.170  1.00  0.00    -0.206 OA
ENDBRANCH  20  24
ENDBRANCH   1  19
BRANCH   1  28
HETATM   28  C15 UNL     1      44.537  14.841  83.867  1.00  0.00     0.031 C 
HETATM   29  C16 UNL     1      45.596  14.269  82.975  1.00  0.00     0.016 C 
HETATM   30  C17 UNL     1      44.769  16.277  84.233  1.00  0.00     0.016 C 
ENDBRANCH   1  28
TORSDOF 4
ENDMDL
MODEL 2
REMARK VINA RESULT: -8.460630755      0.940      1.061
REMARK  4 active torsions:
REMARK  status: ('A' for Active; 'I' for Inactive)
REMARK    1  A    between atoms: S1_2  and  C2_3 
REMARK    2  A    between atoms: C2_3  and  C4_10 
REMARK    3  A    between atoms: N1_4  and  S2_6 
REMARK    4  A    between atoms: C4_10  and  C15_28 
REMARK       I    between atoms: N2_11  and  C5_13 
REMARK       I    between atoms: C5_13  and  N4_17 
ROOT
HETATM    1  C4  UNL     1      43.079  14.707  83.351  1.00  0.00     0.064 C 
HETATM    2  N2  UNL     1      42.097  14.492  84.078  1.00  0.00    -0.193 N 
ATOM      3  H2  UNL     1      42.358  14.494  85.064  1.00  0.00     0.184 HD
HETATM    4  C5  UNL     1      40.757  14.253  83.918  1.00  0.00     0.676 C 
HETATM    5  N3  UNL     1      40.243  13.057  83.813  1.00  0.00    -0.234 N 
ATOM      6  H31 UNL     1      39.246  12.879  83.694  1.00  0.00     0.174 HD
ATOM      7  H32 UNL     1      40.896  12.275  83.845  1.00  0.00     0.174 HD
HETATM    8  N4  UNL     1      39.841  15.351  83.874  1.00  0.00    -0.199 N 
ATOM      9  H4  UNL     1      39.863  15.971  83.065  1.00  0.00     0.183 HD
HETATM   10  C6  UNL     1      38.989  15.590  84.810  1.00  0.00     0.005 C 
HETATM   11  C7  UNL     1      38.040  16.735  84.752  1.00  0.00     0.058 C 
HETATM   12  C8  UNL     1      37.551  16.809  86.159  1.00  0.00    -0.005 C 
HETATM   13  C9  UNL     1      36.201  17.407  86.332  1.00  0.00     0.005 C 
HETATM   14  C10 UNL     1      35.213  16.475  86.992  1.00  0.00     0.000 C 
HETATM   15  C11 UNL     1      35.759  15.772  88.194  1.00  0.00     0.000 C 
HETATM   16  C12 UNL     1      37.172  15.226  87.955  1.00  0.00     0.005 C 
HETATM   17  C13 UNL     1      37.425  15.315  86.491  1.00  0.00    -0.005 C 
HETATM   18  C14 UNL     1      38.783  14.823  86.068  1.00  0.00     0.058 C 
ENDROOT
BRANCH   1  19
HETATM   19  C2  UNL     1      42.984  14.758  81.867  1.00  0.00     0.102 C 
HETATM   20  N1  UNL     1      42.661  13.717  81.307  1.00  0.00    -0.277 N 
ATOM     21  H1  UNL     1      42.523  13.012  82.032  1.00  0.00     0.179 HD
BRANCH  19  22
HETATM   22  S1  UNL     1      43.345  16.300  81.116  1.00  0.00    -0.114 SA
HETATM   23  C1  UNL     1      44.980  16.508  80.458  1.00  0.00     0.097 C 
ENDBRANCH  19  22
BRANCH  20  24
HETATM   24  S2  UNL     1      42.360  12.997  79.861  1.00  0.00     0.227 S 
HETATM   25  C3  UNL     1      43.704  13.358  78.711  1.00  0.00     0.186 C 
HETATM   26  O1  UNL     1      41.090  13.473  79.196  1.00  0.00    -0.206 OA
HETATM   27  O2  UNL     1      42.353  11.487  80.017  1.00  0.00    -0.206 OA
ENDBRANCH  20  24
ENDBRANCH   1  19
BRANCH   1  28
HETATM   28  C15 UNL     1      44.420  14.924  84.002  1.00  0.00     0.031 C 
HETATM   29  C16 UNL     1      45.485  14.240  83.201  1.00  0.00     0.016 C 
HETATM   30  C17 UNL     1      44.648  16.396  84.176  1.00  0.00     0.016 C 
ENDBRANCH   1  28
TORSDOF 4
ENDMDL
MODEL 3
REMARK VINA RESULT: -7.531470360      1.434      2.243
REMARK  4 active torsions:
REMARK  status: ('A' for Active; 'I' for Inactive)
REMARK    1  A    between atoms: S1_2  and  C2_3 
REMARK    2  A    between atoms: C2_3  and  C4_10 
REMARK    3  A    between atoms: N1_4  and  S2_6 
REMARK    4  A    between atoms: C4_10  and  C15_28 
REMARK       I    between atoms: N2_11  and  C5_13 
REMARK       I    between atoms: C5_13  and  N4_17 
ROOT
HETATM    1  C4  UNL     1      43.134  15.870  82.230  1.00  0.00     0.064 C 
HETATM    2  N2  UNL     1      42.448  16.072  83.244  1.00  0.00    -0.193 N 
ATOM      3  H2  UNL     1      42.353  17.070  83.435  1.00  0.00     0.184 HD
HETATM    4  C5  UNL     1      41.781  15.321  84.177  1.00  0.00     0.676 C 
HETATM    5  N3  UNL     1      42.318  14.918  85.297  1.00  0.00    -0.234 N 
ATOM      6  H31 UNL     1      41.822  14.358  85.991  1.00  0.00     0.174 HD
ATOM      7  H32 UNL     1      43.290  15.180  85.459  1.00  0.00     0.174 HD
HETATM    8  N4  UNL     1      40.418  14.954  83.950  1.00  0.00    -0.199 N 
ATOM      9  H4  UNL     1      40.212  14.283  83.209  1.00  0.00     0.183 HD
HETATM   10  C6  UNL     1      39.440  15.431  84.638  1.00  0.00     0.005 C 
HETATM   11  C7  UNL     1      38.025  15.040  84.392  1.00  0.00     0.058 C 
HETATM   12  C8  UNL     1      37.275  16.089  85.143  1.00  0.00    -0.005 C 
HETATM   13  C9  UNL     1      35.922  15.689  85.611  1.00  0.00     0.005 C 
HETATM   14  C10 UNL     1      35.756  15.779  87.110  1.00  0.00     0.000 C 
HETATM   15  C11 UNL     1      36.287  17.046  87.700  1.00  0.00     0.000 C 
HETATM   16  C12 UNL     1      37.663  17.418  87.132  1.00  0.00     0.005 C 
HETATM   17  C13 UNL     1      38.159  16.226  86.392  1.00  0.00    -0.005 C 
HETATM   18  C14 UNL     1      39.509  16.413  85.754  1.00  0.00     0.058 C 
ENDROOT
BRANCH   1  19
HETATM   19  C2  UNL     1      43.434  14.504  81.722  1.00  0.00     0.102 C 
HETATM   20  N1  UNL     1      42.894  14.185  80.669  1.00  0.00    -0.277 N 
ATOM     21  H1  UNL     1      42.331  14.978  80.363  1.00  0.00     0.179 HD
BRANCH  19  22
HETATM   22  S1  UNL     1      44.518  13.532  82.698  1.00  0.00    -0.114 SA
HETATM   23  C1  UNL     1      46.258  13.762  82.435  1.00  0.00     0.097 C 
ENDBRANCH  19  22
BRANCH  20  24
HETATM   24  S2  UNL     1      42.713  12.996  79.550  1.00  0.00     0.227 S 
HETATM   25  C3  UNL     1      42.852  11.383  80.349  1.00  0.00     0.186 C 
HETATM   26  O1  UNL     1      43.756  13.023  78.458  1.00  0.00    -0.206 OA
HETATM   27  O2  UNL     1      41.314  13.038  78.961  1.00  0.00    -0.206 OA
ENDBRANCH  20  24
ENDBRANCH   1  19
BRANCH   1  28
HETATM   28  C15 UNL     1      43.685  17.060  81.487  1.00  0.00     0.031 C 
HETATM   29  C16 UNL     1      42.963  18.300  81.916  1.00  0.00     0.016 C 
HETATM   30  C17 UNL     1      45.169  17.123  81.696  1.00  0.00     0.016 C 
ENDBRANCH   1  28
TORSDOF 4
ENDMDL
MODEL 4
REMARK VINA RESULT: -7.061718903      0.951      1.115
REMARK  4 active torsions:
REMARK  status: ('A' for Active; 'I' for Inactive)
REMARK    1  A    between atoms: S1_2  and  C2_3 
REMARK    2  A    between atoms: C2_3  and  C4_10 
REMARK    3  A    between atoms: N1_4  and  S2_6 
REMARK    4  A    between atoms: C4_10  and  C15_28 
REMARK       I    between atoms: N2_11  and  C5_13 
REMARK       I    between atoms: C5_13  and  N4_17 
ROOT
HETATM    1  C4  UNL     1      43.090  15.223  83.529  1.00  0.00     0.064 C 
HETATM    2  N2  UNL     1      42.133  14.956  84.273  1.00  0.00    -0.193 N 
ATOM      3  H2  UNL     1      42.386  15.062  85.255  1.00  0.00     0.184 HD
HETATM    4  C5  UNL     1      40.828  14.558  84.135  1.00  0.00     0.676 C 
HETATM    5  N3  UNL     1      40.451  13.308  84.123  1.00  0.00    -0.234 N 
ATOM      6  H31 UNL     1      39.481  13.012  84.020  1.00  0.00     0.174 HD
ATOM      7  H32 UNL     1      41.187  12.608  84.213  1.00  0.00     0.174 HD
HETATM    8  N4  UNL     1      39.797  15.541  84.008  1.00  0.00    -0.199 N 
ATOM      9  H4  UNL     1      39.756  16.096  83.154  1.00  0.00     0.183 HD
HETATM   10  C6  UNL     1      38.918  15.755  84.925  1.00  0.00     0.005 C 
HETATM   11  C7  UNL     1      37.849  16.780  84.781  1.00  0.00     0.058 C 
HETATM   12  C8  UNL     1      37.345  16.906  86.180  1.00  0.00    -0.005 C 
HETATM   13  C9  UNL     1      35.937  17.362  86.310  1.00  0.00     0.005 C 
HETATM   14  C10 UNL     1      35.054  16.379  87.041  1.00  0.00     0.000 C 
HETATM   15  C11 UNL     1      35.666  15.836  88.293  1.00  0.00     0.000 C 
HETATM   16  C12 UNL     1      37.132  15.433  88.093  1.00  0.00     0.005 C 
HETATM   17  C13 UNL     1      37.383  15.437  86.626  1.00  0.00    -0.005 C 
HETATM   18  C14 UNL     1      38.790  15.069  86.239  1.00  0.00     0.058 C 
ENDROOT
BRANCH   1  19
HETATM   19  C2  UNL     1      42.999  15.149  82.046  1.00  0.00     0.102 C 
HETATM   20  N1  UNL     1      42.825  14.034  81.566  1.00  0.00    -0.277 N 
ATOM     21  H1  UNL     1      42.780  13.373  82.342  1.00  0.00     0.179 HD
BRANCH  19  22
HETATM   22  S1  UNL     1      43.151  16.665  81.180  1.00  0.00    -0.114 SA
HETATM   23  C1  UNL     1      42.854  18.151  82.104  1.00  0.00     0.097 C 
ENDBRANCH  19  22
BRANCH  20  24
HETATM   24  S2  UNL     1      42.636  13.175  80.180  1.00  0.00     0.227 S 
HETATM   25  C3  UNL     1      41.119  13.688  79.348  1.00  0.00     0.186 C 
HETATM   26  O1  UNL     1      42.521  11.684  80.398  1.00  0.00    -0.206 OA
HETATM   27  O2  UNL     1      43.759  13.491  79.208  1.00  0.00    -0.206 OA
ENDBRANCH  20  24
ENDBRANCH   1  19
BRANCH   1  28
HETATM   28  C15 UNL     1      44.395  15.636  84.158  1.00  0.00     0.031 C 
HETATM   29  C16 UNL     1      45.465  15.690  83.111  1.00  0.00     0.016 C 
HETATM   30  C17 UNL     1      44.198  16.932  84.887  1.00  0.00     0.016 C 
ENDBRANCH   1  28
TORSDOF 4
ENDMDL
MODEL 5
REMARK VINA RESULT: -6.507134281      1.717      2.599
REMARK  4 active torsions:
REMARK  status: ('A' for Active; 'I' for Inactive)
REMARK    1  A    between atoms: S1_2  and  C2_3 
REMARK    2  A    between atoms: C2_3  and  C4_10 
REMARK    3  A    between atoms: N1_4  and  S2_6 
REMARK    4  A    between atoms: C4_10  and  C15_28 
REMARK       I    between atoms: N2_11  and  C5_13 
REMARK       I    between atoms: C5_13  and  N4_17 
ROOT
HETATM    1  C4  UNL     1      43.530  15.627  82.060  1.00  0.00     0.064 C 
HETATM    2  N2  UNL     1      42.816  15.943  83.025  1.00  0.00    -0.193 N 
ATOM      3  H2  UNL     1      42.623  16.945  83.031  1.00  0.00     0.184 HD
HETATM    4  C5  UNL     1      42.215  15.314  84.084  1.00  0.00     0.676 C 
HETATM    5  N3  UNL     1      42.776  15.176  85.256  1.00  0.00    -0.234 N 
ATOM      6  H31 UNL     1      42.329  14.708  86.044  1.00  0.00     0.174 HD
ATOM      7  H32 UNL     1      43.716  15.557  85.360  1.00  0.00     0.174 HD
HETATM    8  N4  UNL     1      40.897  14.780  83.938  1.00  0.00    -0.199 N 
ATOM      9  H4  UNL     1      40.765  13.969  83.334  1.00  0.00     0.183 HD
HETATM   10  C6  UNL     1      39.870  15.278  84.534  1.00  0.00     0.005 C 
HETATM   11  C7  UNL     1      38.502  14.713  84.373  1.00  0.00     0.058 C 
HETATM   12  C8  UNL     1      37.645  15.803  84.925  1.00  0.00    -0.005 C 
HETATM   13  C9  UNL     1      36.333  15.365  85.468  1.00  0.00     0.005 C 
HETATM   14  C10 UNL     1      36.142  15.710  86.926  1.00  0.00     0.000 C 
HETATM   15  C11 UNL     1      36.541  17.110  87.270  1.00  0.00     0.000 C 
HETATM   16  C12 UNL     1      37.880  17.504  86.635  1.00  0.00     0.005 C 
HETATM   17  C13 UNL     1      38.498  16.251  86.121  1.00  0.00    -0.005 C 
HETATM   18  C14 UNL     1      39.831  16.449  85.451  1.00  0.00     0.058 C 
ENDROOT
BRANCH   1  19
HETATM   19  C2  UNL     1      43.967  14.227  81.810  1.00  0.00     0.102 C 
HETATM   20  N1  UNL     1      43.304  13.588  81.000  1.00  0.00    -0.277 N 
ATOM     21  H1  UNL     1      42.562  14.201  80.663  1.00  0.00     0.179 HD
BRANCH  19  22
HETATM   22  S1  UNL     1      45.369  13.677  82.705  1.00  0.00    -0.114 SA
HETATM   23  C1  UNL     1      46.414  14.927  83.409  1.00  0.00     0.097 C 
ENDBRANCH  19  22
BRANCH  20  24
HETATM   24  S2  UNL     1      43.130  12.144  80.237  1.00  0.00     0.227 S 
HETATM   25  C3  UNL     1      42.060  12.341  78.797  1.00  0.00     0.186 C 
HETATM   26  O1  UNL     1      42.497  11.074  81.096  1.00  0.00    -0.206 OA
HETATM   27  O2  UNL     1      44.466  11.674  79.689  1.00  0.00    -0.206 OA
ENDBRANCH  20  24
ENDBRANCH   1  19
BRANCH   1  28
HETATM   28  C15 UNL     1      43.971  16.709  81.109  1.00  0.00     0.031 C 
HETATM   29  C16 UNL     1      44.211  17.979  81.867  1.00  0.00     0.016 C 
HETATM   30  C17 UNL     1      45.168  16.229  80.342  1.00  0.00     0.016 C 
ENDBRANCH   1  28
TORSDOF 4
ENDMDL
