MODEL 1
REMARK VINA RESULT: -6.754515461      0.000      0.000
REMARK  3 active torsions:
REMARK  status: ('A' for Active; 'I' for Inactive)
REMARK    1  A    between atoms: C9_10  and  C10_11 
REMARK    2  A    between atoms: C13_16  and  C14_17 
REMARK    3  A    between atoms: C14_17  and  C15_18 
ROOT
HETATM    1  C10 UNL     1      41.649  15.099  84.246  1.00  0.00     0.105 A 
HETATM    2  N1  UNL     1      42.470  16.156  84.054  1.00  0.00    -0.347 N 
ATOM      3  H1  UNL     1      42.248  17.034  84.523  1.00  0.00     0.167 HD
HETATM    4  C11 UNL     1      43.548  16.109  83.287  1.00  0.00     0.018 A 
HETATM    5  C12 UNL     1      43.867  14.913  82.638  1.00  0.00    -0.013 A 
HETATM    6  C13 UNL     1      43.059  13.820  82.807  1.00  0.00     0.019 A 
HETATM    7  N2  UNL     1      41.967  13.977  83.622  1.00  0.00    -0.347 N 
ATOM      8  H2  UNL     1      41.356  13.171  83.758  1.00  0.00     0.167 HD
HETATM    9  C21 UNL     1      45.084  14.811  81.815  1.00  0.00     0.042 C 
HETATM   10  C22 UNL     1      45.347  16.054  81.012  1.00  0.00     0.005 C 
HETATM   11  C23 UNL     1      44.692  17.288  81.525  1.00  0.00     0.006 C 
HETATM   12  C24 UNL     1      44.492  17.226  83.022  1.00  0.00     0.057 C 
ENDROOT
BRANCH   1  13
HETATM   13  C9  UNL     1      40.482  15.266  85.127  1.00  0.00     0.155 C 
HETATM   14  C8  UNL     1      40.295  16.713  85.588  1.00  0.00     0.033 C 
HETATM   15  C7  UNL     1      39.268  16.682  86.698  1.00  0.00     0.004 C 
HETATM   16  C6  UNL     1      37.988  16.062  86.184  1.00  0.00     0.025 C 
HETATM   17  C5  UNL     1      38.090  15.702  84.719  1.00  0.00     0.088 C 
HETATM   18  C4  UNL     1      36.820  14.965  84.342  1.00  0.00     0.026 C 
HETATM   19  N3  UNL     1      39.250  14.841  84.553  1.00  0.00    -0.336 N 
HETATM   20  C3  UNL     1      36.988  14.227  83.029  1.00  0.00     0.011 C 
HETATM   21  C2  UNL     1      37.956  13.090  83.226  1.00  0.00     0.103 C 
HETATM   22  C1  UNL     1      39.184  13.612  83.849  1.00  0.00     0.220 C 
HETATM   23  O1  UNL     1      40.222  12.878  83.722  1.00  0.00    -0.273 OA
ENDBRANCH   1  13
BRANCH   6  24
HETATM   24  C14 UNL     1      43.254  12.505  82.153  1.00  0.00     0.062 C 
BRANCH  24  25
HETATM   25  C15 UNL     1      42.143  12.049  81.277  1.00  0.00    -0.009 C 
HETATM   26  C16 UNL     1      42.572  11.076  80.189  1.00  0.00     0.005 C 
HETATM   27  C17 UNL     1      42.690  11.725  78.834  1.00  0.00     0.000 C 
HETATM   28  C18 UNL     1      43.302  13.098  78.874  1.00  0.00     0.000 C 
HETATM   29  C19 UNL     1      42.548  14.022  79.780  1.00  0.00     0.000 C 
HETATM   30  C20 UNL     1      41.529  13.235  80.548  1.00  0.00     0.005 C 
ENDBRANCH  24  25
ENDBRANCH   6  24
TORSDOF 3
ENDMDL
MODEL 2
REMARK VINA RESULT: -6.649890599      1.704      7.074
REMARK  3 active torsions:
REMARK  status: ('A' for Active; 'I' for Inactive)
REMARK    1  A    between atoms: C9_10  and  C10_11 
REMARK    2  A    between atoms: C13_16  and  C14_17 
REMARK    3  A    between atoms: C14_17  and  C15_18 
ROOT
HETATM    1  C10 UNL     1      42.026  15.348  82.958  1.00  0.00     0.105 A 
HETATM    2  N1  UNL     1      41.905  14.013  83.135  1.00  0.00    -0.347 N 
ATOM      3  H1  UNL     1      42.522  13.397  82.606  1.00  0.00     0.167 HD
HETATM    4  C11 UNL     1      41.027  13.466  83.961  1.00  0.00     0.018 A 
HETATM    5  C12 UNL     1      40.176  14.298  84.694  1.00  0.00    -0.013 A 
HETATM    6  C13 UNL     1      40.268  15.655  84.541  1.00  0.00     0.019 A 
HETATM    7  N2  UNL     1      41.211  16.118  83.660  1.00  0.00    -0.347 N 
ATOM      8  H2  UNL     1      41.290  17.128  83.537  1.00  0.00     0.167 HD
HETATM    9  C21 UNL     1      39.220  13.725  85.657  1.00  0.00     0.042 C 
HETATM   10  C22 UNL     1      38.587  12.455  85.161  1.00  0.00     0.005 C 
HETATM   11  C23 UNL     1      39.347  11.745  84.096  1.00  0.00     0.006 C 
HETATM   12  C24 UNL     1      40.831  12.013  84.203  1.00  0.00     0.057 C 
ENDROOT
BRANCH   1  13
HETATM   13  C9  UNL     1      43.043  15.844  82.018  1.00  0.00     0.155 C 
HETATM   14  C8  UNL     1      44.247  16.467  82.728  1.00  0.00     0.033 C 
HETATM   15  C7  UNL     1      45.049  17.187  81.665  1.00  0.00     0.004 C 
HETATM   16  C6  UNL     1      45.450  16.208  80.585  1.00  0.00     0.025 C 
HETATM   17  C5  UNL     1      44.979  14.805  80.900  1.00  0.00     0.088 C 
HETATM   18  C4  UNL     1      45.303  13.937  79.700  1.00  0.00     0.026 C 
HETATM   19  N3  UNL     1      43.543  14.857  81.121  1.00  0.00    -0.336 N 
HETATM   20  C3  UNL     1      44.533  12.632  79.748  1.00  0.00     0.011 C 
HETATM   21  C2  UNL     1      43.070  12.918  79.535  1.00  0.00     0.103 C 
HETATM   22  C1  UNL     1      42.647  13.967  80.477  1.00  0.00     0.220 C 
HETATM   23  O1  UNL     1      41.389  14.040  80.694  1.00  0.00    -0.273 OA
ENDBRANCH   1  13
BRANCH   6  24
HETATM   24  C14 UNL     1      39.407  16.651  85.224  1.00  0.00     0.062 C 
BRANCH  24  25
HETATM   25  C15 UNL     1      38.029  16.790  84.685  1.00  0.00    -0.009 C 
HETATM   26  C16 UNL     1      37.430  18.175  84.867  1.00  0.00     0.005 C 
HETATM   27  C17 UNL     1      36.442  18.244  86.003  1.00  0.00     0.000 C 
HETATM   28  C18 UNL     1      36.862  17.462  87.216  1.00  0.00     0.000 C 
HETATM   29  C19 UNL     1      37.117  16.021  86.894  1.00  0.00     0.000 C 
HETATM   30  C20 UNL     1      37.085  15.837  85.406  1.00  0.00     0.005 C 
ENDBRANCH  24  25
ENDBRANCH   6  24
TORSDOF 3
ENDMDL
MODEL 3
REMARK VINA RESULT: -6.572926610      1.029      3.481
REMARK  3 active torsions:
REMARK  status: ('A' for Active; 'I' for Inactive)
REMARK    1  A    between atoms: C9_10  and  C10_11 
REMARK    2  A    between atoms: C13_16  and  C14_17 
REMARK    3  A    between atoms: C14_17  and  C15_18 
ROOT
HETATM    1  C10 UNL     1      41.874  14.363  83.441  1.00  0.00     0.105 A 
HETATM    2  N1  UNL     1      41.329  13.874  82.304  1.00  0.00    -0.347 N 
ATOM      3  H1  UNL     1      40.313  13.877  82.214  1.00  0.00     0.167 HD
HETATM    4  C11 UNL     1      42.047  13.392  81.302  1.00  0.00     0.018 A 
HETATM    5  C12 UNL     1      43.441  13.382  81.410  1.00  0.00    -0.013 A 
HETATM    6  C13 UNL     1      44.030  13.868  82.546  1.00  0.00     0.019 A 
HETATM    7  N2  UNL     1      43.194  14.344  83.525  1.00  0.00    -0.347 N 
ATOM      8  H2  UNL     1      43.620  14.709  84.376  1.00  0.00     0.167 HD
HETATM    9  C21 UNL     1      44.272  12.896  80.295  1.00  0.00     0.042 C 
HETATM   10  C22 UNL     1      43.684  11.693  79.614  1.00  0.00     0.005 C 
HETATM   11  C23 UNL     1      42.219  11.510  79.808  1.00  0.00     0.006 C 
HETATM   12  C24 UNL     1      41.521  12.833  80.029  1.00  0.00     0.057 C 
ENDROOT
BRANCH   1  13
HETATM   13  C9  UNL     1      40.977  14.879  84.486  1.00  0.00     0.155 C 
HETATM   14  C8  UNL     1      41.127  16.388  84.698  1.00  0.00     0.033 C 
HETATM   15  C7  UNL     1      40.385  16.719  85.974  1.00  0.00     0.004 C 
HETATM   16  C6  UNL     1      38.942  16.288  85.846  1.00  0.00     0.025 C 
HETATM   17  C5  UNL     1      38.653  15.702  84.482  1.00  0.00     0.088 C 
HETATM   18  C4  UNL     1      37.231  15.175  84.505  1.00  0.00     0.026 C 
HETATM   19  N3  UNL     1      39.597  14.618  84.255  1.00  0.00    -0.336 N 
HETATM   20  C3  UNL     1      36.981  14.231  83.346  1.00  0.00     0.011 C 
HETATM   21  C2  UNL     1      37.779  12.972  83.556  1.00  0.00     0.103 C 
HETATM   22  C1  UNL     1      39.182  13.335  83.819  1.00  0.00     0.220 C 
HETATM   23  O1  UNL     1      40.037  12.404  83.629  1.00  0.00    -0.273 OA
ENDBRANCH   1  13
BRANCH   6  24
HETATM   24  C14 UNL     1      45.488  13.884  82.811  1.00  0.00     0.062 C 
BRANCH  24  25
HETATM   25  C15 UNL     1      46.093  15.227  83.008  1.00  0.00    -0.009 C 
HETATM   26  C16 UNL     1      45.076  16.342  83.202  1.00  0.00     0.005 C 
HETATM   27  C17 UNL     1      44.878  17.178  81.964  1.00  0.00     0.000 C 
HETATM   28  C18 UNL     1      44.854  16.376  80.692  1.00  0.00     0.000 C 
HETATM   29  C19 UNL     1      46.099  15.560  80.520  1.00  0.00     0.000 C 
HETATM   30  C20 UNL     1      46.905  15.622  81.782  1.00  0.00     0.005 C 
ENDBRANCH  24  25
ENDBRANCH   6  24
TORSDOF 3
ENDMDL
MODEL 4
REMARK VINA RESULT: -6.562185467      2.666      5.354
REMARK  3 active torsions:
REMARK  status: ('A' for Active; 'I' for Inactive)
REMARK    1  A    between atoms: C9_10  and  C10_11 
REMARK    2  A    between atoms: C13_16  and  C14_17 
REMARK    3  A    between atoms: C14_17  and  C15_18 
ROOT
HETATM    1  C10 UNL     1      38.177  16.466  85.841  1.00  0.00     0.105 A 
HETATM    2  N1  UNL     1      37.612  15.455  85.143  1.00  0.00    -0.347 N 
ATOM      3  H1  UNL     1      36.595  15.373  85.146  1.00  0.00     0.167 HD
HETATM    4  C11 UNL     1      38.312  14.566  84.456  1.00  0.00     0.018 A 
HETATM    5  C12 UNL     1      39.707  14.665  84.441  1.00  0.00    -0.013 A 
HETATM    6  C13 UNL     1      40.316  15.676  85.136  1.00  0.00     0.019 A 
HETATM    7  N2  UNL     1      39.497  16.543  85.815  1.00  0.00    -0.347 N 
ATOM      8  H2  UNL     1      39.938  17.301  86.337  1.00  0.00     0.167 HD
HETATM    9  C21 UNL     1      40.514  13.722  83.649  1.00  0.00     0.042 C 
HETATM   10  C22 UNL     1      39.982  12.317  83.702  1.00  0.00     0.005 C 
HETATM   11  C23 UNL     1      38.548  12.198  84.079  1.00  0.00     0.006 C 
HETATM   12  C24 UNL     1      37.766  13.427  83.673  1.00  0.00     0.057 C 
ENDROOT
BRANCH   1  13
HETATM   13  C9  UNL     1      37.298  17.400  86.562  1.00  0.00     0.155 C 
HETATM   14  C8  UNL     1      36.656  18.437  85.638  1.00  0.00     0.033 C 
HETATM   15  C7  UNL     1      36.037  19.487  86.534  1.00  0.00     0.004 C 
HETATM   16  C6  UNL     1      35.039  18.834  87.463  1.00  0.00     0.025 C 
HETATM   17  C5  UNL     1      34.917  17.350  87.199  1.00  0.00     0.088 C 
HETATM   18  C4  UNL     1      34.010  16.771  88.266  1.00  0.00     0.026 C 
HETATM   19  N3  UNL     1      36.249  16.771  87.291  1.00  0.00    -0.336 N 
HETATM   20  C3  UNL     1      34.137  15.262  88.331  1.00  0.00     0.011 C 
HETATM   21  C2  UNL     1      35.501  14.907  88.861  1.00  0.00     0.103 C 
HETATM   22  C1  UNL     1      36.520  15.622  88.074  1.00  0.00     0.220 C 
HETATM   23  O1  UNL     1      37.702  15.139  88.133  1.00  0.00    -0.273 OA
ENDBRANCH   1  13
BRANCH   6  24
HETATM   24  C14 UNL     1      41.780  15.879  85.239  1.00  0.00     0.062 C 
BRANCH  24  25
HETATM   25  C15 UNL     1      42.363  16.861  84.288  1.00  0.00    -0.009 C 
HETATM   26  C16 UNL     1      41.961  16.635  82.839  1.00  0.00     0.005 C 
HETATM   27  C17 UNL     1      43.044  15.977  82.025  1.00  0.00     0.000 C 
HETATM   28  C18 UNL     1      43.776  14.889  82.761  1.00  0.00     0.000 C 
HETATM   29  C19 UNL     1      44.378  15.386  84.040  1.00  0.00     0.000 C 
HETATM   30  C20 UNL     1      43.883  16.774  84.310  1.00  0.00     0.005 C 
ENDBRANCH  24  25
ENDBRANCH   6  24
TORSDOF 3
ENDMDL
MODEL 5
REMARK VINA RESULT: -6.330395521      1.461      2.528
REMARK  3 active torsions:
REMARK  status: ('A' for Active; 'I' for Inactive)
REMARK    1  A    between atoms: C9_10  and  C10_11 
REMARK    2  A    between atoms: C13_16  and  C14_17 
REMARK    3  A    between atoms: C14_17  and  C15_18 
ROOT
HETATM    1  C10 UNL     1      41.418  14.042  83.627  1.00  0.00     0.105 A 
HETATM    2  N1  UNL     1      41.952  15.183  84.117  1.00  0.00    -0.347 N 
ATOM      3  H1  UNL     1      41.376  15.765  84.726  1.00  0.00     0.167 HD
HETATM    4  C11 UNL     1      43.185  15.584  83.848  1.00  0.00     0.018 A 
HETATM    5  C12 UNL     1      43.987  14.797  83.016  1.00  0.00    -0.013 A 
HETATM    6  C13 UNL     1      43.482  13.634  82.499  1.00  0.00     0.019 A 
HETATM    7  N2  UNL     1      42.193  13.312  82.841  1.00  0.00    -0.347 N 
ATOM      8  H2  UNL     1      41.804  12.448  82.463  1.00  0.00     0.167 HD
HETATM    9  C21 UNL     1      45.379  15.188  82.733  1.00  0.00     0.042 C 
HETATM   10  C22 UNL     1      45.537  16.671  82.544  1.00  0.00     0.005 C 
HETATM   11  C23 UNL     1      44.458  17.503  83.142  1.00  0.00     0.006 C 
HETATM   12  C24 UNL     1      43.837  16.825  84.342  1.00  0.00     0.057 C 
ENDROOT
BRANCH   1  13
HETATM   13  C9  UNL     1      40.039  13.693  84.000  1.00  0.00     0.155 C 
HETATM   14  C8  UNL     1      39.969  12.477  84.926  1.00  0.00     0.033 C 
HETATM   15  C7  UNL     1      38.515  12.060  84.981  1.00  0.00     0.004 C 
HETATM   16  C6  UNL     1      37.676  13.218  85.472  1.00  0.00     0.025 C 
HETATM   17  C5  UNL     1      38.527  14.423  85.806  1.00  0.00     0.088 C 
HETATM   18  C4  UNL     1      37.587  15.562  86.148  1.00  0.00     0.026 C 
HETATM   19  N3  UNL     1      39.318  14.748  84.629  1.00  0.00    -0.336 N 
HETATM   20  C3  UNL     1      38.309  16.894  86.110  1.00  0.00     0.011 C 
HETATM   21  C2  UNL     1      38.674  17.214  84.684  1.00  0.00     0.103 C 
HETATM   22  C1  UNL     1      39.385  16.063  84.104  1.00  0.00     0.220 C 
HETATM   23  O1  UNL     1      40.090  16.315  83.067  1.00  0.00    -0.273 OA
ENDBRANCH   1  13
BRANCH   6  24
HETATM   24  C14 UNL     1      44.204  12.725  81.578  1.00  0.00     0.062 C 
BRANCH  24  25
HETATM   25  C15 UNL     1      44.390  13.227  80.191  1.00  0.00    -0.009 C 
HETATM   26  C16 UNL     1      43.642  14.518  79.894  1.00  0.00     0.005 C 
HETATM   27  C17 UNL     1      42.383  14.297  79.097  1.00  0.00     0.000 C 
HETATM   28  C18 UNL     1      41.606  13.081  79.521  1.00  0.00     0.000 C 
HETATM   29  C19 UNL     1      42.435  11.835  79.454  1.00  0.00     0.000 C 
HETATM   30  C20 UNL     1      43.863  12.208  79.190  1.00  0.00     0.005 C 
ENDBRANCH  24  25
ENDBRANCH   6  24
TORSDOF 3
ENDMDL
