MODEL 1
REMARK VINA RESULT: -7.507177853      0.000      0.000
REMARK  6 active torsions:
REMARK  status: ('A' for Active; 'I' for Inactive)
REMARK    1  A    between atoms: C2_2  and  C3_3 
REMARK    2  A    between atoms: C2_2  and  C10_13 
REMARK       I    between atoms: C3_3  and  N1_5 
REMARK    3  A    between atoms: N1_5  and  C4_7 
REMARK    4  A    between atoms: C12_15  and  C13_16 
REMARK    5  A    between atoms: C13_16  and  C14_17 
REMARK    6  A    between atoms: C14_17  and  C15_18 
ROOT
HETATM    1  C10 UNL     1      36.756  16.610  86.306  1.00  0.00    -0.003 A 
HETATM    2  C11 UNL     1      37.873  16.749  85.532  1.00  0.00     0.036 A 
HETATM    3  C12 UNL     1      38.766  15.737  85.547  1.00  0.00     0.025 A 
HETATM    4  C25 UNL     1      38.467  14.659  86.342  1.00  0.00     0.070 A 
HETATM    5  S1  UNL     1      36.971  15.086  87.032  1.00  0.00    -0.104 SA
ENDROOT
BRANCH   1   6
HETATM    6  C2  UNL     1      35.607  17.574  86.476  1.00  0.00     0.113 C 
HETATM    7  C1  UNL     1      34.469  16.809  87.107  1.00  0.00     0.025 C 
BRANCH   6   8
HETATM    8  C3  UNL     1      36.021  18.715  87.334  1.00  0.00     0.226 C 
HETATM    9  O1  UNL     1      37.216  18.907  87.659  1.00  0.00    -0.273 OA
HETATM   10  N1  UNL     1      35.032  19.613  87.802  1.00  0.00    -0.356 N 
ATOM     11  H1  UNL     1      34.059  19.457  87.539  1.00  0.00     0.162 HD
BRANCH  10  12
HETATM   12  C4  UNL     1      35.357  20.747  88.642  1.00  0.00     0.084 C 
HETATM   13  C5  UNL     1      35.148  20.395  90.122  1.00  0.00     0.025 C 
HETATM   14  C6  UNL     1      35.694  21.547  90.916  1.00  0.00     0.002 C 
HETATM   15  C7  UNL     1      35.009  22.850  90.619  1.00  0.00     0.000 C 
HETATM   16  C8  UNL     1      34.783  23.102  89.162  1.00  0.00     0.002 C 
HETATM   17  C9  UNL     1      34.415  21.899  88.370  1.00  0.00     0.025 C 
ENDBRANCH  10  12
ENDBRANCH   6   8
ENDBRANCH   1   6
BRANCH   3  18
HETATM   18  C13 UNL     1      40.009  15.781  84.750  1.00  0.00    -0.066 C 
BRANCH  18  19
HETATM   19  C14 UNL     1      41.033  15.798  84.108  1.00  0.00    -0.091 C 
BRANCH  19  20
HETATM   20  C15 UNL     1      42.270  15.795  83.342  1.00  0.00     0.025 C 
HETATM   21  C16 UNL     1      43.489  15.694  84.246  1.00  0.00     0.027 C 
HETATM   22  C17 UNL     1      44.709  15.620  83.391  1.00  0.00    -0.012 C 
HETATM   23  C18 UNL     1      44.856  16.894  82.603  1.00  0.00     0.009 C 
HETATM   24  C22 UNL     1      44.685  14.462  82.429  1.00  0.00     0.009 C 
HETATM   25  C19 UNL     1      43.640  17.069  81.733  1.00  0.00    -0.012 C 
HETATM   26  C20 UNL     1      43.613  15.904  80.760  1.00  0.00     0.009 C 
HETATM   27  C24 UNL     1      42.357  17.070  82.570  1.00  0.00     0.027 C 
HETATM   28  C21 UNL     1      43.478  14.622  81.526  1.00  0.00    -0.012 C 
HETATM   29  C23 UNL     1      42.253  14.619  82.404  1.00  0.00     0.027 C 
ENDBRANCH  19  20
ENDBRANCH  18  19
ENDBRANCH   3  18
TORSDOF 6
ENDMDL
MODEL 2
REMARK VINA RESULT: -7.449339018      0.313      1.425
REMARK  6 active torsions:
REMARK  status: ('A' for Active; 'I' for Inactive)
REMARK    1  A    between atoms: C2_2  and  C3_3 
REMARK    2  A    between atoms: C2_2  and  C10_13 
REMARK       I    between atoms: C3_3  and  N1_5 
REMARK    3  A    between atoms: N1_5  and  C4_7 
REMARK    4  A    between atoms: C12_15  and  C13_16 
REMARK    5  A    between atoms: C13_16  and  C14_17 
REMARK    6  A    between atoms: C14_17  and  C15_18 
ROOT
HETATM    1  C10 UNL     1      36.513  16.700  86.495  1.00  0.00    -0.003 A 
HETATM    2  C11 UNL     1      37.631  16.823  85.719  1.00  0.00     0.036 A 
HETATM    3  C12 UNL     1      38.508  15.797  85.730  1.00  0.00     0.025 A 
HETATM    4  C25 UNL     1      38.194  14.721  86.523  1.00  0.00     0.070 A 
HETATM    5  S1  UNL     1      36.706  15.171  87.217  1.00  0.00    -0.104 SA
ENDROOT
BRANCH   1   6
HETATM    6  C2  UNL     1      35.381  17.682  86.671  1.00  0.00     0.113 C 
HETATM    7  C1  UNL     1      34.253  16.947  87.355  1.00  0.00     0.025 C 
BRANCH   6   8
HETATM    8  C3  UNL     1      35.831  18.841  87.484  1.00  0.00     0.226 C 
HETATM    9  O1  UNL     1      37.024  18.982  87.841  1.00  0.00    -0.273 OA
HETATM   10  N1  UNL     1      34.882  19.817  87.868  1.00  0.00    -0.356 N 
ATOM     11  H1  UNL     1      33.910  19.702  87.578  1.00  0.00     0.162 HD
BRANCH  10  12
HETATM   12  C4  UNL     1      35.244  20.974  88.660  1.00  0.00     0.084 C 
HETATM   13  C5  UNL     1      35.153  20.648  90.158  1.00  0.00     0.025 C 
HETATM   14  C6  UNL     1      35.732  21.826  90.887  1.00  0.00     0.002 C 
HETATM   15  C7  UNL     1      34.999  23.110  90.618  1.00  0.00     0.000 C 
HETATM   16  C8  UNL     1      34.660  23.327  89.178  1.00  0.00     0.002 C 
HETATM   17  C9  UNL     1      34.259  22.102  88.438  1.00  0.00     0.025 C 
ENDBRANCH  10  12
ENDBRANCH   6   8
ENDBRANCH   1   6
BRANCH   3  18
HETATM   18  C13 UNL     1      39.749  15.823  84.930  1.00  0.00    -0.066 C 
BRANCH  18  19
HETATM   19  C14 UNL     1      40.770  15.823  84.281  1.00  0.00    -0.091 C 
BRANCH  19  20
HETATM   20  C15 UNL     1      42.002  15.801  83.508  1.00  0.00     0.025 C 
HETATM   21  C16 UNL     1      42.163  17.062  82.673  1.00  0.00     0.027 C 
HETATM   22  C17 UNL     1      43.478  17.001  81.971  1.00  0.00    -0.012 C 
HETATM   23  C18 UNL     1      43.491  15.839  81.014  1.00  0.00     0.009 C 
HETATM   24  C22 UNL     1      44.643  16.857  82.914  1.00  0.00     0.009 C 
HETATM   25  C19 UNL     1      43.275  14.568  81.790  1.00  0.00    -0.012 C 
HETATM   26  C20 UNL     1      44.448  14.418  82.742  1.00  0.00     0.009 C 
HETATM   27  C24 UNL     1      41.969  14.624  82.590  1.00  0.00     0.027 C 
HETATM   28  C21 UNL     1      44.461  15.572  83.698  1.00  0.00    -0.012 C 
HETATM   29  C23 UNL     1      43.164  15.687  84.457  1.00  0.00     0.027 C 
ENDBRANCH  19  20
ENDBRANCH  18  19
ENDBRANCH   3  18
TORSDOF 6
ENDMDL
MODEL 3
REMARK VINA RESULT: -7.441890616      0.289      1.424
REMARK  6 active torsions:
REMARK  status: ('A' for Active; 'I' for Inactive)
REMARK    1  A    between atoms: C2_2  and  C3_3 
REMARK    2  A    between atoms: C2_2  and  C10_13 
REMARK       I    between atoms: C3_3  and  N1_5 
REMARK    3  A    between atoms: N1_5  and  C4_7 
REMARK    4  A    between atoms: C12_15  and  C13_16 
REMARK    5  A    between atoms: C13_16  and  C14_17 
REMARK    6  A    between atoms: C14_17  and  C15_18 
ROOT
HETATM    1  C10 UNL     1      36.535  16.708  86.478  1.00  0.00    -0.003 A 
HETATM    2  C11 UNL     1      37.650  16.812  85.694  1.00  0.00     0.036 A 
HETATM    3  C12 UNL     1      38.520  15.780  85.715  1.00  0.00     0.025 A 
HETATM    4  C25 UNL     1      38.203  14.718  86.524  1.00  0.00     0.070 A 
HETATM    5  S1  UNL     1      36.721  15.188  87.219  1.00  0.00    -0.104 SA
ENDROOT
BRANCH   1   6
HETATM    6  C2  UNL     1      35.411  17.700  86.645  1.00  0.00     0.113 C 
HETATM    7  C1  UNL     1      34.261  16.969  87.296  1.00  0.00     0.025 C 
BRANCH   6   8
HETATM    8  C3  UNL     1      35.858  18.842  87.484  1.00  0.00     0.226 C 
HETATM    9  O1  UNL     1      37.047  18.969  87.859  1.00  0.00    -0.273 OA
HETATM   10  N1  UNL     1      34.909  19.818  87.872  1.00  0.00    -0.356 N 
ATOM     11  H1  UNL     1      33.941  19.714  87.568  1.00  0.00     0.162 HD
BRANCH  10  12
HETATM   12  C4  UNL     1      35.268  20.959  88.689  1.00  0.00     0.084 C 
HETATM   13  C5  UNL     1      35.159  20.607  90.180  1.00  0.00     0.025 C 
HETATM   14  C6  UNL     1      35.736  21.768  90.936  1.00  0.00     0.002 C 
HETATM   15  C7  UNL     1      35.012  23.060  90.683  1.00  0.00     0.000 C 
HETATM   16  C8  UNL     1      34.690  23.305  89.242  1.00  0.00     0.002 C 
HETATM   17  C9  UNL     1      34.292  22.095  88.477  1.00  0.00     0.025 C 
ENDBRANCH  10  12
ENDBRANCH   6   8
ENDBRANCH   1   6
BRANCH   3  18
HETATM   18  C13 UNL     1      39.758  15.787  84.909  1.00  0.00    -0.066 C 
BRANCH  18  19
HETATM   19  C14 UNL     1      40.778  15.775  84.261  1.00  0.00    -0.091 C 
BRANCH  19  20
HETATM   20  C15 UNL     1      42.015  15.742  83.496  1.00  0.00     0.025 C 
HETATM   21  C16 UNL     1      42.045  14.570  82.527  1.00  0.00     0.027 C 
HETATM   22  C17 UNL     1      43.303  14.647  81.729  1.00  0.00    -0.012 C 
HETATM   23  C18 UNL     1      44.493  14.491  82.637  1.00  0.00     0.009 C 
HETATM   24  C22 UNL     1      43.444  15.942  80.973  1.00  0.00     0.009 C 
HETATM   25  C19 UNL     1      44.474  15.600  83.656  1.00  0.00    -0.012 C 
HETATM   26  C20 UNL     1      44.617  16.907  82.898  1.00  0.00     0.009 C 
HETATM   27  C24 UNL     1      43.160  15.603  84.444  1.00  0.00     0.027 C 
HETATM   28  C21 UNL     1      43.446  17.078  81.977  1.00  0.00    -0.012 C 
HETATM   29  C23 UNL     1      42.136  17.026  82.720  1.00  0.00     0.027 C 
ENDBRANCH  19  20
ENDBRANCH  18  19
ENDBRANCH   3  18
TORSDOF 6
ENDMDL
MODEL 4
REMARK VINA RESULT: -6.078892704      1.845      2.761
REMARK  6 active torsions:
REMARK  status: ('A' for Active; 'I' for Inactive)
REMARK    1  A    between atoms: C2_2  and  C3_3 
REMARK    2  A    between atoms: C2_2  and  C10_13 
REMARK       I    between atoms: C3_3  and  N1_5 
REMARK    3  A    between atoms: N1_5  and  C4_7 
REMARK    4  A    between atoms: C12_15  and  C13_16 
REMARK    5  A    between atoms: C13_16  and  C14_17 
REMARK    6  A    between atoms: C14_17  and  C15_18 
ROOT
HETATM    1  C10 UNL     1      37.291  15.990  86.047  1.00  0.00    -0.003 A 
HETATM    2  C11 UNL     1      38.236  15.221  85.428  1.00  0.00     0.036 A 
HETATM    3  C12 UNL     1      39.017  15.824  84.506  1.00  0.00     0.025 A 
HETATM    4  C25 UNL     1      38.787  17.157  84.275  1.00  0.00     0.070 A 
HETATM    5  S1  UNL     1      37.507  17.521  85.338  1.00  0.00    -0.104 SA
ENDROOT
BRANCH   1   6
HETATM    6  C2  UNL     1      36.295  15.580  87.104  1.00  0.00     0.113 C 
HETATM    7  C1  UNL     1      37.083  15.116  88.306  1.00  0.00     0.025 C 
BRANCH   6   8
HETATM    8  C3  UNL     1      35.420  16.729  87.454  1.00  0.00     0.226 C 
HETATM    9  O1  UNL     1      34.169  16.645  87.435  1.00  0.00    -0.273 OA
HETATM   10  N1  UNL     1      36.018  17.959  87.819  1.00  0.00    -0.356 N 
ATOM     11  H1  UNL     1      37.035  18.028  87.833  1.00  0.00     0.162 HD
BRANCH  10  12
HETATM   12  C4  UNL     1      35.232  19.123  88.172  1.00  0.00     0.084 C 
HETATM   13  C5  UNL     1      34.976  19.993  86.933  1.00  0.00     0.025 C 
HETATM   14  C6  UNL     1      33.999  21.054  87.350  1.00  0.00     0.002 C 
HETATM   15  C7  UNL     1      34.507  21.924  88.465  1.00  0.00     0.000 C 
HETATM   16  C8  UNL     1      35.173  21.168  89.571  1.00  0.00     0.002 C 
HETATM   17  C9  UNL     1      35.995  20.011  89.131  1.00  0.00     0.025 C 
ENDBRANCH  10  12
ENDBRANCH   6   8
ENDBRANCH   1   6
BRANCH   3  18
HETATM   18  C13 UNL     1      40.069  15.089  83.775  1.00  0.00    -0.066 C 
BRANCH  18  19
HETATM   19  C14 UNL     1      40.927  14.501  83.159  1.00  0.00    -0.091 C 
BRANCH  19  20
HETATM   20  C15 UNL     1      41.958  13.810  82.399  1.00  0.00     0.025 C 
HETATM   21  C16 UNL     1      42.285  12.453  83.004  1.00  0.00     0.027 C 
HETATM   22  C17 UNL     1      43.289  11.775  82.133  1.00  0.00    -0.012 C 
HETATM   23  C18 UNL     1      44.569  12.567  82.120  1.00  0.00     0.009 C 
HETATM   24  C22 UNL     1      42.817  11.605  80.713  1.00  0.00     0.009 C 
HETATM   25  C19 UNL     1      44.283  13.944  81.583  1.00  0.00    -0.012 C 
HETATM   26  C20 UNL     1      43.808  13.777  80.150  1.00  0.00     0.009 C 
HETATM   27  C24 UNL     1      43.196  14.643  82.406  1.00  0.00     0.027 C 
HETATM   28  C21 UNL     1      42.538  12.980  80.138  1.00  0.00    -0.012 C 
HETATM   29  C23 UNL     1      41.468  13.616  80.989  1.00  0.00     0.027 C 
ENDBRANCH  19  20
ENDBRANCH  18  19
ENDBRANCH   3  18
TORSDOF 6
ENDMDL
MODEL 5
REMARK VINA RESULT: -6.068928654      3.651     10.651
REMARK  6 active torsions:
REMARK  status: ('A' for Active; 'I' for Inactive)
REMARK    1  A    between atoms: C2_2  and  C3_3 
REMARK    2  A    between atoms: C2_2  and  C10_13 
REMARK       I    between atoms: C3_3  and  N1_5 
REMARK    3  A    between atoms: N1_5  and  C4_7 
REMARK    4  A    between atoms: C12_15  and  C13_16 
REMARK    5  A    between atoms: C13_16  and  C14_17 
REMARK    6  A    between atoms: C14_17  and  C15_18 
ROOT
HETATM    1  C10 UNL     1      41.715  15.779  83.909  1.00  0.00    -0.003 A 
HETATM    2  C11 UNL     1      40.561  16.233  84.484  1.00  0.00     0.036 A 
HETATM    3  C12 UNL     1      39.865  15.364  85.247  1.00  0.00     0.025 A 
HETATM    4  C25 UNL     1      40.383  14.099  85.374  1.00  0.00     0.070 A 
HETATM    5  S1  UNL     1      41.804  14.164  84.439  1.00  0.00    -0.104 SA
ENDROOT
BRANCH   1   6
HETATM    6  C2  UNL     1      42.677  16.527  83.020  1.00  0.00     0.113 C 
HETATM    7  C1  UNL     1      43.864  16.914  83.870  1.00  0.00     0.025 C 
BRANCH   6   8
HETATM    8  C3  UNL     1      43.096  15.666  81.883  1.00  0.00     0.226 C 
HETATM    9  O1  UNL     1      43.858  16.081  80.978  1.00  0.00    -0.273 OA
HETATM   10  N1  UNL     1      42.618  14.336  81.819  1.00  0.00    -0.356 N 
ATOM     11  H1  UNL     1      41.997  13.999  82.555  1.00  0.00     0.162 HD
BRANCH  10  12
HETATM   12  C4  UNL     1      42.981  13.438  80.743  1.00  0.00     0.084 C 
HETATM   13  C5  UNL     1      41.784  13.210  79.808  1.00  0.00     0.025 C 
HETATM   14  C6  UNL     1      42.303  12.439  78.629  1.00  0.00     0.002 C 
HETATM   15  C7  UNL     1      42.895  11.109  79.003  1.00  0.00     0.000 C 
HETATM   16  C8  UNL     1      43.784  11.155  80.205  1.00  0.00     0.002 C 
HETATM   17  C9  UNL     1      43.328  12.068  81.285  1.00  0.00     0.025 C 
ENDBRANCH  10  12
ENDBRANCH   6   8
ENDBRANCH   1   6
BRANCH   3  18
HETATM   18  C13 UNL     1      38.605  15.748  85.914  1.00  0.00    -0.066 C 
BRANCH  18  19
HETATM   19  C14 UNL     1      37.580  16.052  86.479  1.00  0.00    -0.091 C 
BRANCH  19  20
HETATM   20  C15 UNL     1      36.360  16.420  87.181  1.00  0.00     0.025 C 
HETATM   21  C16 UNL     1      35.129  16.207  86.313  1.00  0.00     0.027 C 
HETATM   22  C17 UNL     1      33.917  16.533  87.121  1.00  0.00    -0.012 C 
HETATM   23  C18 UNL     1      33.935  17.988  87.502  1.00  0.00     0.009 C 
HETATM   24  C22 UNL     1      33.809  15.711  88.378  1.00  0.00     0.009 C 
HETATM   25  C19 UNL     1      35.173  18.262  88.315  1.00  0.00    -0.012 C 
HETATM   26  C20 UNL     1      35.067  17.436  89.585  1.00  0.00     0.009 C 
HETATM   27  C24 UNL     1      36.437  17.865  87.547  1.00  0.00     0.027 C 
HETATM   28  C21 UNL     1      35.036  15.980  89.227  1.00  0.00    -0.012 C 
HETATM   29  C23 UNL     1      36.242  15.575  88.420  1.00  0.00     0.027 C 
ENDBRANCH  19  20
ENDBRANCH  18  19
ENDBRANCH   3  18
TORSDOF 6
ENDMDL
