MODEL 1
REMARK VINA RESULT: -9.301765383      0.000      0.000
REMARK  4 active torsions:
REMARK  status: ('A' for Active; 'I' for Inactive)
REMARK    1  A    between atoms: C5_5  and  C6_6 
REMARK    2  A    between atoms: C6_6  and  N1_8 
REMARK    3  A    between atoms: N1_8  and  C7_10 
REMARK    4  A    between atoms: C7_10  and  C8_11 
ROOT
HETATM    1  C6  UNL     1      42.803  16.441  83.230  1.00  0.00     0.103 C 
HETATM    2  S1  UNL     1      42.339  17.964  82.795  1.00  0.00    -0.060 SA
ENDROOT
BRANCH   1   3
HETATM    3  C5  UNL     1      43.811  15.704  82.429  1.00  0.00    -0.017 A 
HETATM    4  C4  UNL     1      44.799  16.361  81.525  1.00  0.00     0.043 A 
HETATM    5  C3  UNL     1      45.652  15.267  80.942  1.00  0.00     0.019 A 
HETATM    6  C2  UNL     1      45.076  14.019  81.407  1.00  0.00    -0.007 A 
HETATM    7  C1  UNL     1      46.099  13.306  82.294  1.00  0.00     0.021 C 
HETATM    8  C17 UNL     1      43.974  14.424  82.355  1.00  0.00    -0.061 A 
HETATM    9  C23 UNL     1      44.604  13.032  80.399  1.00  0.00     0.063 C 
HETATM   10  C18 UNL     1      43.319  13.217  82.991  1.00  0.00     0.036 C 
HETATM   11  C19 UNL     1      42.682  12.478  81.828  1.00  0.00     0.010 C 
HETATM   12  C20 UNL     1      43.774  11.926  80.967  1.00  0.00     0.001 C 
HETATM   13  C21 UNL     1      43.112  11.259  79.781  1.00  0.00     0.016 C 
HETATM   14  C22 UNL     1      42.290  12.309  79.067  1.00  0.00     0.075 C 
HETATM   15  S2  UNL     1      43.404  13.764  79.220  1.00  0.00    -0.163 SA
ENDBRANCH   1   3
BRANCH   1  16
HETATM   16  N1  UNL     1      42.164  15.922  84.366  1.00  0.00    -0.380 N 
ATOM     17  H1  UNL     1      42.616  15.102  84.771  1.00  0.00     0.160 HD
BRANCH  16  18
HETATM   18  C7  UNL     1      40.993  16.348  85.045  1.00  0.00     0.130 C 
BRANCH  18  19
HETATM   19  C8  UNL     1      39.779  15.509  84.721  1.00  0.00    -0.020 C 
HETATM   20  C9  UNL     1      39.949  14.603  83.542  1.00  0.00     0.016 C 
HETATM   21  C10 UNL     1      38.832  13.585  83.829  1.00  0.00    -0.013 C 
HETATM   22  C11 UNL     1      37.524  14.317  83.733  1.00  0.00     0.009 C 
HETATM   23  C15 UNL     1      39.182  13.258  85.286  1.00  0.00     0.010 C 
HETATM   24  C12 UNL     1      37.455  15.510  84.627  1.00  0.00    -0.013 C 
HETATM   25  C13 UNL     1      37.806  15.096  86.064  1.00  0.00     0.010 C 
HETATM   26  C16 UNL     1      38.633  16.461  84.360  1.00  0.00     0.016 C 
HETATM   27  C14 UNL     1      39.270  14.684  85.852  1.00  0.00    -0.004 C 
ENDBRANCH  18  19
ENDBRANCH  16  18
ENDBRANCH   1  16
TORSDOF 4
ENDMDL
MODEL 2
REMARK VINA RESULT: -9.210019920      1.043      1.917
REMARK  4 active torsions:
REMARK  status: ('A' for Active; 'I' for Inactive)
REMARK    1  A    between atoms: C5_5  and  C6_6 
REMARK    2  A    between atoms: C6_6  and  N1_8 
REMARK    3  A    between atoms: N1_8  and  C7_10 
REMARK    4  A    between atoms: C7_10  and  C8_11 
ROOT
HETATM    1  C6  UNL     1      42.782  16.372  83.720  1.00  0.00     0.103 C 
HETATM    2  S1  UNL     1      43.415  17.195  85.004  1.00  0.00    -0.060 SA
ENDROOT
BRANCH   1   3
HETATM    3  C5  UNL     1      43.639  16.000  82.568  1.00  0.00    -0.017 A 
HETATM    4  C4  UNL     1      44.092  16.962  81.522  1.00  0.00     0.043 A 
HETATM    5  C3  UNL     1      44.968  16.191  80.570  1.00  0.00     0.019 A 
HETATM    6  C2  UNL     1      44.904  14.806  80.999  1.00  0.00    -0.007 A 
HETATM    7  C1  UNL     1      46.300  14.367  81.447  1.00  0.00     0.021 C 
HETATM    8  C17 UNL     1      44.091  14.825  82.270  1.00  0.00    -0.061 A 
HETATM    9  C23 UNL     1      44.407  13.785  80.039  1.00  0.00     0.063 C 
HETATM   10  C18 UNL     1      43.998  13.448  82.889  1.00  0.00     0.036 C 
HETATM   11  C19 UNL     1      43.238  12.625  81.865  1.00  0.00     0.010 C 
HETATM   12  C20 UNL     1      44.107  12.458  80.659  1.00  0.00     0.001 C 
HETATM   13  C21 UNL     1      43.299  11.697  79.629  1.00  0.00     0.016 C 
HETATM   14  C22 UNL     1      42.055  12.508  79.337  1.00  0.00     0.075 C 
HETATM   15  S2  UNL     1      42.752  14.210  79.369  1.00  0.00    -0.163 SA
ENDBRANCH   1   3
BRANCH   1  16
HETATM   16  N1  UNL     1      41.410  16.091  83.806  1.00  0.00    -0.380 N 
ATOM     17  H1  UNL     1      40.813  16.717  83.267  1.00  0.00     0.160 HD
BRANCH  16  18
HETATM   18  C7  UNL     1      40.715  15.079  84.519  1.00  0.00     0.130 C 
BRANCH  18  19
HETATM   19  C8  UNL     1      39.382  15.541  85.060  1.00  0.00    -0.020 C 
HETATM   20  C9  UNL     1      39.474  16.603  86.109  1.00  0.00     0.016 C 
HETATM   21  C10 UNL     1      38.052  17.183  86.023  1.00  0.00    -0.013 C 
HETATM   22  C11 UNL     1      37.102  16.105  86.461  1.00  0.00     0.009 C 
HETATM   23  C15 UNL     1      37.982  17.405  84.507  1.00  0.00     0.010 C 
HETATM   24  C12 UNL     1      37.253  14.840  85.682  1.00  0.00    -0.013 C 
HETATM   25  C13 UNL     1      37.160  15.148  84.180  1.00  0.00     0.010 C 
HETATM   26  C16 UNL     1      38.707  14.340  85.731  1.00  0.00     0.016 C 
HETATM   27  C14 UNL     1      38.419  16.013  84.026  1.00  0.00    -0.004 C 
ENDBRANCH  18  19
ENDBRANCH  16  18
ENDBRANCH   1  16
TORSDOF 4
ENDMDL
MODEL 3
REMARK VINA RESULT: -9.146621192      1.935      3.677
REMARK  4 active torsions:
REMARK  status: ('A' for Active; 'I' for Inactive)
REMARK    1  A    between atoms: C5_5  and  C6_6 
REMARK    2  A    between atoms: C6_6  and  N1_8 
REMARK    3  A    between atoms: N1_8  and  C7_10 
REMARK    4  A    between atoms: C7_10  and  C8_11 
ROOT
HETATM    1  C6  UNL     1      40.979  14.012  83.570  1.00  0.00     0.103 C 
HETATM    2  S1  UNL     1      40.290  12.770  84.411  1.00  0.00    -0.060 SA
ENDROOT
BRANCH   1   3
HETATM    3  C5  UNL     1      41.869  13.736  82.416  1.00  0.00    -0.017 A 
HETATM    4  C4  UNL     1      42.093  12.377  81.842  1.00  0.00     0.043 A 
HETATM    5  C3  UNL     1      43.022  12.546  80.670  1.00  0.00     0.019 A 
HETATM    6  C2  UNL     1      43.411  13.944  80.665  1.00  0.00    -0.007 A 
HETATM    7  C1  UNL     1      42.894  14.592  79.379  1.00  0.00     0.021 C 
HETATM    8  C17 UNL     1      42.596  14.583  81.762  1.00  0.00    -0.061 A 
HETATM    9  C23 UNL     1      44.855  14.282  80.780  1.00  0.00     0.063 C 
HETATM   10  C18 UNL     1      42.835  16.075  81.833  1.00  0.00     0.036 C 
HETATM   11  C19 UNL     1      44.301  16.205  82.209  1.00  0.00     0.010 C 
HETATM   12  C20 UNL     1      45.125  15.727  81.056  1.00  0.00     0.001 C 
HETATM   13  C21 UNL     1      46.575  15.799  81.485  1.00  0.00     0.016 C 
HETATM   14  C22 UNL     1      46.732  14.924  82.709  1.00  0.00     0.075 C 
HETATM   15  S2  UNL     1      45.631  13.521  82.258  1.00  0.00    -0.163 SA
ENDBRANCH   1   3
BRANCH   1  16
HETATM   16  N1  UNL     1      40.676  15.297  84.044  1.00  0.00    -0.380 N 
ATOM     17  H1  UNL     1      40.638  16.018  83.324  1.00  0.00     0.160 HD
BRANCH  16  18
HETATM   18  C7  UNL     1      40.414  15.761  85.360  1.00  0.00     0.130 C 
BRANCH  18  19
HETATM   19  C8  UNL     1      38.967  16.140  85.579  1.00  0.00    -0.020 C 
HETATM   20  C9  UNL     1      38.763  17.283  86.523  1.00  0.00     0.016 C 
HETATM   21  C10 UNL     1      37.350  17.723  86.102  1.00  0.00    -0.013 C 
HETATM   22  C11 UNL     1      36.413  16.600  86.440  1.00  0.00     0.009 C 
HETATM   23  C15 UNL     1      37.578  17.823  84.588  1.00  0.00     0.010 C 
HETATM   24  C12 UNL     1      36.813  15.299  85.828  1.00  0.00    -0.013 C 
HETATM   25  C13 UNL     1      37.008  15.482  84.315  1.00  0.00     0.010 C 
HETATM   26  C16 UNL     1      38.258  14.937  86.211  1.00  0.00     0.016 C 
HETATM   27  C14 UNL     1      38.206  16.443  84.335  1.00  0.00    -0.004 C 
ENDBRANCH  18  19
ENDBRANCH  16  18
ENDBRANCH   1  16
TORSDOF 4
ENDMDL
MODEL 4
REMARK VINA RESULT: -8.623425305      1.997      3.503
REMARK  4 active torsions:
REMARK  status: ('A' for Active; 'I' for Inactive)
REMARK    1  A    between atoms: C5_5  and  C6_6 
REMARK    2  A    between atoms: C6_6  and  N1_8 
REMARK    3  A    between atoms: N1_8  and  C7_10 
REMARK    4  A    between atoms: C7_10  and  C8_11 
ROOT
HETATM    1  C6  UNL     1      40.898  14.144  83.824  1.00  0.00     0.103 C 
HETATM    2  S1  UNL     1      40.211  12.911  84.681  1.00  0.00    -0.060 SA
ENDROOT
BRANCH   1   3
HETATM    3  C5  UNL     1      41.746  13.857  82.642  1.00  0.00    -0.017 A 
HETATM    4  C4  UNL     1      41.890  12.504  82.028  1.00  0.00     0.043 A 
HETATM    5  C3  UNL     1      42.799  12.659  80.838  1.00  0.00     0.019 A 
HETATM    6  C2  UNL     1      43.255  14.037  80.859  1.00  0.00    -0.007 A 
HETATM    7  C1  UNL     1      42.740  14.743  79.604  1.00  0.00     0.021 C 
HETATM    8  C17 UNL     1      42.498  14.684  81.992  1.00  0.00    -0.061 A 
HETATM    9  C23 UNL     1      44.716  14.303  80.947  1.00  0.00     0.063 C 
HETATM   10  C18 UNL     1      42.810  16.161  82.095  1.00  0.00     0.036 C 
HETATM   11  C19 UNL     1      44.289  16.210  82.438  1.00  0.00     0.010 C 
HETATM   12  C20 UNL     1      45.062  15.725  81.252  1.00  0.00     0.001 C 
HETATM   13  C21 UNL     1      46.523  15.716  81.647  1.00  0.00     0.016 C 
HETATM   14  C22 UNL     1      46.667  14.801  82.844  1.00  0.00     0.075 C 
HETATM   15  S2  UNL     1      45.489  13.466  82.385  1.00  0.00    -0.163 SA
ENDBRANCH   1   3
BRANCH   1  16
HETATM   16  N1  UNL     1      40.636  15.432  84.313  1.00  0.00    -0.380 N 
ATOM     17  H1  UNL     1      41.255  15.736  85.064  1.00  0.00     0.160 HD
BRANCH  16  18
HETATM   18  C7  UNL     1      39.651  16.382  83.937  1.00  0.00     0.130 C 
BRANCH  18  19
HETATM   19  C8  UNL     1      38.464  16.411  84.871  1.00  0.00    -0.020 C 
HETATM   20  C9  UNL     1      37.421  15.378  84.579  1.00  0.00     0.016 C 
HETATM   21  C10 UNL     1      36.709  15.330  85.942  1.00  0.00    -0.013 C 
HETATM   22  C11 UNL     1      36.064  16.669  86.157  1.00  0.00     0.009 C 
HETATM   23  C15 UNL     1      37.939  15.152  86.842  1.00  0.00     0.010 C 
HETATM   24  C12 UNL     1      37.026  17.805  86.054  1.00  0.00    -0.013 C 
HETATM   25  C13 UNL     1      38.217  17.557  86.991  1.00  0.00     0.010 C 
HETATM   26  C16 UNL     1      37.772  17.769  84.709  1.00  0.00     0.016 C 
HETATM   27  C14 UNL     1      38.805  16.308  86.318  1.00  0.00    -0.004 C 
ENDBRANCH  18  19
ENDBRANCH  16  18
ENDBRANCH   1  16
TORSDOF 4
ENDMDL
MODEL 5
REMARK VINA RESULT: -8.306303392      1.693      2.718
REMARK  4 active torsions:
REMARK  status: ('A' for Active; 'I' for Inactive)
REMARK    1  A    between atoms: C5_5  and  C6_6 
REMARK    2  A    between atoms: C6_6  and  N1_8 
REMARK    3  A    between atoms: N1_8  and  C7_10 
REMARK    4  A    between atoms: C7_10  and  C8_11 
ROOT
HETATM    1  C6  UNL     1      41.457  14.389  84.040  1.00  0.00     0.103 C 
HETATM    2  S1  UNL     1      40.877  12.918  83.566  1.00  0.00    -0.060 SA
ENDROOT
BRANCH   1   3
HETATM    3  C5  UNL     1      42.537  15.054  83.271  1.00  0.00    -0.017 A 
HETATM    4  C4  UNL     1      42.540  16.505  82.923  1.00  0.00     0.043 A 
HETATM    5  C3  UNL     1      43.823  16.774  82.184  1.00  0.00     0.019 A 
HETATM    6  C2  UNL     1      44.463  15.483  82.009  1.00  0.00    -0.007 A 
HETATM    7  C1  UNL     1      45.789  15.485  82.774  1.00  0.00     0.021 C 
HETATM    8  C17 UNL     1      43.594  14.508  82.765  1.00  0.00    -0.061 A 
HETATM    9  C23 UNL     1      44.752  15.011  80.628  1.00  0.00     0.063 C 
HETATM   10  C18 UNL     1      44.178  13.113  82.743  1.00  0.00     0.036 C 
HETATM   11  C19 UNL     1      44.151  12.717  81.276  1.00  0.00     0.010 C 
HETATM   12  C20 UNL     1      45.137  13.569  80.543  1.00  0.00     0.001 C 
HETATM   13  C21 UNL     1      45.037  13.205  79.077  1.00  0.00     0.016 C 
HETATM   14  C22 UNL     1      43.612  13.463  78.639  1.00  0.00     0.075 C 
HETATM   15  S2  UNL     1      43.254  15.009  79.569  1.00  0.00    -0.163 SA
ENDBRANCH   1   3
BRANCH   1  16
HETATM   16  N1  UNL     1      40.874  14.917  85.201  1.00  0.00    -0.380 N 
ATOM     17  H1  UNL     1      40.725  14.240  85.948  1.00  0.00     0.160 HD
BRANCH  16  18
HETATM   18  C7  UNL     1      40.457  16.239  85.509  1.00  0.00     0.130 C 
BRANCH  18  19
HETATM   19  C8  UNL     1      38.960  16.367  85.672  1.00  0.00    -0.020 C 
HETATM   20  C9  UNL     1      38.533  17.347  86.719  1.00  0.00     0.016 C 
HETATM   21  C10 UNL     1      37.091  17.616  86.255  1.00  0.00    -0.013 C 
HETATM   22  C11 UNL     1      36.326  16.333  86.406  1.00  0.00     0.009 C 
HETATM   23  C15 UNL     1      37.375  17.928  84.781  1.00  0.00     0.010 C 
HETATM   24  C12 UNL     1      36.955  15.189  85.682  1.00  0.00    -0.013 C 
HETATM   25  C13 UNL     1      37.193  15.577  84.215  1.00  0.00     0.010 C 
HETATM   26  C16 UNL     1      38.418  15.006  86.119  1.00  0.00     0.016 C 
HETATM   27  C14 UNL     1      38.223  16.698  84.420  1.00  0.00    -0.004 C 
ENDBRANCH  18  19
ENDBRANCH  16  18
ENDBRANCH   1  16
TORSDOF 4
ENDMDL
