MODEL 1
REMARK VINA RESULT: -9.940814818      0.000      0.000
REMARK  4 active torsions:
REMARK  status: ('A' for Active; 'I' for Inactive)
REMARK       I    between atoms: C1_2  and  N1_3 
REMARK    1  A    between atoms: C1_2  and  O2_23 
REMARK    2  A    between atoms: C7_12  and  C8_13 
REMARK    3  A    between atoms: C8_13  and  C9_14 
REMARK    4  A    between atoms: O2_23  and  C18_24 
ROOT
HETATM    1  O1  UNL     1      36.926  15.372  83.919  1.00  0.00    -0.238 OA
HETATM    2  C1  UNL     1      37.716  14.843  84.746  1.00  0.00     0.366 C 
HETATM    3  N1  UNL     1      38.842  14.068  84.372  1.00  0.00    -0.292 N 
ATOM      4  H1  UNL     1      38.731  13.077  84.157  1.00  0.00     0.172 HD
HETATM    5  C2  UNL     1      40.000  14.613  84.304  1.00  0.00     0.086 C 
HETATM    6  N2  UNL     1      40.022  15.992  84.626  1.00  0.00    -0.379 N 
ATOM      7  H2  UNL     1      39.132  16.488  84.569  1.00  0.00     0.160 HD
HETATM    8  C3  UNL     1      41.185  16.783  85.031  1.00  0.00     0.121 C 
HETATM    9  C4  UNL     1      42.479  16.132  84.548  1.00  0.00     0.020 C 
HETATM   10  C5  UNL     1      42.426  15.809  83.074  1.00  0.00     0.007 C 
HETATM   11  C6  UNL     1      41.837  14.495  82.750  1.00  0.00     0.001 C 
HETATM   12  C7  UNL     1      42.757  13.460  82.222  1.00  0.00    -0.009 C 
HETATM   13  C15 UNL     1      42.059  12.131  82.526  1.00  0.00     0.006 C 
HETATM   14  C16 UNL     1      40.777  12.486  83.260  1.00  0.00     0.013 C 
HETATM   15  C17 UNL     1      41.173  13.795  83.911  1.00  0.00     0.058 C 
ENDROOT
BRANCH   2  16
HETATM   16  O2  UNL     1      37.462  15.036  86.089  1.00  0.00    -0.298 OA
BRANCH  16  17
HETATM   17  C18 UNL     1      36.454  15.885  86.593  1.00  0.00     0.133 C 
HETATM   18  C19 UNL     1      35.919  15.199  87.857  1.00  0.00     0.032 C 
HETATM   19  C20 UNL     1      34.719  15.968  88.331  1.00  0.00     0.002 C 
HETATM   20  C21 UNL     1      35.086  17.356  88.792  1.00  0.00     0.000 C 
HETATM   21  C22 UNL     1      35.038  18.364  87.686  1.00  0.00     0.000 C 
HETATM   22  C23 UNL     1      36.249  18.373  86.810  1.00  0.00     0.002 C 
HETATM   23  C24 UNL     1      37.139  17.177  87.009  1.00  0.00     0.032 C 
ENDBRANCH  16  17
ENDBRANCH   2  16
BRANCH  12  24
HETATM   24  C8  UNL     1      44.100  13.417  82.853  1.00  0.00     0.009 C 
BRANCH  24  25
HETATM   25  C9  UNL     1      45.159  13.100  81.842  1.00  0.00    -0.014 C 
HETATM   26  C10 UNL     1      44.891  13.715  80.494  1.00  0.00     0.005 C 
HETATM   27  C11 UNL     1      44.735  15.226  80.638  1.00  0.00     0.000 C 
HETATM   28  C12 UNL     1      46.016  15.778  81.179  1.00  0.00     0.000 C 
HETATM   29  C13 UNL     1      46.474  15.141  82.449  1.00  0.00     0.000 C 
HETATM   30  C14 UNL     1      46.521  13.632  82.292  1.00  0.00     0.005 C 
ENDBRANCH  24  25
ENDBRANCH  12  24
TORSDOF 4
ENDMDL
MODEL 2
REMARK VINA RESULT: -9.331945936      0.407      1.221
REMARK  4 active torsions:
REMARK  status: ('A' for Active; 'I' for Inactive)
REMARK       I    between atoms: C1_2  and  N1_3 
REMARK    1  A    between atoms: C1_2  and  O2_23 
REMARK    2  A    between atoms: C7_12  and  C8_13 
REMARK    3  A    between atoms: C8_13  and  C9_14 
REMARK    4  A    between atoms: O2_23  and  C18_24 
ROOT
HETATM    1  O1  UNL     1      37.017  15.338  84.494  1.00  0.00    -0.238 OA
HETATM    2  C1  UNL     1      37.877  14.761  85.211  1.00  0.00     0.366 C 
HETATM    3  N1  UNL     1      38.968  14.024  84.689  1.00  0.00    -0.292 N 
ATOM      4  H1  UNL     1      38.843  13.049  84.416  1.00  0.00     0.172 HD
HETATM    5  C2  UNL     1      40.114  14.583  84.558  1.00  0.00     0.086 C 
HETATM    6  N2  UNL     1      40.161  15.937  84.971  1.00  0.00    -0.379 N 
ATOM      7  H2  UNL     1      39.268  16.428  85.025  1.00  0.00     0.160 HD
HETATM    8  C3  UNL     1      41.352  16.709  85.328  1.00  0.00     0.121 C 
HETATM    9  C4  UNL     1      42.601  16.104  84.690  1.00  0.00     0.020 C 
HETATM   10  C5  UNL     1      42.421  15.882  83.208  1.00  0.00     0.007 C 
HETATM   11  C6  UNL     1      41.810  14.588  82.847  1.00  0.00     0.001 C 
HETATM   12  C7  UNL     1      42.684  13.600  82.171  1.00  0.00    -0.009 C 
HETATM   13  C15 UNL     1      42.019  12.247  82.442  1.00  0.00     0.006 C 
HETATM   14  C16 UNL     1      40.804  12.539  83.307  1.00  0.00     0.013 C 
HETATM   15  C17 UNL     1      41.252  13.804  84.010  1.00  0.00     0.058 C 
ENDROOT
BRANCH   2  16
HETATM   16  O2  UNL     1      37.741  14.860  86.581  1.00  0.00    -0.298 OA
BRANCH  16  17
HETATM   17  C18 UNL     1      37.058  15.906  87.239  1.00  0.00     0.133 C 
HETATM   18  C19 UNL     1      37.092  17.101  86.278  1.00  0.00     0.032 C 
HETATM   19  C20 UNL     1      36.540  18.296  87.003  1.00  0.00     0.002 C 
HETATM   20  C21 UNL     1      35.079  18.129  87.334  1.00  0.00     0.000 C 
HETATM   21  C22 UNL     1      34.858  17.478  88.664  1.00  0.00     0.000 C 
HETATM   22  C23 UNL     1      34.988  15.990  88.649  1.00  0.00     0.002 C 
HETATM   23  C24 UNL     1      35.613  15.457  87.389  1.00  0.00     0.032 C 
ENDBRANCH  16  17
ENDBRANCH   2  16
BRANCH  12  24
HETATM   24  C8  UNL     1      44.077  13.526  82.679  1.00  0.00     0.009 C 
BRANCH  24  25
HETATM   25  C9  UNL     1      45.048  13.330  81.555  1.00  0.00    -0.014 C 
HETATM   26  C10 UNL     1      44.705  14.135  80.330  1.00  0.00     0.005 C 
HETATM   27  C11 UNL     1      44.611  15.613  80.694  1.00  0.00     0.000 C 
HETATM   28  C12 UNL     1      45.946  16.053  81.207  1.00  0.00     0.000 C 
HETATM   29  C13 UNL     1      46.473  15.234  82.338  1.00  0.00     0.000 C 
HETATM   30  C14 UNL     1      46.456  13.761  81.970  1.00  0.00     0.005 C 
ENDBRANCH  24  25
ENDBRANCH  12  24
TORSDOF 4
ENDMDL
MODEL 3
REMARK VINA RESULT: -8.818911413      1.586      2.932
REMARK  4 active torsions:
REMARK  status: ('A' for Active; 'I' for Inactive)
REMARK       I    between atoms: C1_2  and  N1_3 
REMARK    1  A    between atoms: C1_2  and  O2_23 
REMARK    2  A    between atoms: C7_12  and  C8_13 
REMARK    3  A    between atoms: C8_13  and  C9_14 
REMARK    4  A    between atoms: O2_23  and  C18_24 
ROOT
HETATM    1  O1  UNL     1      38.727  17.260  87.072  1.00  0.00    -0.238 OA
HETATM    2  C1  UNL     1      38.482  16.979  85.868  1.00  0.00     0.366 C 
HETATM    3  N1  UNL     1      39.484  16.698  84.907  1.00  0.00    -0.292 N 
ATOM      4  H1  UNL     1      39.951  17.462  84.418  1.00  0.00     0.172 HD
HETATM    5  C2  UNL     1      39.804  15.483  84.652  1.00  0.00     0.086 C 
HETATM    6  N2  UNL     1      39.085  14.516  85.395  1.00  0.00    -0.379 N 
ATOM      7  H2  UNL     1      38.636  14.840  86.252  1.00  0.00     0.160 HD
HETATM    8  C3  UNL     1      38.916  13.100  85.066  1.00  0.00     0.121 C 
HETATM    9  C4  UNL     1      40.037  12.620  84.146  1.00  0.00     0.020 C 
HETATM   10  C5  UNL     1      41.399  12.976  84.691  1.00  0.00     0.007 C 
HETATM   11  C6  UNL     1      41.884  14.317  84.310  1.00  0.00     0.001 C 
HETATM   12  C7  UNL     1      43.027  14.374  83.369  1.00  0.00    -0.009 C 
HETATM   13  C15 UNL     1      42.932  15.762  82.729  1.00  0.00     0.006 C 
HETATM   14  C16 UNL     1      41.696  16.417  83.321  1.00  0.00     0.013 C 
HETATM   15  C17 UNL     1      40.855  15.199  83.644  1.00  0.00     0.058 C 
ENDROOT
BRANCH   2  16
HETATM   16  O2  UNL     1      37.160  16.944  85.475  1.00  0.00    -0.298 OA
BRANCH  16  17
HETATM   17  C18 UNL     1      36.065  16.910  86.366  1.00  0.00     0.133 C 
HETATM   18  C19 UNL     1      36.301  15.699  87.277  1.00  0.00     0.032 C 
HETATM   19  C20 UNL     1      35.075  15.508  88.124  1.00  0.00     0.002 C 
HETATM   20  C21 UNL     1      34.866  16.656  89.080  1.00  0.00     0.000 C 
HETATM   21  C22 UNL     1      34.038  17.755  88.492  1.00  0.00     0.000 C 
HETATM   22  C23 UNL     1      34.794  18.683  87.598  1.00  0.00     0.002 C 
HETATM   23  C24 UNL     1      36.154  18.168  87.214  1.00  0.00     0.032 C 
ENDBRANCH  16  17
ENDBRANCH   2  16
BRANCH  12  24
HETATM   24  C8  UNL     1      43.002  13.372  82.274  1.00  0.00     0.009 C 
BRANCH  24  25
HETATM   25  C9  UNL     1      43.651  13.912  81.036  1.00  0.00    -0.014 C 
HETATM   26  C10 UNL     1      44.536  12.909  80.346  1.00  0.00     0.005 C 
HETATM   27  C11 UNL     1      43.733  11.655  80.015  1.00  0.00     0.000 C 
HETATM   28  C12 UNL     1      42.622  12.043  79.089  1.00  0.00     0.000 C 
HETATM   29  C13 UNL     1      41.752  13.144  79.598  1.00  0.00     0.000 C 
HETATM   30  C14 UNL     1      42.600  14.335  80.008  1.00  0.00     0.005 C 
ENDBRANCH  24  25
ENDBRANCH  12  24
TORSDOF 4
ENDMDL
MODEL 4
REMARK VINA RESULT: -8.330975219      1.332      2.725
REMARK  4 active torsions:
REMARK  status: ('A' for Active; 'I' for Inactive)
REMARK       I    between atoms: C1_2  and  N1_3 
REMARK    1  A    between atoms: C1_2  and  O2_23 
REMARK    2  A    between atoms: C7_12  and  C8_13 
REMARK    3  A    between atoms: C8_13  and  C9_14 
REMARK    4  A    between atoms: O2_23  and  C18_24 
ROOT
HETATM    1  O1  UNL     1      38.421  15.798  87.667  1.00  0.00    -0.238 OA
HETATM    2  C1  UNL     1      38.199  15.939  86.434  1.00  0.00     0.366 C 
HETATM    3  N1  UNL     1      39.216  16.158  85.473  1.00  0.00    -0.292 N 
ATOM      4  H1  UNL     1      39.568  17.102  85.308  1.00  0.00     0.172 HD
HETATM    5  C2  UNL     1      39.695  15.171  84.811  1.00  0.00     0.086 C 
HETATM    6  N2  UNL     1      39.126  13.915  85.131  1.00  0.00    -0.379 N 
ATOM      7  H2  UNL     1      38.649  13.846  86.031  1.00  0.00     0.160 HD
HETATM    8  C3  UNL     1      39.148  12.703  84.311  1.00  0.00     0.121 C 
HETATM    9  C4  UNL     1      40.311  12.740  83.321  1.00  0.00     0.020 C 
HETATM   10  C5  UNL     1      41.619  13.054  84.006  1.00  0.00     0.007 C 
HETATM   11  C6  UNL     1      41.911  14.493  84.149  1.00  0.00     0.001 C 
HETATM   12  C7  UNL     1      43.022  15.037  83.332  1.00  0.00    -0.009 C 
HETATM   13  C15 UNL     1      42.728  16.537  83.230  1.00  0.00     0.006 C 
HETATM   14  C16 UNL     1      41.423  16.763  83.973  1.00  0.00     0.013 C 
HETATM   15  C17 UNL     1      40.761  15.410  83.807  1.00  0.00     0.058 C 
ENDROOT
BRANCH   2  16
HETATM   16  O2  UNL     1      36.888  15.872  86.007  1.00  0.00    -0.298 OA
BRANCH  16  17
HETATM   17  C18 UNL     1      35.837  16.650  86.540  1.00  0.00     0.133 C 
HETATM   18  C19 UNL     1      35.240  15.821  87.685  1.00  0.00     0.032 C 
HETATM   19  C20 UNL     1      34.001  16.521  88.167  1.00  0.00     0.002 C 
HETATM   20  C21 UNL     1      34.316  17.853  88.799  1.00  0.00     0.000 C 
HETATM   21  C22 UNL     1      34.317  18.977  87.811  1.00  0.00     0.000 C 
HETATM   22  C23 UNL     1      35.577  19.096  87.016  1.00  0.00     0.002 C 
HETATM   23  C24 UNL     1      36.474  17.895  87.136  1.00  0.00     0.032 C 
ENDBRANCH  16  17
ENDBRANCH   2  16
BRANCH  12  24
HETATM   24  C8  UNL     1      43.119  14.502  81.951  1.00  0.00     0.009 C 
BRANCH  24  25
HETATM   25  C9  UNL     1      44.458  13.876  81.710  1.00  0.00    -0.014 C 
HETATM   26  C10 UNL     1      44.479  12.398  81.995  1.00  0.00     0.005 C 
HETATM   27  C11 UNL     1      43.411  11.696  81.161  1.00  0.00     0.000 C 
HETATM   28  C12 UNL     1      43.729  11.918  79.715  1.00  0.00     0.000 C 
HETATM   29  C13 UNL     1      43.885  13.352  79.331  1.00  0.00     0.000 C 
HETATM   30  C14 UNL     1      44.881  14.036  80.249  1.00  0.00     0.005 C 
ENDBRANCH  24  25
ENDBRANCH  12  24
TORSDOF 4
ENDMDL
MODEL 5
REMARK VINA RESULT: -8.072947550      1.086      2.265
REMARK  4 active torsions:
REMARK  status: ('A' for Active; 'I' for Inactive)
REMARK       I    between atoms: C1_2  and  N1_3 
REMARK    1  A    between atoms: C1_2  and  O2_23 
REMARK    2  A    between atoms: C7_12  and  C8_13 
REMARK    3  A    between atoms: C8_13  and  C9_14 
REMARK    4  A    between atoms: O2_23  and  C18_24 
ROOT
HETATM    1  O1  UNL     1      38.318  15.529  87.753  1.00  0.00    -0.238 OA
HETATM    2  C1  UNL     1      38.166  15.770  86.526  1.00  0.00     0.366 C 
HETATM    3  N1  UNL     1      39.240  16.020  85.636  1.00  0.00    -0.292 N 
ATOM      4  H1  UNL     1      39.634  16.959  85.561  1.00  0.00     0.172 HD
HETATM    5  C2  UNL     1      39.718  15.066  84.926  1.00  0.00     0.086 C 
HETATM    6  N2  UNL     1      39.088  13.813  85.120  1.00  0.00    -0.379 N 
ATOM      7  H2  UNL     1      38.563  13.697  85.987  1.00  0.00     0.160 HD
HETATM    8  C3  UNL     1      39.110  12.666  84.212  1.00  0.00     0.121 C 
HETATM    9  C4  UNL     1      40.324  12.730  83.287  1.00  0.00     0.020 C 
HETATM   10  C5  UNL     1      41.604  12.940  84.058  1.00  0.00     0.007 C 
HETATM   11  C6  UNL     1      41.939  14.352  84.325  1.00  0.00     0.001 C 
HETATM   12  C7  UNL     1      43.111  14.910  83.608  1.00  0.00    -0.009 C 
HETATM   13  C15 UNL     1      42.877  16.424  83.606  1.00  0.00     0.006 C 
HETATM   14  C16 UNL     1      41.543  16.646  84.298  1.00  0.00     0.013 C 
HETATM   15  C17 UNL     1      40.843  15.337  83.997  1.00  0.00     0.058 C 
ENDROOT
BRANCH   2  16
HETATM   16  O2  UNL     1      36.879  15.787  86.030  1.00  0.00    -0.298 OA
BRANCH  16  17
HETATM   17  C18 UNL     1      35.840  16.595  86.541  1.00  0.00     0.133 C 
HETATM   18  C19 UNL     1      35.210  15.795  87.688  1.00  0.00     0.032 C 
HETATM   19  C20 UNL     1      33.982  16.529  88.148  1.00  0.00     0.002 C 
HETATM   20  C21 UNL     1      34.321  17.860  88.768  1.00  0.00     0.000 C 
HETATM   21  C22 UNL     1      34.360  18.972  87.767  1.00  0.00     0.000 C 
HETATM   22  C23 UNL     1      35.632  19.052  86.987  1.00  0.00     0.002 C 
HETATM   23  C24 UNL     1      36.499  17.832  87.131  1.00  0.00     0.032 C 
ENDBRANCH  16  17
ENDBRANCH   2  16
BRANCH  12  24
HETATM   24  C8  UNL     1      43.261  14.477  82.196  1.00  0.00     0.009 C 
BRANCH  24  25
HETATM   25  C9  UNL     1      44.457  13.590  82.032  1.00  0.00    -0.014 C 
HETATM   26  C10 UNL     1      45.020  13.610  80.635  1.00  0.00     0.005 C 
HETATM   27  C11 UNL     1      45.366  15.043  80.239  1.00  0.00     0.000 C 
HETATM   28  C12 UNL     1      46.404  15.552  81.190  1.00  0.00     0.000 C 
HETATM   29  C13 UNL     1      46.026  15.448  82.630  1.00  0.00     0.000 C 
HETATM   30  C14 UNL     1      45.594  14.029  82.958  1.00  0.00     0.005 C 
ENDBRANCH  24  25
ENDBRANCH  12  24
TORSDOF 4
ENDMDL
