MODEL 1
REMARK VINA RESULT: -6.365761452      0.000      0.000
REMARK  5 active torsions:
REMARK  status: ('A' for Active; 'I' for Inactive)
REMARK    1  A    between atoms: C2_2  and  C3_3 
REMARK    2  A    between atoms: C3_3  and  O1_4 
REMARK    3  A    between atoms: O1_4  and  C4_5 
REMARK       I    between atoms: C4_5  and  N1_7 
REMARK    4  A    between atoms: N1_7  and  C5_8 
REMARK    5  A    between atoms: N1_7  and  C11_15 
ROOT
HETATM    1  C4  UNL     1      41.033  12.961  84.071  1.00  0.00     0.363 C 
HETATM    2  O2  UNL     1      40.367  12.021  84.572  1.00  0.00    -0.238 OA
HETATM    3  N1  UNL     1      40.877  14.331  84.422  1.00  0.00    -0.318 N 
ENDROOT
BRANCH   3   4
HETATM    4  C5  UNL     1      39.896  14.652  85.420  1.00  0.00     0.093 C 
HETATM    5  C6  UNL     1      38.485  14.259  85.010  1.00  0.00     0.055 C 
HETATM    6  C7  UNL     1      37.593  14.503  86.239  1.00  0.00     0.274 C 
HETATM    7  N2  UNL     1      37.677  15.857  86.692  1.00  0.00     0.084 N 
HETATM    8  C8  UNL     1      36.377  16.489  86.834  1.00  0.00     0.309 C 
HETATM    9  C9  UNL     1      38.502  16.682  85.857  1.00  0.00     0.274 C 
HETATM   10  C10 UNL     1      39.903  16.125  85.746  1.00  0.00     0.055 C 
ENDBRANCH   3   4
BRANCH   3  11
HETATM   11  C11 UNL     1      41.717  15.308  83.757  1.00  0.00     0.094 C 
HETATM   12  C12 UNL     1      41.941  16.515  84.618  1.00  0.00     0.026 C 
HETATM   13  C13 UNL     1      43.175  16.513  85.439  1.00  0.00     0.002 C 
HETATM   14  C14 UNL     1      44.365  16.152  84.623  1.00  0.00     0.005 C 
HETATM   15  C15 UNL     1      44.232  14.937  83.793  1.00  0.00    -0.004 C 
HETATM   16  C16 UNL     1      45.161  14.915  82.655  1.00  0.00    -0.006 C 
HETATM   17  C22 UNL     1      42.921  14.731  83.119  1.00  0.00     0.013 C 
HETATM   18  C17 UNL     1      46.442  15.598  82.702  1.00  0.00     0.005 C 
HETATM   19  C20 UNL     1      44.396  15.840  81.680  1.00  0.00    -0.010 C 
HETATM   20  C18 UNL     1      46.662  15.996  81.232  1.00  0.00     0.001 C 
HETATM   21  C19 UNL     1      45.316  15.721  80.533  1.00  0.00     0.005 C 
HETATM   22  C21 UNL     1      43.098  15.174  81.655  1.00  0.00     0.012 C 
ENDBRANCH   3  11
BRANCH   1  23
HETATM   23  O1  UNL     1      41.968  12.556  83.112  1.00  0.00    -0.304 OA
BRANCH  23  24
HETATM   24  C3  UNL     1      41.604  11.788  81.985  1.00  0.00     0.180 C 
BRANCH  24  25
HETATM   25  C2  UNL     1      42.871  11.647  81.131  1.00  0.00     0.022 C 
HETATM   26  C1  UNL     1      42.532  12.035  79.707  1.00  0.00     0.007 C 
ENDBRANCH  24  25
ENDBRANCH  23  24
ENDBRANCH   1  23
TORSDOF 5
ENDMDL
MODEL 2
REMARK VINA RESULT: -5.757159343      2.068      4.210
REMARK  5 active torsions:
REMARK  status: ('A' for Active; 'I' for Inactive)
REMARK    1  A    between atoms: C2_2  and  C3_3 
REMARK    2  A    between atoms: C3_3  and  O1_4 
REMARK    3  A    between atoms: O1_4  and  C4_5 
REMARK       I    between atoms: C4_5  and  N1_7 
REMARK    4  A    between atoms: N1_7  and  C5_8 
REMARK    5  A    between atoms: N1_7  and  C11_15 
ROOT
HETATM    1  C4  UNL     1      43.390  16.724  84.393  1.00  0.00     0.363 C 
HETATM    2  O2  UNL     1      43.012  17.373  85.401  1.00  0.00    -0.238 OA
HETATM    3  N1  UNL     1      42.843  15.473  83.993  1.00  0.00    -0.318 N 
ENDROOT
BRANCH   3   4
HETATM    4  C5  UNL     1      41.787  14.924  84.795  1.00  0.00     0.093 C 
HETATM    5  C6  UNL     1      40.723  14.217  83.969  1.00  0.00     0.055 C 
HETATM    6  C7  UNL     1      39.772  13.544  84.974  1.00  0.00     0.274 C 
HETATM    7  N2  UNL     1      39.216  14.489  85.891  1.00  0.00     0.084 N 
HETATM    8  C8  UNL     1      37.767  14.429  85.960  1.00  0.00     0.309 C 
HETATM    9  C9  UNL     1      39.609  15.842  85.616  1.00  0.00     0.274 C 
HETATM   10  C10 UNL     1      41.114  15.990  85.624  1.00  0.00     0.055 C 
ENDBRANCH   3   4
BRANCH   3  11
HETATM   11  C11 UNL     1      43.382  14.839  82.805  1.00  0.00     0.094 C 
HETATM   12  C12 UNL     1      44.791  14.376  83.021  1.00  0.00     0.026 C 
HETATM   13  C13 UNL     1      44.958  12.963  83.440  1.00  0.00     0.002 C 
HETATM   14  C14 UNL     1      44.172  12.048  82.571  1.00  0.00     0.005 C 
HETATM   15  C15 UNL     1      42.756  12.415  82.362  1.00  0.00    -0.004 C 
HETATM   16  C16 UNL     1      42.187  11.835  81.138  1.00  0.00    -0.006 C 
HETATM   17  C22 UNL     1      42.465  13.863  82.176  1.00  0.00     0.013 C 
HETATM   18  C17 UNL     1      42.678  10.584  80.587  1.00  0.00     0.005 C 
HETATM   19  C20 UNL     1      42.750  12.830  80.096  1.00  0.00    -0.010 C 
HETATM   20  C18 UNL     1      42.450  10.774  79.077  1.00  0.00     0.001 C 
HETATM   21  C19 UNL     1      42.090  12.263  78.905  1.00  0.00     0.005 C 
HETATM   22  C21 UNL     1      42.286  14.092  80.664  1.00  0.00     0.012 C 
ENDBRANCH   3  11
BRANCH   1  23
HETATM   23  O1  UNL     1      44.419  17.336  83.668  1.00  0.00    -0.304 OA
BRANCH  23  24
HETATM   24  C3  UNL     1      44.230  17.811  82.351  1.00  0.00     0.180 C 
BRANCH  24  25
HETATM   25  C2  UNL     1      45.466  17.372  81.553  1.00  0.00     0.022 C 
HETATM   26  C1  UNL     1      45.023  16.389  80.490  1.00  0.00     0.007 C 
ENDBRANCH  24  25
ENDBRANCH  23  24
ENDBRANCH   1  23
TORSDOF 5
ENDMDL
MODEL 3
REMARK VINA RESULT: -4.758322732      2.069      6.537
REMARK  5 active torsions:
REMARK  status: ('A' for Active; 'I' for Inactive)
REMARK    1  A    between atoms: C2_2  and  C3_3 
REMARK    2  A    between atoms: C3_3  and  O1_4 
REMARK    3  A    between atoms: O1_4  and  C4_5 
REMARK       I    between atoms: C4_5  and  N1_7 
REMARK    4  A    between atoms: N1_7  and  C5_8 
REMARK    5  A    between atoms: N1_7  and  C11_15 
ROOT
HETATM    1  C4  UNL     1      42.919  15.188  82.529  1.00  0.00     0.363 C 
HETATM    2  O2  UNL     1      43.464  15.269  81.399  1.00  0.00    -0.238 OA
HETATM    3  N1  UNL     1      42.086  14.111  82.942  1.00  0.00    -0.318 N 
ENDROOT
BRANCH   3   4
HETATM    4  C5  UNL     1      41.861  13.049  82.003  1.00  0.00     0.093 C 
HETATM    5  C6  UNL     1      43.051  12.111  81.874  1.00  0.00     0.055 C 
HETATM    6  C7  UNL     1      42.590  10.948  80.979  1.00  0.00     0.274 C 
HETATM    7  N2  UNL     1      42.118  11.412  79.711  1.00  0.00     0.084 N 
HETATM    8  C8  UNL     1      42.754  10.744  78.589  1.00  0.00     0.309 C 
HETATM    9  C9  UNL     1      42.255  12.830  79.542  1.00  0.00     0.274 C 
HETATM   10  C10 UNL     1      41.530  13.587  80.632  1.00  0.00     0.055 C 
ENDBRANCH   3   4
BRANCH   3  11
HETATM   11  C11 UNL     1      41.525  14.154  84.278  1.00  0.00     0.094 C 
HETATM   12  C12 UNL     1      42.520  14.668  85.275  1.00  0.00     0.026 C 
HETATM   13  C13 UNL     1      42.460  16.120  85.569  1.00  0.00     0.002 C 
HETATM   14  C14 UNL     1      41.067  16.553  85.861  1.00  0.00     0.005 C 
HETATM   15  C15 UNL     1      40.043  16.128  84.885  1.00  0.00    -0.004 C 
HETATM   16  C16 UNL     1      38.687  16.103  85.451  1.00  0.00    -0.006 C 
HETATM   17  C22 UNL     1      40.171  14.747  84.344  1.00  0.00     0.013 C 
HETATM   18  C17 UNL     1      38.299  16.981  86.542  1.00  0.00     0.005 C 
HETATM   19  C20 UNL     1      38.744  14.750  86.199  1.00  0.00    -0.010 C 
HETATM   20  C18 UNL     1      37.247  16.140  87.287  1.00  0.00     0.001 C 
HETATM   21  C19 UNL     1      37.348  14.729  86.675  1.00  0.00     0.005 C 
HETATM   22  C21 UNL     1      39.165  13.871  85.112  1.00  0.00     0.012 C 
ENDBRANCH   3  11
BRANCH   1  23
HETATM   23  O1  UNL     1      43.197  16.262  83.381  1.00  0.00    -0.304 OA
BRANCH  23  24
HETATM   24  C3  UNL     1      44.414  16.977  83.316  1.00  0.00     0.180 C 
BRANCH  24  25
HETATM   25  C2  UNL     1      45.527  15.959  83.600  1.00  0.00     0.022 C 
HETATM   26  C1  UNL     1      46.428  15.886  82.386  1.00  0.00     0.007 C 
ENDBRANCH  24  25
ENDBRANCH  23  24
ENDBRANCH   1  23
TORSDOF 5
ENDMDL
MODEL 4
REMARK VINA RESULT: -4.756733166      1.879      3.885
REMARK  5 active torsions:
REMARK  status: ('A' for Active; 'I' for Inactive)
REMARK    1  A    between atoms: C2_2  and  C3_3 
REMARK    2  A    between atoms: C3_3  and  O1_4 
REMARK    3  A    between atoms: O1_4  and  C4_5 
REMARK       I    between atoms: C4_5  and  N1_7 
REMARK    4  A    between atoms: N1_7  and  C5_8 
REMARK    5  A    between atoms: N1_7  and  C11_15 
ROOT
HETATM    1  C4  UNL     1      42.737  16.429  84.585  1.00  0.00     0.363 C 
HETATM    2  O2  UNL     1      42.295  17.419  85.222  1.00  0.00    -0.238 OA
HETATM    3  N1  UNL     1      42.133  15.141  84.586  1.00  0.00    -0.318 N 
ENDROOT
BRANCH   3   4
HETATM    4  C5  UNL     1      40.938  14.969  85.362  1.00  0.00     0.093 C 
HETATM    5  C6  UNL     1      39.793  14.370  84.559  1.00  0.00     0.055 C 
HETATM    6  C7  UNL     1      38.660  14.090  85.563  1.00  0.00     0.274 C 
HETATM    7  N2  UNL     1      38.276  15.273  86.269  1.00  0.00     0.084 N 
HETATM    8  C8  UNL     1      36.848  15.529  86.212  1.00  0.00     0.309 C 
HETATM    9  C9  UNL     1      38.973  16.447  85.826  1.00  0.00     0.274 C 
HETATM   10  C10 UNL     1      40.470  16.277  85.951  1.00  0.00     0.055 C 
ENDBRANCH   3   4
BRANCH   3  11
HETATM   11  C11 UNL     1      42.757  14.092  83.803  1.00  0.00     0.094 C 
HETATM   12  C12 UNL     1      42.345  12.732  84.280  1.00  0.00     0.026 C 
HETATM   13  C13 UNL     1      41.199  12.111  83.574  1.00  0.00     0.002 C 
HETATM   14  C14 UNL     1      41.372  12.181  82.099  1.00  0.00     0.005 C 
HETATM   15  C15 UNL     1      41.724  13.509  81.555  1.00  0.00    -0.004 C 
HETATM   16  C16 UNL     1      42.385  13.436  80.245  1.00  0.00    -0.006 C 
HETATM   17  C22 UNL     1      42.697  14.315  82.341  1.00  0.00     0.013 C 
HETATM   18  C17 UNL     1      42.134  12.341  79.323  1.00  0.00     0.005 C 
HETATM   19  C20 UNL     1      43.820  13.082  80.700  1.00  0.00    -0.010 C 
HETATM   20  C18 UNL     1      43.476  12.215  78.582  1.00  0.00     0.001 C 
HETATM   21  C19 UNL     1      44.459  13.102  79.371  1.00  0.00     0.005 C 
HETATM   22  C21 UNL     1      44.065  14.163  81.651  1.00  0.00     0.012 C 
ENDBRANCH   3  11
BRANCH   1  23
HETATM   23  O1  UNL     1      43.901  16.689  83.854  1.00  0.00    -0.304 OA
BRANCH  23  24
HETATM   24  C3  UNL     1      43.933  17.631  82.803  1.00  0.00     0.180 C 
BRANCH  24  25
HETATM   25  C2  UNL     1      45.068  17.195  81.866  1.00  0.00     0.022 C 
HETATM   26  C1  UNL     1      46.028  16.326  82.653  1.00  0.00     0.007 C 
ENDBRANCH  24  25
ENDBRANCH  23  24
ENDBRANCH   1  23
TORSDOF 5
ENDMDL
MODEL 5
REMARK VINA RESULT: -4.460504376      2.009      3.979
REMARK  5 active torsions:
REMARK  status: ('A' for Active; 'I' for Inactive)
REMARK    1  A    between atoms: C2_2  and  C3_3 
REMARK    2  A    between atoms: C3_3  and  O1_4 
REMARK    3  A    between atoms: O1_4  and  C4_5 
REMARK       I    between atoms: C4_5  and  N1_7 
REMARK    4  A    between atoms: N1_7  and  C5_8 
REMARK    5  A    between atoms: N1_7  and  C11_15 
ROOT
HETATM    1  C4  UNL     1      41.731  16.312  85.572  1.00  0.00     0.363 C 
HETATM    2  O2  UNL     1      41.218  17.372  86.009  1.00  0.00    -0.238 OA
HETATM    3  N1  UNL     1      40.986  15.175  85.151  1.00  0.00    -0.318 N 
ENDROOT
BRANCH   3   4
HETATM    4  C5  UNL     1      39.555  15.254  85.230  1.00  0.00     0.093 C 
HETATM    5  C6  UNL     1      39.050  16.677  85.411  1.00  0.00     0.055 C 
HETATM    6  C7  UNL     1      37.517  16.610  85.300  1.00  0.00     0.274 C 
HETATM    7  N2  UNL     1      36.957  15.703  86.254  1.00  0.00     0.084 N 
HETATM    8  C8  UNL     1      35.902  16.300  87.054  1.00  0.00     0.309 C 
HETATM    9  C9  UNL     1      37.937  15.133  87.134  1.00  0.00     0.274 C 
HETATM   10  C10 UNL     1      39.018  14.412  86.360  1.00  0.00     0.055 C 
ENDBRANCH   3   4
BRANCH   3  11
HETATM   11  C11 UNL     1      41.717  14.019  84.669  1.00  0.00     0.094 C 
HETATM   12  C12 UNL     1      41.089  12.740  85.135  1.00  0.00     0.026 C 
HETATM   13  C13 UNL     1      40.131  12.103  84.200  1.00  0.00     0.002 C 
HETATM   14  C14 UNL     1      40.700  12.005  82.830  1.00  0.00     0.005 C 
HETATM   15  C15 UNL     1      41.285  13.248  82.286  1.00  0.00    -0.004 C 
HETATM   16  C16 UNL     1      42.268  13.001  81.221  1.00  0.00    -0.006 C 
HETATM   17  C22 UNL     1      42.069  14.085  83.234  1.00  0.00     0.013 C 
HETATM   18  C17 UNL     1      42.191  11.827  80.369  1.00  0.00     0.005 C 
HETATM   19  C20 UNL     1      43.496  12.630  82.085  1.00  0.00    -0.010 C 
HETATM   20  C18 UNL     1      43.670  11.557  80.041  1.00  0.00     0.001 C 
HETATM   21  C19 UNL     1      44.469  12.475  80.987  1.00  0.00     0.005 C 
HETATM   22  C21 UNL     1      43.556  13.793  82.964  1.00  0.00     0.012 C 
ENDBRANCH   3  11
BRANCH   1  23
HETATM   23  O1  UNL     1      43.129  16.326  85.526  1.00  0.00    -0.304 OA
BRANCH  23  24
HETATM   24  C3  UNL     1      43.845  17.246  84.730  1.00  0.00     0.180 C 
BRANCH  24  25
HETATM   25  C2  UNL     1      43.144  17.273  83.365  1.00  0.00     0.022 C 
HETATM   26  C1  UNL     1      44.203  17.348  82.285  1.00  0.00     0.007 C 
ENDBRANCH  24  25
ENDBRANCH  23  24
ENDBRANCH   1  23
TORSDOF 5
ENDMDL
