MODEL 1
REMARK VINA RESULT: -7.021877521      0.000      0.000
REMARK  5 active torsions:
REMARK  status: ('A' for Active; 'I' for Inactive)
REMARK    1  A    between atoms: C17_18  and  C18_19 
REMARK    2  A    between atoms: C18_19  and  C19_20 
REMARK    3  A    between atoms: C19_20  and  O3_22 
REMARK    4  A    between atoms: O3_22  and  C20_23 
REMARK    5  A    between atoms: C20_23  and  C21_24 
ROOT
HETATM    1  C1  UNL     1      42.860  14.230  85.113  1.00  0.00     0.016 C 
HETATM    2  C2  UNL     1      41.961  14.498  83.921  1.00  0.00    -0.036 C 
HETATM    3  C3  UNL     1      41.611  15.942  83.908  1.00  0.00     0.010 C 
HETATM    4  C4  UNL     1      40.615  16.284  84.958  1.00  0.00     0.006 C 
HETATM    5  C5  UNL     1      40.149  15.204  85.849  1.00  0.00    -0.003 C 
HETATM    6  C6  UNL     1      39.984  13.851  85.245  1.00  0.00    -0.005 C 
HETATM    7  C7  UNL     1      38.536  13.481  84.985  1.00  0.00     0.008 C 
HETATM    8  C8  UNL     1      37.740  14.672  84.491  1.00  0.00     0.041 C 
HETATM    9  C9  UNL     1      37.670  15.642  85.620  1.00  0.00     0.091 A 
HETATM   10  O1  UNL     1      36.447  15.295  86.436  1.00  0.00    -0.369 OA
HETATM   11  C10 UNL     1      36.816  16.623  85.964  1.00  0.00     0.157 A 
HETATM   12  C11 UNL     1      37.416  17.402  87.135  1.00  0.00     0.035 C 
HETATM   13  C12 UNL     1      38.899  17.037  87.044  1.00  0.00     0.011 C 
HETATM   14  C13 UNL     1      38.857  15.627  86.522  1.00  0.00     0.027 C 
HETATM   15  C14 UNL     1      40.714  13.675  83.937  1.00  0.00    -0.002 C 
HETATM   16  C15 UNL     1      41.230  12.295  83.700  1.00  0.00     0.006 C 
HETATM   17  C16 UNL     1      42.581  12.467  83.011  1.00  0.00     0.006 C 
HETATM   18  C17 UNL     1      42.658  13.978  82.715  1.00  0.00     0.003 C 
ENDROOT
BRANCH  18  19
HETATM   19  C18 UNL     1      41.948  14.167  81.411  1.00  0.00     0.116 C 
BRANCH  19  20
HETATM   20  C19 UNL     1      43.002  14.499  80.387  1.00  0.00     0.259 C 
HETATM   21  O2  UNL     1      43.029  13.796  79.360  1.00  0.00    -0.265 OA
BRANCH  20  22
HETATM   22  O3  UNL     1      43.905  15.514  80.537  1.00  0.00    -0.321 OA
BRANCH  22  23
HETATM   23  C20 UNL     1      45.265  15.240  80.643  1.00  0.00     0.183 C 
BRANCH  23  24
HETATM   24  C21 UNL     1      45.991  15.980  81.726  1.00  0.00     0.010 A 
HETATM   25  C22 UNL     1      45.089  16.416  82.873  1.00  0.00     0.007 A 
HETATM   26  C23 UNL     1      46.034  15.299  83.113  1.00  0.00     0.007 A 
ENDBRANCH  23  24
ENDBRANCH  22  23
ENDBRANCH  20  22
ENDBRANCH  19  20
ENDBRANCH  18  19
TORSDOF 5
ENDMDL
MODEL 2
REMARK VINA RESULT: -6.906117166      1.710      7.481
REMARK  5 active torsions:
REMARK  status: ('A' for Active; 'I' for Inactive)
REMARK    1  A    between atoms: C17_18  and  C18_19 
REMARK    2  A    between atoms: C18_19  and  C19_20 
REMARK    3  A    between atoms: C19_20  and  O3_22 
REMARK    4  A    between atoms: O3_22  and  C20_23 
REMARK    5  A    between atoms: C20_23  and  C21_24 
ROOT
HETATM    1  C1  UNL     1      42.289  13.670  85.669  1.00  0.00     0.016 C 
HETATM    2  C2  UNL     1      41.431  14.510  84.742  1.00  0.00    -0.036 C 
HETATM    3  C3  UNL     1      40.515  13.607  83.998  1.00  0.00     0.010 C 
HETATM    4  C4  UNL     1      41.224  12.844  82.936  1.00  0.00     0.006 C 
HETATM    5  C5  UNL     1      42.677  13.053  82.786  1.00  0.00    -0.003 C 
HETATM    6  C6  UNL     1      43.191  14.434  83.016  1.00  0.00    -0.005 C 
HETATM    7  C7  UNL     1      43.532  15.169  81.733  1.00  0.00     0.008 C 
HETATM    8  C8  UNL     1      42.529  14.868  80.639  1.00  0.00     0.041 C 
HETATM    9  C9  UNL     1      42.694  13.429  80.286  1.00  0.00     0.091 A 
HETATM   10  O1  UNL     1      43.744  13.348  79.204  1.00  0.00    -0.369 OA
HETATM   11  C10 UNL     1      42.441  12.697  79.187  1.00  0.00     0.157 A 
HETATM   12  C11 UNL     1      42.636  11.219  79.532  1.00  0.00     0.035 C 
HETATM   13  C12 UNL     1      42.532  11.224  81.058  1.00  0.00     0.011 C 
HETATM   14  C13 UNL     1      43.119  12.561  81.421  1.00  0.00     0.027 C 
HETATM   15  C14 UNL     1      42.237  15.319  83.778  1.00  0.00    -0.002 C 
HETATM   16  C15 UNL     1      42.900  16.319  84.665  1.00  0.00     0.006 C 
HETATM   17  C16 UNL     1      42.034  16.404  85.919  1.00  0.00     0.006 C 
HETATM   18  C17 UNL     1      40.788  15.565  85.568  1.00  0.00     0.003 C 
ENDROOT
BRANCH  18  19
HETATM   19  C18 UNL     1      39.867  16.498  84.846  1.00  0.00     0.116 C 
BRANCH  19  20
HETATM   20  C19 UNL     1      38.598  16.569  85.656  1.00  0.00     0.259 C 
HETATM   21  O2  UNL     1      37.840  17.529  85.427  1.00  0.00    -0.265 OA
BRANCH  20  22
HETATM   22  O3  UNL     1      38.259  15.647  86.606  1.00  0.00    -0.321 OA
BRANCH  22  23
HETATM   23  C20 UNL     1      36.924  15.346  86.853  1.00  0.00     0.183 C 
BRANCH  23  24
HETATM   24  C21 UNL     1      36.385  15.828  88.166  1.00  0.00     0.010 A 
HETATM   25  C22 UNL     1      35.452  17.026  88.036  1.00  0.00     0.007 A 
HETATM   26  C23 UNL     1      34.857  15.709  88.368  1.00  0.00     0.007 A 
ENDBRANCH  23  24
ENDBRANCH  22  23
ENDBRANCH  20  22
ENDBRANCH  19  20
ENDBRANCH  18  19
TORSDOF 5
ENDMDL
MODEL 3
REMARK VINA RESULT: -6.876337095      1.587      2.983
REMARK  5 active torsions:
REMARK  status: ('A' for Active; 'I' for Inactive)
REMARK    1  A    between atoms: C17_18  and  C18_19 
REMARK    2  A    between atoms: C18_19  and  C19_20 
REMARK    3  A    between atoms: C19_20  and  O3_22 
REMARK    4  A    between atoms: O3_22  and  C20_23 
REMARK    5  A    between atoms: C20_23  and  C21_24 
ROOT
HETATM    1  C1  UNL     1      44.057  16.795  84.986  1.00  0.00     0.016 C 
HETATM    2  C2  UNL     1      43.410  16.331  83.694  1.00  0.00    -0.036 C 
HETATM    3  C3  UNL     1      42.224  17.184  83.426  1.00  0.00     0.010 C 
HETATM    4  C4  UNL     1      41.084  16.852  84.322  1.00  0.00     0.006 C 
HETATM    5  C5  UNL     1      41.279  15.790  85.327  1.00  0.00    -0.003 C 
HETATM    6  C6  UNL     1      42.125  14.627  84.930  1.00  0.00    -0.005 C 
HETATM    7  C7  UNL     1      41.320  13.382  84.609  1.00  0.00     0.008 C 
HETATM    8  C8  UNL     1      40.043  13.723  83.870  1.00  0.00     0.041 C 
HETATM    9  C9  UNL     1      39.180  14.476  84.823  1.00  0.00     0.091 A 
HETATM   10  O1  UNL     1      38.351  13.462  85.576  1.00  0.00    -0.369 OA
HETATM   11  C10 UNL     1      37.854  14.672  84.936  1.00  0.00     0.157 A 
HETATM   12  C11 UNL     1      37.609  15.725  86.018  1.00  0.00     0.035 C 
HETATM   13  C12 UNL     1      38.968  16.420  86.110  1.00  0.00     0.011 C 
HETATM   14  C13 UNL     1      39.928  15.301  85.814  1.00  0.00     0.027 C 
HETATM   15  C14 UNL     1      43.002  14.894  83.733  1.00  0.00    -0.002 C 
HETATM   16  C15 UNL     1      44.312  14.182  83.759  1.00  0.00     0.006 C 
HETATM   17  C16 UNL     1      45.329  15.156  83.170  1.00  0.00     0.006 C 
HETATM   18  C17 UNL     1      44.466  16.323  82.648  1.00  0.00     0.003 C 
ENDROOT
BRANCH  18  19
HETATM   19  C18 UNL     1      44.031  15.917  81.275  1.00  0.00     0.116 C 
BRANCH  19  20
HETATM   20  C19 UNL     1      45.235  15.316  80.597  1.00  0.00     0.259 C 
HETATM   21  O2  UNL     1      46.237  16.045  80.485  1.00  0.00    -0.265 OA
BRANCH  20  22
HETATM   22  O3  UNL     1      45.266  14.039  80.113  1.00  0.00    -0.321 OA
BRANCH  22  23
HETATM   23  C20 UNL     1      44.091  13.397  79.736  1.00  0.00     0.183 C 
BRANCH  23  24
HETATM   24  C21 UNL     1      43.689  12.231  80.587  1.00  0.00     0.010 A 
HETATM   25  C22 UNL     1      42.285  12.356  81.163  1.00  0.00     0.007 A 
HETATM   26  C23 UNL     1      42.507  11.378  80.071  1.00  0.00     0.007 A 
ENDBRANCH  23  24
ENDBRANCH  22  23
ENDBRANCH  20  22
ENDBRANCH  19  20
ENDBRANCH  18  19
TORSDOF 5
ENDMDL
MODEL 4
REMARK VINA RESULT: -6.351288822      1.779      7.369
REMARK  5 active torsions:
REMARK  status: ('A' for Active; 'I' for Inactive)
REMARK    1  A    between atoms: C17_18  and  C18_19 
REMARK    2  A    between atoms: C18_19  and  C19_20 
REMARK    3  A    between atoms: C19_20  and  O3_22 
REMARK    4  A    between atoms: O3_22  and  C20_23 
REMARK    5  A    between atoms: C20_23  and  C21_24 
ROOT
HETATM    1  C1  UNL     1      43.790  14.491  85.099  1.00  0.00     0.016 C 
HETATM    2  C2  UNL     1      42.497  14.906  84.422  1.00  0.00    -0.036 C 
HETATM    3  C3  UNL     1      41.691  13.688  84.154  1.00  0.00     0.010 C 
HETATM    4  C4  UNL     1      42.236  12.897  83.018  1.00  0.00     0.006 C 
HETATM    5  C5  UNL     1      43.461  13.387  82.357  1.00  0.00    -0.003 C 
HETATM    6  C6  UNL     1      43.615  14.864  82.224  1.00  0.00    -0.005 C 
HETATM    7  C7  UNL     1      43.343  15.373  80.821  1.00  0.00     0.008 C 
HETATM    8  C8  UNL     1      42.186  14.634  80.180  1.00  0.00     0.041 C 
HETATM    9  C9  UNL     1      42.632  13.227  79.975  1.00  0.00     0.091 A 
HETATM   10  O1  UNL     1      43.292  13.157  78.619  1.00  0.00    -0.369 OA
HETATM   11  C10 UNL     1      42.279  12.244  79.128  1.00  0.00     0.157 A 
HETATM   12  C11 UNL     1      42.969  10.952  79.568  1.00  0.00     0.035 C 
HETATM   13  C12 UNL     1      43.325  11.252  81.025  1.00  0.00     0.011 C 
HETATM   14  C13 UNL     1      43.598  12.732  80.997  1.00  0.00     0.027 C 
HETATM   15  C14 UNL     1      42.723  15.655  83.149  1.00  0.00    -0.002 C 
HETATM   16  C15 UNL     1      43.314  16.940  83.624  1.00  0.00     0.006 C 
HETATM   17  C16 UNL     1      42.870  17.090  85.077  1.00  0.00     0.006 C 
HETATM   18  C17 UNL     1      41.861  15.942  85.279  1.00  0.00     0.003 C 
ENDROOT
BRANCH  18  19
HETATM   19  C18 UNL     1      40.546  16.474  84.803  1.00  0.00     0.116 C 
BRANCH  19  20
HETATM   20  C19 UNL     1      39.502  15.983  85.772  1.00  0.00     0.259 C 
HETATM   21  O2  UNL     1      39.313  14.753  85.817  1.00  0.00    -0.265 OA
BRANCH  20  22
HETATM   22  O3  UNL     1      38.775  16.811  86.579  1.00  0.00    -0.321 OA
BRANCH  22  23
HETATM   23  C20 UNL     1      37.442  17.087  86.292  1.00  0.00     0.183 C 
BRANCH  23  24
HETATM   24  C21 UNL     1      36.461  16.032  86.703  1.00  0.00     0.010 A 
HETATM   25  C22 UNL     1      36.549  15.663  88.178  1.00  0.00     0.007 A 
HETATM   26  C23 UNL     1      35.382  16.457  87.725  1.00  0.00     0.007 A 
ENDBRANCH  23  24
ENDBRANCH  22  23
ENDBRANCH  20  22
ENDBRANCH  19  20
ENDBRANCH  18  19
TORSDOF 5
ENDMDL
MODEL 5
REMARK VINA RESULT: -6.127086797      1.552      7.453
REMARK  5 active torsions:
REMARK  status: ('A' for Active; 'I' for Inactive)
REMARK    1  A    between atoms: C17_18  and  C18_19 
REMARK    2  A    between atoms: C18_19  and  C19_20 
REMARK    3  A    between atoms: C19_20  and  O3_22 
REMARK    4  A    between atoms: O3_22  and  C20_23 
REMARK    5  A    between atoms: C20_23  and  C21_24 
ROOT
HETATM    1  C1  UNL     1      41.075  13.081  85.437  1.00  0.00     0.016 C 
HETATM    2  C2  UNL     1      40.445  14.160  84.576  1.00  0.00    -0.036 C 
HETATM    3  C3  UNL     1      40.516  13.732  83.156  1.00  0.00     0.010 C 
HETATM    4  C4  UNL     1      41.893  13.852  82.605  1.00  0.00     0.006 C 
HETATM    5  C5  UNL     1      42.960  14.330  83.506  1.00  0.00    -0.003 C 
HETATM    6  C6  UNL     1      42.589  15.376  84.502  1.00  0.00    -0.005 C 
HETATM    7  C7  UNL     1      43.075  16.763  84.125  1.00  0.00     0.008 C 
HETATM    8  C8  UNL     1      42.953  17.007  82.635  1.00  0.00     0.041 C 
HETATM    9  C9  UNL     1      43.920  16.090  81.967  1.00  0.00     0.091 A 
HETATM   10  O1  UNL     1      45.240  16.819  81.873  1.00  0.00    -0.369 OA
HETATM   11  C10 UNL     1      44.572  16.108  80.791  1.00  0.00     0.157 A 
HETATM   12  C11 UNL     1      45.265  14.759  80.599  1.00  0.00     0.035 C 
HETATM   13  C12 UNL     1      44.497  13.857  81.566  1.00  0.00     0.011 C 
HETATM   14  C13 UNL     1      44.143  14.801  82.682  1.00  0.00     0.027 C 
HETATM   15  C14 UNL     1      41.104  15.491  84.739  1.00  0.00    -0.002 C 
HETATM   16  C15 UNL     1      40.731  15.874  86.132  1.00  0.00     0.006 C 
HETATM   17  C16 UNL     1      39.470  15.077  86.460  1.00  0.00     0.006 C 
HETATM   18  C17 UNL     1      39.085  14.421  85.119  1.00  0.00     0.003 C 
ENDROOT
BRANCH  18  19
HETATM   19  C18 UNL     1      38.271  15.445  84.391  1.00  0.00     0.116 C 
BRANCH  19  20
HETATM   20  C19 UNL     1      37.404  16.122  85.420  1.00  0.00     0.259 C 
HETATM   21  O2  UNL     1      36.588  15.404  86.027  1.00  0.00    -0.265 OA
BRANCH  20  22
HETATM   22  O3  UNL     1      37.476  17.456  85.705  1.00  0.00    -0.321 OA
BRANCH  22  23
HETATM   23  C20 UNL     1      37.092  17.934  86.953  1.00  0.00     0.183 C 
BRANCH  23  24
HETATM   24  C21 UNL     1      35.767  18.634  86.998  1.00  0.00     0.010 A 
HETATM   25  C22 UNL     1      34.782  18.005  87.975  1.00  0.00     0.007 A 
HETATM   26  C23 UNL     1      35.390  19.308  88.337  1.00  0.00     0.007 A 
ENDBRANCH  23  24
ENDBRANCH  22  23
ENDBRANCH  20  22
ENDBRANCH  19  20
ENDBRANCH  18  19
TORSDOF 5
ENDMDL
