MODEL 1
REMARK VINA RESULT: -7.545482704      0.000      0.000
REMARK  4 active torsions:
REMARK  status: ('A' for Active; 'I' for Inactive)
REMARK    1  A    between atoms: C4_6  and  C5_7 
REMARK    2  A    between atoms: C5_7  and  C6_8 
REMARK    3  A    between atoms: N3_17  and  C14_18 
REMARK    4  A    between atoms: C14_18  and  C15_19 
ROOT
HETATM    1  C6  UNL     1      41.790  12.832  83.422  1.00  0.00     0.022 C 
HETATM    2  C7  UNL     1      41.922  14.334  83.554  1.00  0.00     0.278 C 
HETATM    3  N2  UNL     1      41.470  14.794  84.832  1.00  0.00     0.093 N 
HETATM    4  C8  UNL     1      41.686  13.904  85.910  1.00  0.00     0.273 C 
HETATM    5  C9  UNL     1      41.102  12.534  85.713  1.00  0.00     0.035 C 
HETATM    6  C10 UNL     1      40.622  12.428  84.291  1.00  0.00    -0.006 C 
HETATM    7  C11 UNL     1      39.353  13.089  83.984  1.00  0.00     0.013 C 
HETATM    8  C12 UNL     1      39.047  14.395  84.586  1.00  0.00     0.048 C 
HETATM    9  C13 UNL     1      38.256  14.295  85.901  1.00  0.00     0.279 C 
HETATM   10  N3  UNL     1      37.581  15.549  86.191  1.00  0.00     0.089 N 
HETATM   11  C21 UNL     1      38.365  16.645  85.716  1.00  0.00     0.274 C 
HETATM   12  C22 UNL     1      39.847  16.371  85.806  1.00  0.00     0.066 C 
HETATM   13  C23 UNL     1      40.179  15.360  84.698  1.00  0.00     0.230 C 
ENDROOT
BRANCH   1  14
HETATM   14  C5  UNL     1      41.748  12.358  82.027  1.00  0.00     0.046 C 
BRANCH  14  15
HETATM   15  C4  UNL     1      42.819  12.759  81.132  1.00  0.00    -0.042 A 
HETATM   16  C3  UNL     1      44.169  12.650  81.438  1.00  0.00     0.094 A 
HETATM   17  N1  UNL     1      45.158  13.024  80.623  1.00  0.00    -0.375 N 
HETATM   18  C2  UNL     1      44.813  13.543  79.420  1.00  0.00     0.087 A 
ATOM     19  H1  UNL     1      46.135  12.923  80.895  1.00  0.00     0.164 HD
HETATM   20  C1  UNL     1      43.505  13.685  79.040  1.00  0.00     0.018 A 
HETATM   21  C24 UNL     1      42.507  13.292  79.898  1.00  0.00     0.010 A 
ENDBRANCH  14  15
ENDBRANCH   1  14
BRANCH  10  22
HETATM   22  C14 UNL     1      37.283  15.568  87.585  1.00  0.00     0.277 C 
BRANCH  22  23
HETATM   23  C15 UNL     1      36.467  16.719  88.057  1.00  0.00     0.014 C 
HETATM   24  C16 UNL     1      35.038  16.492  87.542  1.00  0.00     0.006 C 
HETATM   25  C17 UNL     1      34.110  17.362  88.364  1.00  0.00     0.000 C 
HETATM   26  C18 UNL     1      34.756  18.730  88.461  1.00  0.00     0.000 C 
HETATM   27  C19 UNL     1      35.694  18.932  87.309  1.00  0.00     0.000 C 
HETATM   28  C20 UNL     1      36.919  18.036  87.488  1.00  0.00     0.006 C 
ENDBRANCH  22  23
ENDBRANCH  10  22
TORSDOF 4
ENDMDL
MODEL 2
REMARK VINA RESULT: -6.301313940      2.237      9.442
REMARK  4 active torsions:
REMARK  status: ('A' for Active; 'I' for Inactive)
REMARK    1  A    between atoms: C4_6  and  C5_7 
REMARK    2  A    between atoms: C5_7  and  C6_8 
REMARK    3  A    between atoms: N3_17  and  C14_18 
REMARK    4  A    between atoms: C14_18  and  C15_19 
ROOT
HETATM    1  C6  UNL     1      35.738  17.900  87.824  1.00  0.00     0.022 C 
HETATM    2  C7  UNL     1      35.240  16.691  87.060  1.00  0.00     0.278 C 
HETATM    3  N2  UNL     1      36.179  15.611  87.107  1.00  0.00     0.093 N 
HETATM    4  C8  UNL     1      36.933  15.512  88.300  1.00  0.00     0.273 C 
HETATM    5  C9  UNL     1      37.688  16.758  88.665  1.00  0.00     0.035 C 
HETATM    6  C10 UNL     1      37.247  17.863  87.743  1.00  0.00    -0.006 C 
HETATM    7  C11 UNL     1      37.803  17.839  86.389  1.00  0.00     0.013 C 
HETATM    8  C12 UNL     1      37.967  16.555  85.692  1.00  0.00     0.048 C 
HETATM    9  C13 UNL     1      39.360  15.928  85.879  1.00  0.00     0.279 C 
HETATM   10  N3  UNL     1      39.634  14.962  84.830  1.00  0.00     0.089 N 
HETATM   11  C21 UNL     1      38.422  14.313  84.436  1.00  0.00     0.274 C 
HETATM   12  C22 UNL     1      37.458  14.154  85.588  1.00  0.00     0.066 C 
HETATM   13  C23 UNL     1      36.883  15.548  85.879  1.00  0.00     0.230 C 
ENDROOT
BRANCH   1  14
HETATM   14  C5  UNL     1      35.103  19.165  87.415  1.00  0.00     0.046 C 
BRANCH  14  15
HETATM   15  C4  UNL     1      35.100  20.268  88.359  1.00  0.00    -0.042 A 
HETATM   16  C3  UNL     1      35.481  20.153  89.690  1.00  0.00     0.094 A 
HETATM   17  N1  UNL     1      35.472  21.163  90.565  1.00  0.00    -0.375 N 
HETATM   18  C2  UNL     1      35.065  22.374  90.117  1.00  0.00     0.087 A 
ATOM     19  H1  UNL     1      35.762  21.026  91.533  1.00  0.00     0.164 HD
HETATM   20  C1  UNL     1      34.674  22.573  88.819  1.00  0.00     0.018 A 
HETATM   21  C24 UNL     1      34.692  21.518  87.940  1.00  0.00     0.010 A 
ENDBRANCH  14  15
ENDBRANCH   1  14
BRANCH  10  22
HETATM   22  C14 UNL     1      40.667  14.097  85.297  1.00  0.00     0.277 C 
BRANCH  22  23
HETATM   23  C15 UNL     1      41.887  14.028  84.449  1.00  0.00     0.014 C 
HETATM   24  C16 UNL     1      42.335  15.475  84.196  1.00  0.00     0.006 C 
HETATM   25  C17 UNL     1      43.782  15.436  83.750  1.00  0.00     0.000 C 
HETATM   26  C18 UNL     1      43.897  14.333  82.716  1.00  0.00     0.000 C 
HETATM   27  C19 UNL     1      42.560  14.089  82.082  1.00  0.00     0.000 C 
HETATM   28  C20 UNL     1      41.632  13.421  83.096  1.00  0.00     0.006 C 
ENDBRANCH  22  23
ENDBRANCH  10  22
TORSDOF 4
ENDMDL
MODEL 3
REMARK VINA RESULT: -6.048202157      1.133      1.473
REMARK  4 active torsions:
REMARK  status: ('A' for Active; 'I' for Inactive)
REMARK    1  A    between atoms: C4_6  and  C5_7 
REMARK    2  A    between atoms: C5_7  and  C6_8 
REMARK    3  A    between atoms: N3_17  and  C14_18 
REMARK    4  A    between atoms: C14_18  and  C15_19 
ROOT
HETATM    1  C6  UNL     1      42.231  13.072  83.581  1.00  0.00     0.022 C 
HETATM    2  C7  UNL     1      42.383  14.472  84.134  1.00  0.00     0.278 C 
HETATM    3  N2  UNL     1      41.551  14.681  85.282  1.00  0.00     0.093 N 
HETATM    4  C8  UNL     1      41.351  13.545  86.101  1.00  0.00     0.273 C 
HETATM    5  C9  UNL     1      40.801  12.347  85.382  1.00  0.00     0.035 C 
HETATM    6  C10 UNL     1      40.821  12.635  83.905  1.00  0.00    -0.006 C 
HETATM    7  C11 UNL     1      39.761  13.510  83.401  1.00  0.00     0.013 C 
HETATM    8  C12 UNL     1      39.335  14.671  84.196  1.00  0.00     0.048 C 
HETATM    9  C13 UNL     1      38.145  14.377  85.125  1.00  0.00     0.279 C 
HETATM   10  N3  UNL     1      37.473  15.607  85.506  1.00  0.00     0.089 N 
HETATM   11  C21 UNL     1      38.424  16.671  85.603  1.00  0.00     0.274 C 
HETATM   12  C22 UNL     1      39.775  16.190  86.077  1.00  0.00     0.066 C 
HETATM   13  C23 UNL     1      40.409  15.427  84.904  1.00  0.00     0.230 C 
ENDROOT
BRANCH   1  14
HETATM   14  C5  UNL     1      42.636  12.942  82.170  1.00  0.00     0.046 C 
BRANCH  14  15
HETATM   15  C4  UNL     1      43.601  13.889  81.642  1.00  0.00    -0.042 A 
HETATM   16  C3  UNL     1      44.964  13.838  81.904  1.00  0.00     0.094 A 
HETATM   17  N1  UNL     1      45.855  14.711  81.428  1.00  0.00    -0.375 N 
HETATM   18  C2  UNL     1      45.391  15.709  80.638  1.00  0.00     0.087 A 
ATOM     19  H1  UNL     1      46.847  14.630  81.650  1.00  0.00     0.164 HD
HETATM   20  C1  UNL     1      44.062  15.832  80.331  1.00  0.00     0.018 A 
HETATM   21  C24 UNL     1      43.167  14.920  80.834  1.00  0.00     0.010 A 
ENDBRANCH  14  15
ENDBRANCH   1  14
BRANCH  10  22
HETATM   22  C14 UNL     1      36.727  15.343  86.692  1.00  0.00     0.277 C 
BRANCH  22  23
HETATM   23  C15 UNL     1      35.766  16.403  87.101  1.00  0.00     0.014 C 
HETATM   24  C16 UNL     1      36.600  17.619  87.530  1.00  0.00     0.006 C 
HETATM   25  C17 UNL     1      35.692  18.831  87.504  1.00  0.00     0.000 C 
HETATM   26  C18 UNL     1      34.396  18.427  88.180  1.00  0.00     0.000 C 
HETATM   27  C19 UNL     1      34.645  17.276  89.110  1.00  0.00     0.000 C 
HETATM   28  C20 UNL     1      34.935  16.017  88.294  1.00  0.00     0.006 C 
ENDBRANCH  22  23
ENDBRANCH  10  22
TORSDOF 4
ENDMDL
MODEL 4
REMARK VINA RESULT: -5.956058433      1.942      8.390
REMARK  4 active torsions:
REMARK  status: ('A' for Active; 'I' for Inactive)
REMARK    1  A    between atoms: C4_6  and  C5_7 
REMARK    2  A    between atoms: C5_7  and  C6_8 
REMARK    3  A    between atoms: N3_17  and  C14_18 
REMARK    4  A    between atoms: C14_18  and  C15_19 
ROOT
HETATM    1  C6  UNL     1      39.362  14.402  85.765  1.00  0.00     0.022 C 
HETATM    2  C7  UNL     1      39.873  12.981  85.665  1.00  0.00     0.278 C 
HETATM    3  N2  UNL     1      41.200  12.932  85.128  1.00  0.00     0.093 N 
HETATM    4  C8  UNL     1      42.030  14.029  85.460  1.00  0.00     0.273 C 
HETATM    5  C9  UNL     1      41.465  15.371  85.094  1.00  0.00     0.035 C 
HETATM    6  C10 UNL     1      40.038  15.178  84.658  1.00  0.00    -0.006 C 
HETATM    7  C11 UNL     1      39.838  14.648  83.309  1.00  0.00     0.013 C 
HETATM    8  C12 UNL     1      40.730  13.597  82.799  1.00  0.00     0.048 C 
HETATM    9  C13 UNL     1      41.934  14.141  82.010  1.00  0.00     0.279 C 
HETATM   10  N3  UNL     1      42.491  13.113  81.148  1.00  0.00     0.089 N 
HETATM   11  C21 UNL     1      42.349  11.831  81.766  1.00  0.00     0.274 C 
HETATM   12  C22 UNL     1      42.449  11.906  83.270  1.00  0.00     0.066 C 
HETATM   13  C23 UNL     1      41.143  12.541  83.769  1.00  0.00     0.230 C 
ENDROOT
BRANCH   1  14
HETATM   14  C5  UNL     1      37.893  14.504  85.818  1.00  0.00     0.046 C 
BRANCH  14  15
HETATM   15  C4  UNL     1      37.308  15.666  86.462  1.00  0.00    -0.042 A 
HETATM   16  C3  UNL     1      36.417  15.599  87.525  1.00  0.00     0.094 A 
HETATM   17  N1  UNL     1      35.869  16.664  88.117  1.00  0.00    -0.375 N 
HETATM   18  C2  UNL     1      36.209  17.886  87.642  1.00  0.00     0.087 A 
ATOM     19  H1  UNL     1      35.219  16.561  88.896  1.00  0.00     0.164 HD
HETATM   20  C1  UNL     1      37.081  18.040  86.597  1.00  0.00     0.018 A 
HETATM   21  C24 UNL     1      37.630  16.928  86.007  1.00  0.00     0.010 A 
ENDBRANCH  14  15
ENDBRANCH   1  14
BRANCH  10  22
HETATM   22  C14 UNL     1      43.827  13.494  80.829  1.00  0.00     0.277 C 
BRANCH  22  23
HETATM   23  C15 UNL     1      44.433  14.530  81.707  1.00  0.00     0.014 C 
HETATM   24  C16 UNL     1      45.147  15.531  80.787  1.00  0.00     0.006 C 
HETATM   25  C17 UNL     1      45.366  16.805  81.576  1.00  0.00     0.000 C 
HETATM   26  C18 UNL     1      45.895  16.397  82.937  1.00  0.00     0.000 C 
HETATM   27  C19 UNL     1      46.552  15.052  82.845  1.00  0.00     0.000 C 
HETATM   28  C20 UNL     1      45.485  13.980  82.631  1.00  0.00     0.006 C 
ENDBRANCH  22  23
ENDBRANCH  10  22
TORSDOF 4
ENDMDL
MODEL 5
REMARK VINA RESULT: -5.916435281      2.021      3.985
REMARK  4 active torsions:
REMARK  status: ('A' for Active; 'I' for Inactive)
REMARK    1  A    between atoms: C4_6  and  C5_7 
REMARK    2  A    between atoms: C5_7  and  C6_8 
REMARK    3  A    between atoms: N3_17  and  C14_18 
REMARK    4  A    between atoms: C14_18  and  C15_19 
ROOT
HETATM    1  C6  UNL     1      43.744  13.161  80.425  1.00  0.00     0.022 C 
HETATM    2  C7  UNL     1      43.534  12.010  81.386  1.00  0.00     0.278 C 
HETATM    3  N2  UNL     1      42.179  11.945  81.846  1.00  0.00     0.093 N 
HETATM    4  C8  UNL     1      41.200  12.358  80.912  1.00  0.00     0.273 C 
HETATM    5  C9  UNL     1      41.405  13.742  80.366  1.00  0.00     0.035 C 
HETATM    6  C10 UNL     1      42.753  14.232  80.820  1.00  0.00    -0.006 C 
HETATM    7  C11 UNL     1      42.843  14.690  82.207  1.00  0.00     0.013 C 
HETATM    8  C12 UNL     1      42.123  13.964  83.263  1.00  0.00     0.048 C 
HETATM    9  C13 UNL     1      40.722  14.530  83.553  1.00  0.00     0.279 C 
HETATM   10  N3  UNL     1      40.265  14.120  84.869  1.00  0.00     0.089 N 
HETATM   11  C21 UNL     1      40.769  12.818  85.176  1.00  0.00     0.274 C 
HETATM   12  C22 UNL     1      40.896  11.949  83.948  1.00  0.00     0.066 C 
HETATM   13  C23 UNL     1      42.101  12.476  83.156  1.00  0.00     0.230 C 
ENDROOT
BRANCH   1  14
HETATM   14  C5  UNL     1      45.147  13.594  80.313  1.00  0.00     0.046 C 
BRANCH  14  15
HETATM   15  C4  UNL     1      45.673  14.491  81.326  1.00  0.00    -0.042 A 
HETATM   16  C3  UNL     1      45.888  15.848  81.126  1.00  0.00     0.094 A 
HETATM   17  N1  UNL     1      46.379  16.677  82.052  1.00  0.00    -0.375 N 
HETATM   18  C2  UNL     1      46.685  16.151  83.262  1.00  0.00     0.087 A 
ATOM     19  H1  UNL     1      46.518  17.668  81.855  1.00  0.00     0.164 HD
HETATM   20  C1  UNL     1      46.503  14.822  83.541  1.00  0.00     0.018 A 
HETATM   21  C24 UNL     1      45.997  13.992  82.571  1.00  0.00     0.010 A 
ENDBRANCH  14  15
ENDBRANCH   1  14
BRANCH  10  22
HETATM   22  C14 UNL     1      38.845  14.248  84.893  1.00  0.00     0.277 C 
BRANCH  22  23
HETATM   23  C15 UNL     1      38.290  15.108  85.972  1.00  0.00     0.014 C 
HETATM   24  C16 UNL     1      36.808  15.338  85.639  1.00  0.00     0.006 C 
HETATM   25  C17 UNL     1      36.119  15.797  86.907  1.00  0.00     0.000 C 
HETATM   26  C18 UNL     1      37.007  16.852  87.536  1.00  0.00     0.000 C 
HETATM   27  C19 UNL     1      37.875  17.479  86.486  1.00  0.00     0.000 C 
HETATM   28  C20 UNL     1      38.927  16.469  86.029  1.00  0.00     0.006 C 
ENDBRANCH  22  23
ENDBRANCH  10  22
TORSDOF 4
ENDMDL
