MODEL 1
REMARK VINA RESULT: -8.178994281      0.000      0.000
REMARK  4 active torsions:
REMARK  status: ('A' for Active; 'I' for Inactive)
REMARK    1  A    between atoms: C3_4  and  C4_5 
REMARK    2  A    between atoms: C4_5  and  C5_6 
REMARK    3  A    between atoms: N1_12  and  C10_13 
REMARK    4  A    between atoms: N2_20  and  C17_21 
ROOT
HETATM    1  C10 UNL     1      41.298  15.113  84.962  1.00  0.00     0.091 C 
HETATM    2  C11 UNL     1      41.526  16.186  83.921  1.00  0.00     0.050 C 
HETATM    3  C12 UNL     1      42.822  15.886  83.173  1.00  0.00     0.082 C 
HETATM    4  C13 UNL     1      43.889  15.673  84.259  1.00  0.00     0.027 C 
HETATM    5  C14 UNL     1      43.842  14.190  84.587  1.00  0.00     0.027 C 
HETATM    6  C15 UNL     1      42.827  13.681  83.591  1.00  0.00     0.082 C 
HETATM    7  C16 UNL     1      41.459  13.772  84.289  1.00  0.00     0.050 C 
HETATM    8  N2  UNL     1      42.797  14.618  82.562  1.00  0.00    -0.399 N 
ENDROOT
BRANCH   1   9
HETATM    9  N1  UNL     1      39.940  15.183  85.469  1.00  0.00    -0.347 N 
HETATM   10  C1  UNL     1      38.996  14.138  85.404  1.00  0.00     0.220 C 
HETATM   11  O1  UNL     1      39.208  12.880  85.330  1.00  0.00    -0.273 OA
HETATM   12  C2  UNL     1      37.644  14.793  85.439  1.00  0.00     0.109 C 
HETATM   13  C3  UNL     1      37.914  16.018  86.243  1.00  0.00     0.018 C 
HETATM   14  C9  UNL     1      39.364  16.341  86.125  1.00  0.00     0.131 C 
BRANCH  13  15
HETATM   15  C4  UNL     1      37.409  15.942  87.655  1.00  0.00     0.071 C 
BRANCH  15  16
HETATM   16  C5  UNL     1      36.177  16.741  87.863  1.00  0.00     0.053 A 
HETATM   17  C6  UNL     1      34.935  16.236  88.186  1.00  0.00     0.034 A 
HETATM   18  C7  UNL     1      34.089  17.314  88.283  1.00  0.00     0.027 A 
HETATM   19  C8  UNL     1      34.852  18.431  88.013  1.00  0.00     0.142 A 
HETATM   20  O2  UNL     1      36.090  18.042  87.768  1.00  0.00    -0.327 OA
ENDBRANCH  15  16
ENDBRANCH  13  15
ENDBRANCH   1   9
BRANCH   8  21
HETATM   21  C17 UNL     1      43.273  14.413  81.288  1.00  0.00     0.080 C 
HETATM   22  C18 UNL     1      42.157  13.726  80.492  1.00  0.00     0.025 C 
HETATM   23  C19 UNL     1      42.716  12.976  79.310  1.00  0.00     0.002 C 
HETATM   24  C20 UNL     1      43.935  13.682  78.754  1.00  0.00     0.000 C 
HETATM   25  C21 UNL     1      45.046  13.484  79.754  1.00  0.00     0.002 C 
HETATM   26  C22 UNL     1      44.575  13.682  81.157  1.00  0.00     0.025 C 
ENDBRANCH   8  21
TORSDOF 4
ENDMDL
MODEL 2
REMARK VINA RESULT: -7.535212794      0.831      1.087
REMARK  4 active torsions:
REMARK  status: ('A' for Active; 'I' for Inactive)
REMARK    1  A    between atoms: C3_4  and  C4_5 
REMARK    2  A    between atoms: C4_5  and  C5_6 
REMARK    3  A    between atoms: N1_12  and  C10_13 
REMARK    4  A    between atoms: N2_20  and  C17_21 
ROOT
HETATM    1  C10 UNL     1      41.234  15.319  85.045  1.00  0.00     0.091 C 
HETATM    2  C11 UNL     1      41.505  16.433  84.058  1.00  0.00     0.050 C 
HETATM    3  C12 UNL     1      42.878  16.217  83.428  1.00  0.00     0.082 C 
HETATM    4  C13 UNL     1      43.849  16.019  84.604  1.00  0.00     0.027 C 
HETATM    5  C14 UNL     1      43.844  14.526  84.887  1.00  0.00     0.027 C 
HETATM    6  C15 UNL     1      42.951  14.002  83.786  1.00  0.00     0.082 C 
HETATM    7  C16 UNL     1      41.522  14.009  84.355  1.00  0.00     0.050 C 
HETATM    8  N2  UNL     1      42.971  14.968  82.784  1.00  0.00    -0.399 N 
ENDROOT
BRANCH   1   9
HETATM    9  N1  UNL     1      39.833  15.311  85.424  1.00  0.00    -0.347 N 
HETATM   10  C1  UNL     1      38.961  14.214  85.278  1.00  0.00     0.220 C 
HETATM   11  O1  UNL     1      39.250  12.970  85.231  1.00  0.00    -0.273 OA
HETATM   12  C2  UNL     1      37.576  14.789  85.183  1.00  0.00     0.109 C 
HETATM   13  C3  UNL     1      37.700  16.029  86.001  1.00  0.00     0.018 C 
HETATM   14  C9  UNL     1      39.133  16.434  86.016  1.00  0.00     0.131 C 
BRANCH  13  15
HETATM   15  C4  UNL     1      37.072  15.925  87.361  1.00  0.00     0.071 C 
BRANCH  15  16
HETATM   16  C5  UNL     1      36.161  17.058  87.655  1.00  0.00     0.053 A 
HETATM   17  C6  UNL     1      36.350  18.366  87.262  1.00  0.00     0.034 A 
HETATM   18  C7  UNL     1      35.278  19.077  87.743  1.00  0.00     0.027 A 
HETATM   19  C8  UNL     1      34.480  18.171  88.410  1.00  0.00     0.142 A 
HETATM   20  O2  UNL     1      35.045  16.980  88.333  1.00  0.00    -0.327 OA
ENDBRANCH  15  16
ENDBRANCH  13  15
ENDBRANCH   1   9
BRANCH   8  21
HETATM   21  C17 UNL     1      43.573  14.824  81.555  1.00  0.00     0.080 C 
HETATM   22  C18 UNL     1      43.449  13.349  81.159  1.00  0.00     0.025 C 
HETATM   23  C19 UNL     1      44.503  12.966  80.153  1.00  0.00     0.002 C 
HETATM   24  C20 UNL     1      44.826  14.133  79.244  1.00  0.00     0.000 C 
HETATM   25  C21 UNL     1      45.591  15.133  80.075  1.00  0.00     0.002 C 
HETATM   26  C22 UNL     1      44.984  15.313  81.427  1.00  0.00     0.025 C 
ENDBRANCH   8  21
TORSDOF 4
ENDMDL
MODEL 3
REMARK VINA RESULT: -7.261163067      2.684      8.179
REMARK  4 active torsions:
REMARK  status: ('A' for Active; 'I' for Inactive)
REMARK    1  A    between atoms: C3_4  and  C4_5 
REMARK    2  A    between atoms: C4_5  and  C5_6 
REMARK    3  A    between atoms: N1_12  and  C10_13 
REMARK    4  A    between atoms: N2_20  and  C17_21 
ROOT
HETATM    1  C10 UNL     1      41.840  13.111  83.321  1.00  0.00     0.091 C 
HETATM    2  C11 UNL     1      40.363  12.910  83.067  1.00  0.00     0.050 C 
HETATM    3  C12 UNL     1      39.587  13.267  84.332  1.00  0.00     0.082 C 
HETATM    4  C13 UNL     1      40.255  12.473  85.467  1.00  0.00     0.027 C 
HETATM    5  C14 UNL     1      41.357  13.375  85.998  1.00  0.00     0.027 C 
HETATM    6  C15 UNL     1      41.150  14.632  85.186  1.00  0.00     0.082 C 
HETATM    7  C16 UNL     1      42.024  14.479  83.930  1.00  0.00     0.050 C 
HETATM    8  N2  UNL     1      39.830  14.590  84.745  1.00  0.00    -0.399 N 
ENDROOT
BRANCH   1   9
HETATM    9  N1  UNL     1      42.574  13.090  82.070  1.00  0.00    -0.347 N 
HETATM   10  C1  UNL     1      42.020  13.353  80.801  1.00  0.00     0.220 C 
HETATM   11  O1  UNL     1      40.988  14.050  80.514  1.00  0.00    -0.273 OA
HETATM   12  C2  UNL     1      42.892  12.639  79.807  1.00  0.00     0.109 C 
HETATM   13  C3  UNL     1      44.219  12.667  80.484  1.00  0.00     0.018 C 
HETATM   14  C9  UNL     1      43.990  12.803  81.950  1.00  0.00     0.131 C 
BRANCH  13  15
HETATM   15  C4  UNL     1      45.172  13.676  79.910  1.00  0.00     0.071 C 
BRANCH  15  16
HETATM   16  C5  UNL     1      45.290  14.891  80.753  1.00  0.00     0.053 A 
HETATM   17  C6  UNL     1      44.507  16.022  80.649  1.00  0.00     0.034 A 
HETATM   18  C7  UNL     1      44.951  16.894  81.613  1.00  0.00     0.027 A 
HETATM   19  C8  UNL     1      45.988  16.257  82.264  1.00  0.00     0.142 A 
HETATM   20  O2  UNL     1      46.155  15.066  81.718  1.00  0.00    -0.327 OA
ENDBRANCH  15  16
ENDBRANCH  13  15
ENDBRANCH   1   9
BRANCH   8  21
HETATM   21  C17 UNL     1      38.820  15.415  85.183  1.00  0.00     0.080 C 
HETATM   22  C18 UNL     1      39.472  16.530  86.008  1.00  0.00     0.025 C 
HETATM   23  C19 UNL     1      38.483  17.147  86.964  1.00  0.00     0.002 C 
HETATM   24  C20 UNL     1      37.089  17.141  86.372  1.00  0.00     0.000 C 
HETATM   25  C21 UNL     1      36.619  15.708  86.379  1.00  0.00     0.002 C 
HETATM   26  C22 UNL     1      37.688  14.770  85.923  1.00  0.00     0.025 C 
ENDBRANCH   8  21
TORSDOF 4
ENDMDL
MODEL 4
REMARK VINA RESULT: -7.039482057      0.991      1.403
REMARK  4 active torsions:
REMARK  status: ('A' for Active; 'I' for Inactive)
REMARK    1  A    between atoms: C3_4  and  C4_5 
REMARK    2  A    between atoms: C4_5  and  C5_6 
REMARK    3  A    between atoms: N1_12  and  C10_13 
REMARK    4  A    between atoms: N2_20  and  C17_21 
ROOT
HETATM    1  C10 UNL     1      41.191  15.793  85.244  1.00  0.00     0.091 C 
HETATM    2  C11 UNL     1      41.330  16.589  83.966  1.00  0.00     0.050 C 
HETATM    3  C12 UNL     1      42.789  16.564  83.519  1.00  0.00     0.082 C 
HETATM    4  C13 UNL     1      43.607  16.993  84.749  1.00  0.00     0.027 C 
HETATM    5  C14 UNL     1      43.911  15.709  85.502  1.00  0.00     0.027 C 
HETATM    6  C15 UNL     1      43.325  14.662  84.584  1.00  0.00     0.082 C 
HETATM    7  C16 UNL     1      41.869  14.461  85.037  1.00  0.00     0.050 C 
HETATM    8  N2  UNL     1      43.258  15.251  83.324  1.00  0.00    -0.399 N 
ENDROOT
BRANCH   1   9
HETATM    9  N1  UNL     1      39.792  15.530  85.525  1.00  0.00    -0.347 N 
HETATM   10  C1  UNL     1      39.126  14.317  85.255  1.00  0.00     0.220 C 
HETATM   11  O1  UNL     1      39.623  13.143  85.155  1.00  0.00    -0.273 OA
HETATM   12  C2  UNL     1      37.673  14.663  85.099  1.00  0.00     0.109 C 
HETATM   13  C3  UNL     1      37.539  15.845  85.996  1.00  0.00     0.018 C 
HETATM   14  C9  UNL     1      38.881  16.479  86.134  1.00  0.00     0.131 C 
BRANCH  13  15
HETATM   15  C4  UNL     1      36.859  15.545  87.301  1.00  0.00     0.071 C 
BRANCH  15  16
HETATM   16  C5  UNL     1      35.909  16.610  87.706  1.00  0.00     0.053 A 
HETATM   17  C6  UNL     1      34.622  16.410  88.160  1.00  0.00     0.034 A 
HETATM   18  C7  UNL     1      34.102  17.655  88.419  1.00  0.00     0.027 A 
HETATM   19  C8  UNL     1      35.095  18.562  88.110  1.00  0.00     0.142 A 
HETATM   20  O2  UNL     1      36.154  17.894  87.689  1.00  0.00    -0.327 OA
ENDBRANCH  15  16
ENDBRANCH  13  15
ENDBRANCH   1   9
BRANCH   8  21
HETATM   21  C17 UNL     1      44.040  14.909  82.246  1.00  0.00     0.080 C 
HETATM   22  C18 UNL     1      44.614  16.209  81.671  1.00  0.00     0.025 C 
HETATM   23  C19 UNL     1      45.010  16.037  80.227  1.00  0.00     0.002 C 
HETATM   24  C20 UNL     1      45.501  14.628  79.970  1.00  0.00     0.000 C 
HETATM   25  C21 UNL     1      44.292  13.728  80.032  1.00  0.00     0.002 C 
HETATM   26  C22 UNL     1      43.402  14.070  81.181  1.00  0.00     0.025 C 
ENDBRANCH   8  21
TORSDOF 4
ENDMDL
MODEL 5
REMARK VINA RESULT: -6.740242050      1.060      1.392
REMARK  4 active torsions:
REMARK  status: ('A' for Active; 'I' for Inactive)
REMARK    1  A    between atoms: C3_4  and  C4_5 
REMARK    2  A    between atoms: C4_5  and  C5_6 
REMARK    3  A    between atoms: N1_12  and  C10_13 
REMARK    4  A    between atoms: N2_20  and  C17_21 
ROOT
HETATM    1  C10 UNL     1      40.853  14.534  84.824  1.00  0.00     0.091 C 
HETATM    2  C11 UNL     1      41.977  15.539  84.709  1.00  0.00     0.050 C 
HETATM    3  C12 UNL     1      43.107  14.930  83.883  1.00  0.00     0.082 C 
HETATM    4  C13 UNL     1      43.401  13.564  84.525  1.00  0.00     0.027 C 
HETATM    5  C14 UNL     1      42.480  12.580  83.823  1.00  0.00     0.027 C 
HETATM    6  C15 UNL     1      41.822  13.456  82.783  1.00  0.00     0.082 C 
HETATM    7  C16 UNL     1      40.549  14.017  83.440  1.00  0.00     0.050 C 
HETATM    8  N2  UNL     1      42.673  14.542  82.602  1.00  0.00    -0.399 N 
ENDROOT
BRANCH   1   9
HETATM    9  N1  UNL     1      39.651  15.177  85.322  1.00  0.00    -0.347 N 
HETATM   10  C1  UNL     1      38.424  14.525  85.561  1.00  0.00     0.220 C 
HETATM   11  O1  UNL     1      38.218  13.292  85.826  1.00  0.00    -0.273 OA
HETATM   12  C2  UNL     1      37.360  15.579  85.445  1.00  0.00     0.109 C 
HETATM   13  C3  UNL     1      38.089  16.804  85.882  1.00  0.00     0.018 C 
HETATM   14  C9  UNL     1      39.545  16.585  85.651  1.00  0.00     0.131 C 
BRANCH  13  15
HETATM   15  C4  UNL     1      37.743  17.254  87.272  1.00  0.00     0.071 C 
BRANCH  15  16
HETATM   16  C5  UNL     1      36.370  16.861  87.672  1.00  0.00     0.053 A 
HETATM   17  C6  UNL     1      36.010  15.656  88.238  1.00  0.00     0.034 A 
HETATM   18  C7  UNL     1      34.653  15.713  88.447  1.00  0.00     0.027 A 
HETATM   19  C8  UNL     1      34.244  16.951  87.999  1.00  0.00     0.142 A 
HETATM   20  O2  UNL     1      35.300  17.602  87.545  1.00  0.00    -0.327 OA
ENDBRANCH  15  16
ENDBRANCH  13  15
ENDBRANCH   1   9
BRANCH   8  21
HETATM   21  C17 UNL     1      43.423  14.783  81.474  1.00  0.00     0.080 C 
HETATM   22  C18 UNL     1      43.655  13.433  80.786  1.00  0.00     0.025 C 
HETATM   23  C19 UNL     1      44.870  13.478  79.896  1.00  0.00     0.002 C 
HETATM   24  C20 UNL     1      45.040  14.855  79.290  1.00  0.00     0.000 C 
HETATM   25  C21 UNL     1      45.482  15.770  80.404  1.00  0.00     0.002 C 
HETATM   26  C22 UNL     1      44.705  15.536  81.658  1.00  0.00     0.025 C 
ENDBRANCH   8  21
TORSDOF 4
ENDMDL
