MODEL 1
REMARK VINA RESULT: -2.893425308      0.000      0.000
REMARK  5 active torsions:
REMARK  status: ('A' for Active; 'I' for Inactive)
REMARK    1  A    between atoms: C2_2  and  C3_3 
REMARK    2  A    between atoms: C2_2  and  C4_6 
REMARK    3  A    between atoms: C3_3  and  O1_4 
REMARK    4  A    between atoms: C9_12  and  C10_13 
REMARK    5  A    between atoms: C10_13  and  O2_14 
ROOT
HETATM    1  C4  UNL     1      43.385  13.362  81.878  1.00  0.00    -0.027 C 
HETATM    2  C5  UNL     1      44.663  12.904  82.482  1.00  0.00    -0.013 C 
HETATM    3  C6  UNL     1      45.956  13.500  82.132  1.00  0.00     0.042 C 
HETATM    4  C7  UNL     1      46.309  14.560  83.182  1.00  0.00     0.048 C 
HETATM    5  C8  UNL     1      46.242  14.020  84.582  1.00  0.00     0.021 C 
HETATM    6  S1  UNL     1      45.313  15.950  82.898  1.00  0.00    -0.143 SA
HETATM    7  C9  UNL     1      43.757  15.893  82.088  1.00  0.00     0.072 C 
HETATM    8  C11 UNL     1      43.129  17.172  82.652  1.00  0.00    -0.003 C 
HETATM    9  C12 UNL     1      41.994  17.241  83.132  1.00  0.00    -0.023 C 
HETATM   10  C13 UNL     1      41.076  16.108  83.236  1.00  0.00     0.025 C 
HETATM   11  C14 UNL     1      40.143  16.367  84.373  1.00  0.00     0.002 C 
HETATM   12  C15 UNL     1      38.670  16.379  84.014  1.00  0.00     0.006 C 
HETATM   13  C16 UNL     1      38.022  17.353  85.018  1.00  0.00     0.000 C 
HETATM   14  C17 UNL     1      38.229  16.722  86.372  1.00  0.00     0.001 C 
HETATM   15  C18 UNL     1      39.102  15.500  86.376  1.00  0.00     0.009 C 
HETATM   16  C19 UNL     1      40.454  15.773  85.686  1.00  0.00    -0.040 C 
HETATM   17  C20 UNL     1      41.122  16.782  86.638  1.00  0.00     0.015 C 
HETATM   18  C21 UNL     1      41.302  14.572  85.710  1.00  0.00     0.010 C 
HETATM   19  C22 UNL     1      42.296  14.416  84.612  1.00  0.00     0.015 C 
HETATM   20  C23 UNL     1      41.786  14.771  83.244  1.00  0.00    -0.011 C 
HETATM   21  C24 UNL     1      40.627  13.819  82.989  1.00  0.00     0.021 C 
HETATM   22  C25 UNL     1      42.864  14.727  82.165  1.00  0.00    -0.036 C 
ENDROOT
BRANCH   1  23
HETATM   23  C2  UNL     1      43.228  12.778  80.540  1.00  0.00    -0.034 C 
HETATM   24  C1  UNL     1      43.337  11.478  80.311  1.00  0.00     0.022 C 
BRANCH  23  25
HETATM   25  C3  UNL     1      42.973  13.502  79.261  1.00  0.00     0.202 C 
BRANCH  25  26
HETATM   26  O1  UNL     1      41.632  13.812  79.173  1.00  0.00    -0.396 OA
ATOM     27  H1  UNL     1      41.127  13.169  79.656  1.00  0.00     0.209 HD
ENDBRANCH  25  26
ENDBRANCH  23  25
ENDBRANCH   1  23
BRANCH   7  28
HETATM   28  C10 UNL     1      43.927  16.430  80.631  1.00  0.00     0.193 C 
BRANCH  28  29
HETATM   29  O2  UNL     1      45.160  16.687  80.207  1.00  0.00    -0.399 OA
ATOM     30  H2  UNL     1      45.810  16.000  80.298  1.00  0.00     0.209 HD
ENDBRANCH  28  29
ENDBRANCH   7  28
TORSDOF 5
ENDMDL
MODEL 2
REMARK VINA RESULT: -2.333628083      1.760      3.510
REMARK  5 active torsions:
REMARK  status: ('A' for Active; 'I' for Inactive)
REMARK    1  A    between atoms: C2_2  and  C3_3 
REMARK    2  A    between atoms: C2_2  and  C4_6 
REMARK    3  A    between atoms: C3_3  and  O1_4 
REMARK    4  A    between atoms: C9_12  and  C10_13 
REMARK    5  A    between atoms: C10_13  and  O2_14 
ROOT
HETATM    1  C4  UNL     1      44.985  14.835  83.573  1.00  0.00    -0.027 C 
HETATM    2  C5  UNL     1      45.494  16.118  83.021  1.00  0.00    -0.013 C 
HETATM    3  C6  UNL     1      45.871  16.274  81.614  1.00  0.00     0.042 C 
HETATM    4  C7  UNL     1      44.689  16.882  80.851  1.00  0.00     0.048 C 
HETATM    5  C8  UNL     1      44.186  18.143  81.493  1.00  0.00     0.021 C 
HETATM    6  S1  UNL     1      43.487  15.649  80.648  1.00  0.00    -0.143 SA
HETATM    7  C9  UNL     1      43.325  14.254  81.703  1.00  0.00     0.072 C 
HETATM    8  C11 UNL     1      41.854  13.911  81.446  1.00  0.00    -0.003 C 
HETATM    9  C12 UNL     1      41.021  13.692  82.331  1.00  0.00    -0.023 C 
HETATM   10  C13 UNL     1      41.316  13.730  83.763  1.00  0.00     0.025 C 
HETATM   11  C14 UNL     1      40.053  14.057  84.489  1.00  0.00     0.002 C 
HETATM   12  C15 UNL     1      39.612  13.032  85.516  1.00  0.00     0.006 C 
HETATM   13  C16 UNL     1      38.074  13.135  85.547  1.00  0.00     0.000 C 
HETATM   14  C17 UNL     1      37.780  14.532  86.036  1.00  0.00     0.001 C 
HETATM   15  C18 UNL     1      38.981  15.422  86.173  1.00  0.00     0.009 C 
HETATM   16  C19 UNL     1      39.805  15.459  84.870  1.00  0.00    -0.040 C 
HETATM   17  C20 UNL     1      38.853  16.169  83.889  1.00  0.00     0.015 C 
HETATM   18  C21 UNL     1      40.969  16.346  85.015  1.00  0.00     0.010 C 
HETATM   19  C22 UNL     1      42.167  16.042  84.183  1.00  0.00     0.015 C 
HETATM   20  C23 UNL     1      42.521  14.584  84.095  1.00  0.00    -0.011 C 
HETATM   21  C24 UNL     1      42.802  14.154  85.528  1.00  0.00     0.021 C 
HETATM   22  C25 UNL     1      43.669  14.296  83.133  1.00  0.00    -0.036 C 
ENDROOT
BRANCH   1  23
HETATM   23  C2  UNL     1      46.107  13.924  83.832  1.00  0.00    -0.034 C 
HETATM   24  C1  UNL     1      46.907  14.056  84.879  1.00  0.00     0.022 C 
BRANCH  23  25
HETATM   25  C3  UNL     1      46.551  12.774  82.992  1.00  0.00     0.202 C 
BRANCH  25  26
HETATM   26  O1  UNL     1      47.173  13.252  81.858  1.00  0.00    -0.396 OA
ATOM     27  H1  UNL     1      48.028  13.597  82.088  1.00  0.00     0.209 HD
ENDBRANCH  25  26
ENDBRANCH  23  25
ENDBRANCH   1  23
BRANCH   7  28
HETATM   28  C10 UNL     1      43.909  13.002  80.976  1.00  0.00     0.193 C 
BRANCH  28  29
HETATM   29  O2  UNL     1      44.880  13.199  80.090  1.00  0.00    -0.399 OA
ATOM     30  H2  UNL     1      45.249  14.072  80.026  1.00  0.00     0.209 HD
ENDBRANCH  28  29
ENDBRANCH   7  28
TORSDOF 5
ENDMDL
MODEL 3
REMARK VINA RESULT: -2.078465989      1.897      3.931
REMARK  5 active torsions:
REMARK  status: ('A' for Active; 'I' for Inactive)
REMARK    1  A    between atoms: C2_2  and  C3_3 
REMARK    2  A    between atoms: C2_2  and  C4_6 
REMARK    3  A    between atoms: C3_3  and  O1_4 
REMARK    4  A    between atoms: C9_12  and  C10_13 
REMARK    5  A    between atoms: C10_13  and  O2_14 
ROOT
HETATM    1  C4  UNL     1      44.041  15.286  82.907  1.00  0.00    -0.027 C 
HETATM    2  C5  UNL     1      44.156  15.822  81.526  1.00  0.00    -0.013 C 
HETATM    3  C6  UNL     1      44.373  14.957  80.363  1.00  0.00     0.042 C 
HETATM    4  C7  UNL     1      43.019  14.669  79.704  1.00  0.00     0.048 C 
HETATM    5  C8  UNL     1      42.254  15.925  79.399  1.00  0.00     0.021 C 
HETATM    6  S1  UNL     1      42.168  13.532  80.699  1.00  0.00    -0.143 SA
HETATM    7  C9  UNL     1      42.455  13.327  82.420  1.00  0.00     0.072 C 
HETATM    8  C11 UNL     1      41.109  12.721  82.831  1.00  0.00    -0.003 C 
HETATM    9  C12 UNL     1      40.431  13.106  83.789  1.00  0.00    -0.023 C 
HETATM   10  C13 UNL     1      40.812  14.205  84.675  1.00  0.00     0.025 C 
HETATM   11  C14 UNL     1      39.566  14.791  85.251  1.00  0.00     0.002 C 
HETATM   12  C15 UNL     1      39.485  14.783  86.765  1.00  0.00     0.006 C 
HETATM   13  C16 UNL     1      37.981  14.679  87.084  1.00  0.00     0.000 C 
HETATM   14  C17 UNL     1      37.370  15.943  86.531  1.00  0.00     0.001 C 
HETATM   15  C18 UNL     1      38.304  16.799  85.727  1.00  0.00     0.009 C 
HETATM   16  C19 UNL     1      38.990  15.987  84.609  1.00  0.00    -0.040 C 
HETATM   17  C20 UNL     1      37.815  15.637  83.677  1.00  0.00     0.015 C 
HETATM   18  C21 UNL     1      39.891  16.842  83.821  1.00  0.00     0.010 C 
HETATM   19  C22 UNL     1      41.060  16.186  83.172  1.00  0.00     0.015 C 
HETATM   20  C23 UNL     1      41.774  15.179  84.028  1.00  0.00    -0.011 C 
HETATM   21  C24 UNL     1      42.264  15.959  85.239  1.00  0.00     0.021 C 
HETATM   22  C25 UNL     1      42.882  14.433  83.290  1.00  0.00    -0.036 C 
ENDROOT
BRANCH   1  23
HETATM   23  C2  UNL     1      45.378  14.998  83.442  1.00  0.00    -0.034 C 
HETATM   24  C1  UNL     1      46.271  15.946  83.680  1.00  0.00     0.022 C 
BRANCH  23  25
HETATM   25  C3  UNL     1      45.956  13.660  83.759  1.00  0.00     0.202 C 
BRANCH  25  26
HETATM   26  O1  UNL     1      46.465  13.098  82.607  1.00  0.00    -0.396 OA
ATOM     27  H1  UNL     1      45.751  12.892  82.015  1.00  0.00     0.209 HD
ENDBRANCH  25  26
ENDBRANCH  23  25
ENDBRANCH   1  23
BRANCH   7  28
HETATM   28  C10 UNL     1      43.289  12.026  82.641  1.00  0.00     0.193 C 
BRANCH  28  29
HETATM   29  O2  UNL     1      44.022  11.582  81.625  1.00  0.00    -0.399 OA
ATOM     30  H2  UNL     1      44.731  10.980  81.821  1.00  0.00     0.209 HD
ENDBRANCH  28  29
ENDBRANCH   7  28
TORSDOF 5
ENDMDL
MODEL 4
REMARK VINA RESULT: -1.977906909      1.823      2.491
REMARK  5 active torsions:
REMARK  status: ('A' for Active; 'I' for Inactive)
REMARK    1  A    between atoms: C2_2  and  C3_3 
REMARK    2  A    between atoms: C2_2  and  C4_6 
REMARK    3  A    between atoms: C3_3  and  O1_4 
REMARK    4  A    between atoms: C9_12  and  C10_13 
REMARK    5  A    between atoms: C10_13  and  O2_14 
ROOT
HETATM    1  C4  UNL     1      43.813  14.763  81.103  1.00  0.00    -0.027 C 
HETATM    2  C5  UNL     1      45.106  14.035  81.198  1.00  0.00    -0.013 C 
HETATM    3  C6  UNL     1      46.340  14.682  81.650  1.00  0.00     0.042 C 
HETATM    4  C7  UNL     1      46.531  14.390  83.143  1.00  0.00     0.048 C 
HETATM    5  C8  UNL     1      46.460  12.921  83.450  1.00  0.00     0.021 C 
HETATM    6  S1  UNL     1      45.404  15.365  84.030  1.00  0.00    -0.143 SA
HETATM    7  C9  UNL     1      43.900  15.978  83.363  1.00  0.00     0.072 C 
HETATM    8  C11 UNL     1      43.113  16.190  84.660  1.00  0.00    -0.003 C 
HETATM    9  C12 UNL     1      41.957  15.801  84.850  1.00  0.00    -0.023 C 
HETATM   10  C13 UNL     1      41.163  15.074  83.860  1.00  0.00     0.025 C 
HETATM   11  C14 UNL     1      40.159  14.244  84.587  1.00  0.00     0.002 C 
HETATM   12  C15 UNL     1      38.710  14.519  84.233  1.00  0.00     0.006 C 
HETATM   13  C16 UNL     1      37.917  14.195  85.515  1.00  0.00     0.000 C 
HETATM   14  C17 UNL     1      38.131  12.721  85.752  1.00  0.00     0.001 C 
HETATM   15  C18 UNL     1      39.129  12.070  84.839  1.00  0.00     0.009 C 
HETATM   16  C19 UNL     1      40.473  12.827  84.844  1.00  0.00    -0.040 C 
HETATM   17  C20 UNL     1      40.986  12.595  86.278  1.00  0.00     0.015 C 
HETATM   18  C21 UNL     1      41.445  12.169  83.957  1.00  0.00     0.010 C 
HETATM   19  C22 UNL     1      42.497  13.026  83.343  1.00  0.00     0.015 C 
HETATM   20  C23 UNL     1      42.013  14.354  82.835  1.00  0.00    -0.011 C 
HETATM   21  C24 UNL     1      40.976  14.021  81.772  1.00  0.00     0.021 C 
HETATM   22  C25 UNL     1      43.136  15.257  82.333  1.00  0.00    -0.036 C 
ENDROOT
BRANCH   1  23
HETATM   23  C2  UNL     1      43.780  15.561  79.871  1.00  0.00    -0.034 C 
HETATM   24  C1  UNL     1      44.722  16.438  79.563  1.00  0.00     0.022 C 
BRANCH  23  25
HETATM   25  C3  UNL     1      42.720  15.561  78.821  1.00  0.00     0.202 C 
BRANCH  25  26
HETATM   26  O1  UNL     1      42.080  14.339  78.819  1.00  0.00    -0.396 OA
ATOM     27  H1  UNL     1      42.499  13.765  78.187  1.00  0.00     0.209 HD
ENDBRANCH  25  26
ENDBRANCH  23  25
ENDBRANCH   1  23
BRANCH   7  28
HETATM   28  C10 UNL     1      44.076  17.495  83.035  1.00  0.00     0.193 C 
BRANCH  28  29
HETATM   29  O2  UNL     1      43.142  18.079  82.292  1.00  0.00    -0.399 OA
ATOM     30  H2  UNL     1      42.238  17.826  82.439  1.00  0.00     0.209 HD
ENDBRANCH  28  29
ENDBRANCH   7  28
TORSDOF 5
ENDMDL
MODEL 5
REMARK VINA RESULT: -0.982965747      1.838      3.535
REMARK  5 active torsions:
REMARK  status: ('A' for Active; 'I' for Inactive)
REMARK    1  A    between atoms: C2_2  and  C3_3 
REMARK    2  A    between atoms: C2_2  and  C4_6 
REMARK    3  A    between atoms: C3_3  and  O1_4 
REMARK    4  A    between atoms: C9_12  and  C10_13 
REMARK    5  A    between atoms: C10_13  and  O2_14 
ROOT
HETATM    1  C4  UNL     1      43.063  15.659  81.683  1.00  0.00    -0.027 C 
HETATM    2  C5  UNL     1      43.213  14.625  80.625  1.00  0.00    -0.013 C 
HETATM    3  C6  UNL     1      44.350  13.700  80.585  1.00  0.00     0.042 C 
HETATM    4  C7  UNL     1      43.935  12.382  81.248  1.00  0.00     0.048 C 
HETATM    5  C8  UNL     1      42.670  11.823  80.663  1.00  0.00     0.021 C 
HETATM    6  S1  UNL     1      43.885  12.634  82.963  1.00  0.00    -0.143 SA
HETATM    7  C9  UNL     1      43.635  14.200  83.717  1.00  0.00     0.072 C 
HETATM    8  C11 UNL     1      43.094  13.745  85.076  1.00  0.00    -0.003 C 
HETATM    9  C12 UNL     1      42.082  14.200  85.616  1.00  0.00    -0.023 C 
HETATM   10  C13 UNL     1      41.242  15.246  85.034  1.00  0.00     0.025 C 
HETATM   11  C14 UNL     1      39.861  15.092  85.580  1.00  0.00     0.002 C 
HETATM   12  C15 UNL     1      39.313  16.302  86.310  1.00  0.00     0.006 C 
HETATM   13  C16 UNL     1      38.348  15.728  87.366  1.00  0.00     0.000 C 
HETATM   14  C17 UNL     1      37.255  15.050  86.578  1.00  0.00     0.001 C 
HETATM   15  C18 UNL     1      37.494  14.975  85.098  1.00  0.00     0.009 C 
HETATM   16  C19 UNL     1      38.868  14.352  84.780  1.00  0.00    -0.040 C 
HETATM   17  C20 UNL     1      38.699  12.899  85.263  1.00  0.00     0.015 C 
HETATM   18  C21 UNL     1      39.081  14.273  83.327  1.00  0.00     0.010 C 
HETATM   19  C22 UNL     1      40.488  14.318  82.840  1.00  0.00     0.015 C 
HETATM   20  C23 UNL     1      41.361  15.329  83.527  1.00  0.00    -0.011 C 
HETATM   21  C24 UNL     1      40.708  16.676  83.252  1.00  0.00     0.021 C 
HETATM   22  C25 UNL     1      42.823  15.259  83.097  1.00  0.00    -0.036 C 
ENDROOT
BRANCH   1  23
HETATM   23  C2  UNL     1      43.919  16.812  81.377  1.00  0.00    -0.034 C 
HETATM   24  C1  UNL     1      43.598  18.050  81.723  1.00  0.00     0.022 C 
BRANCH  23  25
HETATM   25  C3  UNL     1      45.209  16.809  80.628  1.00  0.00     0.202 C 
BRANCH  25  26
HETATM   26  O1  UNL     1      46.222  16.397  81.468  1.00  0.00    -0.396 OA
ATOM     27  H1  UNL     1      46.220  15.448  81.522  1.00  0.00     0.209 HD
ENDBRANCH  25  26
ENDBRANCH  23  25
ENDBRANCH   1  23
BRANCH   7  28
HETATM   28  C10 UNL     1      45.003  14.724  84.258  1.00  0.00     0.193 C 
BRANCH  28  29
HETATM   29  O2  UNL     1      46.090  14.468  83.538  1.00  0.00    -0.399 OA
ATOM     30  H2  UNL     1      46.819  14.043  83.974  1.00  0.00     0.209 HD
ENDBRANCH  28  29
ENDBRANCH   7  28
TORSDOF 5
ENDMDL
