MODEL 1
REMARK VINA RESULT: -8.076143176      0.000      0.000
REMARK  5 active torsions:
REMARK  status: ('A' for Active; 'I' for Inactive)
REMARK    1  A    between atoms: C9_9  and  C10_10 
REMARK    2  A    between atoms: C10_10  and  O1_11 
REMARK    3  A    between atoms: C15_17  and  C16_18 
REMARK    4  A    between atoms: C17_19  and  C18_20 
REMARK    5  A    between atoms: C26_28  and  O2_29 
ROOT
HETATM    1  C1  UNL     1      43.011  18.485  82.190  1.00  0.00     0.019 C 
HETATM    2  C2  UNL     1      43.415  17.373  82.709  1.00  0.00    -0.060 C 
HETATM    3  C3  UNL     1      44.951  17.245  82.792  1.00  0.00     0.039 C 
HETATM    4  C4  UNL     1      45.373  15.997  82.040  1.00  0.00     0.011 C 
HETATM    5  C5  UNL     1      44.529  14.815  82.386  1.00  0.00     0.007 C 
HETATM    6  C6  UNL     1      45.046  13.532  81.877  1.00  0.00    -0.037 C 
HETATM    7  C7  UNL     1      45.790  13.656  80.552  1.00  0.00     0.015 C 
HETATM    8  C8  UNL     1      46.170  13.103  82.856  1.00  0.00     0.015 C 
HETATM    9  C9  UNL     1      44.055  12.407  81.899  1.00  0.00     0.017 C 
HETATM   10  C11 UNL     1      42.862  12.718  82.795  1.00  0.00     0.009 C 
HETATM   11  C12 UNL     1      42.169  13.927  82.233  1.00  0.00     0.015 C 
HETATM   12  C13 UNL     1      43.060  15.105  82.167  1.00  0.00    -0.012 C 
HETATM   13  C14 UNL     1      42.791  15.789  80.831  1.00  0.00     0.021 C 
HETATM   14  C15 UNL     1      42.741  16.198  83.216  1.00  0.00    -0.044 C 
ENDROOT
BRANCH  14  15
HETATM   15  C16 UNL     1      41.423  16.188  83.755  1.00  0.00     0.007 C 
HETATM   16  C17 UNL     1      40.873  16.022  84.920  1.00  0.00     0.005 C 
BRANCH  16  17
HETATM   17  C18 UNL     1      39.397  16.080  85.111  1.00  0.00     0.148 C 
HETATM   18  C19 UNL     1      38.755  14.860  84.562  1.00  0.00     0.036 C 
HETATM   19  C20 UNL     1      37.560  14.334  85.225  1.00  0.00     0.004 C 
HETATM   20  C21 UNL     1      37.462  14.511  86.700  1.00  0.00     0.014 C 
HETATM   21  C22 UNL     1      36.946  15.823  87.157  1.00  0.00     0.013 C 
HETATM   22  C23 UNL     1      36.664  15.826  88.643  1.00  0.00     0.021 C 
HETATM   23  C24 UNL     1      35.882  16.488  86.371  1.00  0.00     0.020 C 
HETATM   24  C26 UNL     1      37.911  16.922  86.707  1.00  0.00     0.169 C 
HETATM   25  C25 UNL     1      36.953  17.339  85.691  1.00  0.00     0.070 C 
HETATM   26  O3  UNL     1      39.095  16.357  86.430  1.00  0.00    -0.345 OA
BRANCH  24  27
HETATM   27  O2  UNL     1      37.993  17.877  87.748  1.00  0.00    -0.365 OA
ATOM     28  H2  UNL     1      37.949  18.740  87.353  1.00  0.00     0.213 HD
ENDBRANCH  24  27
ENDBRANCH  16  17
ENDBRANCH  14  15
BRANCH   9  29
HETATM   29  C10 UNL     1      43.625  11.905  80.553  1.00  0.00     0.169 C 
BRANCH  29  30
HETATM   30  O1  UNL     1      42.531  11.081  80.550  1.00  0.00    -0.400 OA
ATOM     31  H1  UNL     1      42.711  10.159  80.695  1.00  0.00     0.209 HD
ENDBRANCH  29  30
ENDBRANCH   9  29
TORSDOF 5
ENDMDL
MODEL 2
REMARK VINA RESULT: -6.103154597      1.283      2.060
REMARK  5 active torsions:
REMARK  status: ('A' for Active; 'I' for Inactive)
REMARK    1  A    between atoms: C9_9  and  C10_10 
REMARK    2  A    between atoms: C10_10  and  O1_11 
REMARK    3  A    between atoms: C15_17  and  C16_18 
REMARK    4  A    between atoms: C17_19  and  C18_20 
REMARK    5  A    between atoms: C26_28  and  O2_29 
ROOT
HETATM    1  C1  UNL     1      42.983  18.497  82.158  1.00  0.00     0.019 C 
HETATM    2  C2  UNL     1      43.547  17.394  82.526  1.00  0.00    -0.060 C 
HETATM    3  C3  UNL     1      45.073  17.369  82.301  1.00  0.00     0.039 C 
HETATM    4  C4  UNL     1      45.410  16.185  81.414  1.00  0.00     0.011 C 
HETATM    5  C5  UNL     1      44.724  14.934  81.853  1.00  0.00     0.007 C 
HETATM    6  C6  UNL     1      45.204  13.712  81.184  1.00  0.00    -0.037 C 
HETATM    7  C7  UNL     1      45.662  13.943  79.748  1.00  0.00     0.015 C 
HETATM    8  C8  UNL     1      46.524  13.321  81.899  1.00  0.00     0.015 C 
HETATM    9  C9  UNL     1      44.306  12.523  81.338  1.00  0.00     0.017 C 
HETATM   10  C11 UNL     1      43.299  12.713  82.465  1.00  0.00     0.009 C 
HETATM   11  C12 UNL     1      42.437  13.894  82.116  1.00  0.00     0.015 C 
HETATM   12  C13 UNL     1      43.226  15.132  81.941  1.00  0.00    -0.012 C 
HETATM   13  C14 UNL     1      42.657  15.851  80.724  1.00  0.00     0.021 C 
HETATM   14  C15 UNL     1      43.058  16.156  83.091  1.00  0.00    -0.044 C 
ENDROOT
BRANCH  14  15
HETATM   15  C16 UNL     1      41.876  16.033  83.875  1.00  0.00     0.007 C 
HETATM   16  C17 UNL     1      41.575  15.957  85.137  1.00  0.00     0.005 C 
BRANCH  16  17
HETATM   17  C18 UNL     1      40.167  15.829  85.607  1.00  0.00     0.148 C 
HETATM   18  C19 UNL     1      39.542  17.168  85.743  1.00  0.00     0.036 C 
HETATM   19  C20 UNL     1      38.114  17.311  85.458  1.00  0.00     0.004 C 
HETATM   20  C21 UNL     1      37.534  16.427  84.409  1.00  0.00     0.014 C 
HETATM   21  C22 UNL     1      37.149  15.068  84.854  1.00  0.00     0.013 C 
HETATM   22  C23 UNL     1      36.363  14.333  83.791  1.00  0.00     0.021 C 
HETATM   23  C24 UNL     1      36.581  14.891  86.210  1.00  0.00     0.020 C 
HETATM   24  C26 UNL     1      38.401  14.325  85.325  1.00  0.00     0.169 C 
HETATM   25  C25 UNL     1      37.964  14.476  86.707  1.00  0.00     0.070 C 
HETATM   26  O3  UNL     1      39.476  14.939  84.809  1.00  0.00    -0.345 OA
BRANCH  24  27
HETATM   27  O2  UNL     1      38.288  12.978  84.903  1.00  0.00    -0.365 OA
ATOM     28  H2  UNL     1      38.878  12.458  85.435  1.00  0.00     0.213 HD
ENDBRANCH  24  27
ENDBRANCH  16  17
ENDBRANCH  14  15
BRANCH   9  29
HETATM   29  C10 UNL     1      43.647  12.049  80.077  1.00  0.00     0.169 C 
BRANCH  29  30
HETATM   30  O1  UNL     1      42.772  11.006  80.221  1.00  0.00    -0.400 OA
ATOM     31  H1  UNL     1      43.108  10.248  80.685  1.00  0.00     0.209 HD
ENDBRANCH  29  30
ENDBRANCH   9  29
TORSDOF 5
ENDMDL
MODEL 3
REMARK VINA RESULT: -5.398842634      2.041      3.529
REMARK  5 active torsions:
REMARK  status: ('A' for Active; 'I' for Inactive)
REMARK    1  A    between atoms: C9_9  and  C10_10 
REMARK    2  A    between atoms: C10_10  and  O1_11 
REMARK    3  A    between atoms: C15_17  and  C16_18 
REMARK    4  A    between atoms: C17_19  and  C18_20 
REMARK    5  A    between atoms: C26_28  and  O2_29 
ROOT
HETATM    1  C1  UNL     1      41.863  11.861  84.285  1.00  0.00     0.019 C 
HETATM    2  C2  UNL     1      41.802  12.623  83.244  1.00  0.00    -0.060 C 
HETATM    3  C3  UNL     1      42.141  11.902  81.923  1.00  0.00     0.039 C 
HETATM    4  C4  UNL     1      43.299  12.626  81.262  1.00  0.00     0.011 C 
HETATM    5  C5  UNL     1      43.110  14.107  81.250  1.00  0.00     0.007 C 
HETATM    6  C6  UNL     1      44.076  14.835  80.409  1.00  0.00    -0.037 C 
HETATM    7  C7  UNL     1      45.451  14.178  80.351  1.00  0.00     0.015 C 
HETATM    8  C8  UNL     1      43.572  14.689  78.950  1.00  0.00     0.015 C 
HETATM    9  C9  UNL     1      44.132  16.312  80.659  1.00  0.00     0.017 C 
HETATM   10  C11 UNL     1      42.919  16.803  81.438  1.00  0.00     0.009 C 
HETATM   11  C12 UNL     1      42.921  16.113  82.774  1.00  0.00     0.015 C 
HETATM   12  C13 UNL     1      42.865  14.642  82.645  1.00  0.00    -0.012 C 
HETATM   13  C14 UNL     1      43.838  14.070  83.670  1.00  0.00     0.021 C 
HETATM   14  C15 UNL     1      41.502  14.023  83.041  1.00  0.00    -0.044 C 
ENDROOT
BRANCH  14  15
HETATM   15  C16 UNL     1      40.680  14.810  83.898  1.00  0.00     0.007 C 
HETATM   16  C17 UNL     1      40.318  14.794  85.145  1.00  0.00     0.005 C 
BRANCH  16  17
HETATM   17  C18 UNL     1      39.406  15.825  85.715  1.00  0.00     0.148 C 
HETATM   18  C19 UNL     1      39.030  16.816  84.676  1.00  0.00     0.036 C 
HETATM   19  C20 UNL     1      37.694  17.412  84.722  1.00  0.00     0.004 C 
HETATM   20  C21 UNL     1      36.585  16.566  85.244  1.00  0.00     0.014 C 
HETATM   21  C22 UNL     1      36.446  16.527  86.719  1.00  0.00     0.013 C 
HETATM   22  C23 UNL     1      35.167  15.841  87.142  1.00  0.00     0.021 C 
HETATM   23  C24 UNL     1      36.722  17.756  87.498  1.00  0.00     0.020 C 
HETATM   24  C26 UNL     1      37.710  15.909  87.321  1.00  0.00     0.169 C 
HETATM   25  C25 UNL     1      38.125  17.226  87.787  1.00  0.00     0.070 C 
HETATM   26  O3  UNL     1      38.344  15.222  86.360  1.00  0.00    -0.345 OA
BRANCH  24  27
HETATM   27  O2  UNL     1      37.315  15.090  88.406  1.00  0.00    -0.365 OA
ATOM     28  H2  UNL     1      37.889  15.283  89.138  1.00  0.00     0.213 HD
ENDBRANCH  24  27
ENDBRANCH  16  17
ENDBRANCH  14  15
BRANCH   9  29
HETATM   29  C10 UNL     1      45.416  16.813  81.252  1.00  0.00     0.169 C 
BRANCH  29  30
HETATM   30  O1  UNL     1      45.431  18.137  81.599  1.00  0.00    -0.400 OA
ATOM     31  H1  UNL     1      44.651  18.631  81.372  1.00  0.00     0.209 HD
ENDBRANCH  29  30
ENDBRANCH   9  29
TORSDOF 5
ENDMDL
MODEL 4
REMARK VINA RESULT: -5.016748055      2.271      8.620
REMARK  5 active torsions:
REMARK  status: ('A' for Active; 'I' for Inactive)
REMARK    1  A    between atoms: C9_9  and  C10_10 
REMARK    2  A    between atoms: C10_10  and  O1_11 
REMARK    3  A    between atoms: C15_17  and  C16_18 
REMARK    4  A    between atoms: C17_19  and  C18_20 
REMARK    5  A    between atoms: C26_28  and  O2_29 
ROOT
HETATM    1  C1  UNL     1      38.674  12.884  84.029  1.00  0.00     0.019 C 
HETATM    2  C2  UNL     1      38.720  13.587  85.112  1.00  0.00    -0.060 C 
HETATM    3  C3  UNL     1      37.996  12.935  86.309  1.00  0.00     0.039 C 
HETATM    4  C4  UNL     1      36.934  13.894  86.811  1.00  0.00     0.011 C 
HETATM    5  C5  UNL     1      37.448  15.288  86.949  1.00  0.00     0.007 C 
HETATM    6  C6  UNL     1      36.537  16.203  87.661  1.00  0.00    -0.037 C 
HETATM    7  C7  UNL     1      35.063  15.885  87.446  1.00  0.00     0.015 C 
HETATM    8  C8  UNL     1      36.728  15.908  89.172  1.00  0.00     0.015 C 
HETATM    9  C9  UNL     1      36.863  17.657  87.500  1.00  0.00     0.017 C 
HETATM   10  C11 UNL     1      38.274  17.869  86.968  1.00  0.00     0.009 C 
HETATM   11  C12 UNL     1      38.354  17.229  85.610  1.00  0.00     0.015 C 
HETATM   12  C13 UNL     1      38.051  15.783  85.652  1.00  0.00    -0.012 C 
HETATM   13  C14 UNL     1      37.173  15.479  84.444  1.00  0.00     0.021 C 
HETATM   14  C15 UNL     1      39.288  14.872  85.452  1.00  0.00    -0.044 C 
ENDROOT
BRANCH  14  15
HETATM   15  C16 UNL     1      40.405  15.465  84.797  1.00  0.00     0.007 C 
HETATM   16  C17 UNL     1      41.387  15.067  84.045  1.00  0.00     0.005 C 
BRANCH  16  17
HETATM   17  C18 UNL     1      42.413  16.012  83.522  1.00  0.00     0.148 C 
HETATM   18  C19 UNL     1      43.349  16.411  84.603  1.00  0.00     0.036 C 
HETATM   19  C20 UNL     1      44.749  16.670  84.261  1.00  0.00     0.004 C 
HETATM   20  C21 UNL     1      45.341  15.875  83.150  1.00  0.00     0.014 C 
HETATM   21  C22 UNL     1      45.077  16.384  81.784  1.00  0.00     0.013 C 
HETATM   22  C23 UNL     1      45.902  15.656  80.746  1.00  0.00     0.021 C 
HETATM   23  C24 UNL     1      45.037  17.848  81.560  1.00  0.00     0.020 C 
HETATM   24  C26 UNL     1      43.571  16.343  81.519  1.00  0.00     0.169 C 
HETATM   25  C25 UNL     1      43.513  17.793  81.648  1.00  0.00     0.070 C 
HETATM   26  O3  UNL     1      43.011  15.492  82.392  1.00  0.00    -0.345 OA
BRANCH  24  27
HETATM   27  O2  UNL     1      43.380  15.947  80.173  1.00  0.00    -0.365 OA
ATOM     28  H2  UNL     1      42.835  16.602  79.753  1.00  0.00     0.213 HD
ENDBRANCH  24  27
ENDBRANCH  16  17
ENDBRANCH  14  15
BRANCH   9  29
HETATM   29  C10 UNL     1      35.852  18.458  86.734  1.00  0.00     0.169 C 
BRANCH  29  30
HETATM   30  O1  UNL     1      35.364  19.565  87.375  1.00  0.00    -0.400 OA
ATOM     31  H1  UNL     1      34.753  19.394  88.083  1.00  0.00     0.209 HD
ENDBRANCH  29  30
ENDBRANCH   9  29
TORSDOF 5
ENDMDL
MODEL 5
REMARK VINA RESULT: -4.997452691      1.459      1.765
REMARK  5 active torsions:
REMARK  status: ('A' for Active; 'I' for Inactive)
REMARK    1  A    between atoms: C9_9  and  C10_10 
REMARK    2  A    between atoms: C10_10  and  O1_11 
REMARK    3  A    between atoms: C15_17  and  C16_18 
REMARK    4  A    between atoms: C17_19  and  C18_20 
REMARK    5  A    between atoms: C26_28  and  O2_29 
ROOT
HETATM    1  C1  UNL     1      43.236  17.629  85.427  1.00  0.00     0.019 C 
HETATM    2  C2  UNL     1      43.249  16.389  85.062  1.00  0.00    -0.060 C 
HETATM    3  C3  UNL     1      44.658  15.760  85.042  1.00  0.00     0.039 C 
HETATM    4  C4  UNL     1      44.929  15.230  83.647  1.00  0.00     0.011 C 
HETATM    5  C5  UNL     1      43.779  14.448  83.103  1.00  0.00     0.007 C 
HETATM    6  C6  UNL     1      44.080  13.709  81.865  1.00  0.00    -0.037 C 
HETATM    7  C7  UNL     1      45.100  14.405  80.971  1.00  0.00     0.015 C 
HETATM    8  C8  UNL     1      44.836  12.427  82.302  1.00  0.00     0.015 C 
HETATM    9  C9  UNL     1      42.874  13.220  81.122  1.00  0.00     0.017 C 
HETATM   10  C11 UNL     1      41.622  13.244  81.989  1.00  0.00     0.009 C 
HETATM   11  C12 UNL     1      41.367  14.671  82.387  1.00  0.00     0.015 C 
HETATM   12  C13 UNL     1      42.501  15.257  83.133  1.00  0.00    -0.012 C 
HETATM   13  C14 UNL     1      42.692  16.675  82.607  1.00  0.00     0.021 C 
HETATM   14  C15 UNL     1      42.227  15.455  84.645  1.00  0.00    -0.044 C 
ENDROOT
BRANCH  14  15
HETATM   15  C16 UNL     1      40.858  15.522  85.033  1.00  0.00     0.007 C 
HETATM   16  C17 UNL     1      40.116  16.293  85.769  1.00  0.00     0.005 C 
BRANCH  16  17
HETATM   17  C18 UNL     1      38.658  16.043  85.953  1.00  0.00     0.148 C 
HETATM   18  C19 UNL     1      38.407  14.601  86.197  1.00  0.00     0.036 C 
HETATM   19  C20 UNL     1      37.308  14.219  87.086  1.00  0.00     0.004 C 
HETATM   20  C21 UNL     1      36.993  15.135  88.217  1.00  0.00     0.014 C 
HETATM   21  C22 UNL     1      36.119  16.285  87.889  1.00  0.00     0.013 C 
HETATM   22  C23 UNL     1      35.669  17.018  89.133  1.00  0.00     0.021 C 
HETATM   23  C24 UNL     1      35.026  16.099  86.907  1.00  0.00     0.020 C 
HETATM   24  C26 UNL     1      36.831  17.176  86.868  1.00  0.00     0.169 C 
HETATM   25  C25 UNL     1      35.929  16.696  85.829  1.00  0.00     0.070 C 
HETATM   26  O3  UNL     1      38.142  16.898  86.906  1.00  0.00    -0.345 OA
BRANCH  24  27
HETATM   27  O2  UNL     1      36.550  18.523  87.200  1.00  0.00    -0.365 OA
ATOM     28  H2  UNL     1      37.162  19.072  86.724  1.00  0.00     0.213 HD
ENDBRANCH  24  27
ENDBRANCH  16  17
ENDBRANCH  14  15
BRANCH   9  29
HETATM   29  C10 UNL     1      42.639  13.863  79.787  1.00  0.00     0.169 C 
BRANCH  29  30
HETATM   30  O1  UNL     1      41.409  13.639  79.229  1.00  0.00    -0.400 OA
ATOM     31  H1  UNL     1      41.315  12.819  78.757  1.00  0.00     0.209 HD
ENDBRANCH  29  30
ENDBRANCH   9  29
TORSDOF 5
ENDMDL
