MODEL 1
REMARK VINA RESULT: -12.002793855      0.000      0.000
REMARK  5 active torsions:
REMARK  status: ('A' for Active; 'I' for Inactive)
REMARK    1  A    between atoms: C2_2  and  C7_8 
REMARK    2  A    between atoms: C10_11  and  C11_12 
REMARK    3  A    between atoms: C11_12  and  O1_14 
REMARK    4  A    between atoms: C11_12  and  C13_16 
REMARK    5  A    between atoms: C14_17  and  O2_18 
ROOT
HETATM    1  C11 UNL     1      41.117  14.008  84.204  1.00  0.00     0.065 C 
HETATM    2  C12 UNL     1      41.104  12.550  84.240  1.00  0.00     0.047 C 
ENDROOT
BRANCH   1   3
HETATM    3  C10 UNL     1      39.678  14.465  84.124  1.00  0.00     0.021 C 
HETATM    4  C9  UNL     1      38.694  13.481  84.639  1.00  0.00     0.008 C 
HETATM    5  C8  UNL     1      37.503  14.421  84.952  1.00  0.00     0.009 C 
HETATM    6  C7  UNL     1      38.249  15.423  85.821  1.00  0.00     0.016 C 
HETATM    7  C25 UNL     1      39.428  15.728  84.975  1.00  0.00     0.016 C 
BRANCH   6   8
HETATM    8  C2  UNL     1      37.390  16.506  86.279  1.00  0.00    -0.067 C 
HETATM    9  C1  UNL     1      37.586  17.817  85.503  1.00  0.00     0.045 C 
HETATM   10  C3  UNL     1      36.522  16.571  87.222  1.00  0.00    -0.019 C 
HETATM   11  C4  UNL     1      35.708  17.778  87.624  1.00  0.00     0.047 C 
HETATM   12  S1  UNL     1      35.933  15.328  88.335  1.00  0.00    -0.134 SA
HETATM   13  C5  UNL     1      34.301  17.308  87.861  1.00  0.00     0.015 C 
HETATM   14  C6  UNL     1      34.348  16.133  88.804  1.00  0.00     0.079 C 
ENDBRANCH   6   8
ENDBRANCH   1   3
BRANCH   1  15
HETATM   15  O1  UNL     1      41.562  14.567  85.433  1.00  0.00    -0.389 OA
ATOM     16  H1  UNL     1      42.400  14.951  85.202  1.00  0.00     0.210 HD
ENDBRANCH   1  15
BRANCH   1  17
HETATM   17  C13 UNL     1      41.882  14.680  83.127  1.00  0.00     0.057 C 
HETATM   18  C14 UNL     1      42.985  15.544  83.566  1.00  0.00     0.126 C 
HETATM   19  C15 UNL     1      43.693  15.849  82.226  1.00  0.00     0.038 C 
HETATM   20  C16 UNL     1      43.848  14.410  81.784  1.00  0.00     0.004 C 
HETATM   21  C17 UNL     1      44.355  14.375  80.413  1.00  0.00    -0.043 C 
HETATM   22  C23 UNL     1      42.504  13.776  82.082  1.00  0.00    -0.031 C 
HETATM   23  C18 UNL     1      45.000  13.099  79.961  1.00  0.00     0.015 C 
HETATM   24  C19 UNL     1      45.471  15.437  80.335  1.00  0.00     0.015 C 
HETATM   25  C20 UNL     1      43.291  14.873  79.460  1.00  0.00     0.009 C 
HETATM   26  C21 UNL     1      42.163  13.919  79.555  1.00  0.00     0.002 C 
HETATM   27  C22 UNL     1      41.631  13.622  80.892  1.00  0.00     0.010 C 
HETATM   28  C24 UNL     1      42.890  12.405  82.643  1.00  0.00     0.016 C 
BRANCH  18  29
HETATM   29  O2  UNL     1      42.704  16.823  84.004  1.00  0.00    -0.395 OA
ATOM     30  H2  UNL     1      43.368  17.498  83.919  1.00  0.00     0.210 HD
ENDBRANCH  18  29
ENDBRANCH   1  17
TORSDOF 5
ENDMDL
MODEL 2
REMARK VINA RESULT: -9.734949396      1.038      1.258
REMARK  5 active torsions:
REMARK  status: ('A' for Active; 'I' for Inactive)
REMARK    1  A    between atoms: C2_2  and  C7_8 
REMARK    2  A    between atoms: C10_11  and  C11_12 
REMARK    3  A    between atoms: C11_12  and  O1_14 
REMARK    4  A    between atoms: C11_12  and  C13_16 
REMARK    5  A    between atoms: C14_17  and  O2_18 
ROOT
HETATM    1  C11 UNL     1      42.093  15.445  84.377  1.00  0.00     0.065 C 
HETATM    2  C12 UNL     1      42.599  14.459  85.324  1.00  0.00     0.047 C 
ENDROOT
BRANCH   1   3
HETATM    3  C10 UNL     1      40.590  15.287  84.330  1.00  0.00     0.021 C 
HETATM    4  C9  UNL     1      40.074  14.117  85.082  1.00  0.00     0.008 C 
HETATM    5  C8  UNL     1      38.610  14.564  85.318  1.00  0.00     0.009 C 
HETATM    6  C7  UNL     1      38.903  15.922  85.939  1.00  0.00     0.016 C 
HETATM    7  C25 UNL     1      39.865  16.492  84.965  1.00  0.00     0.016 C 
BRANCH   6   8
HETATM    8  C2  UNL     1      37.688  16.655  86.267  1.00  0.00    -0.067 C 
HETATM    9  C1  UNL     1      37.429  17.858  85.348  1.00  0.00     0.045 C 
HETATM   10  C3  UNL     1      36.813  16.494  87.191  1.00  0.00    -0.019 C 
HETATM   11  C4  UNL     1      35.597  17.351  87.450  1.00  0.00     0.047 C 
HETATM   12  S1  UNL     1      36.666  15.243  88.435  1.00  0.00    -0.134 SA
HETATM   13  C5  UNL     1      34.449  16.425  87.730  1.00  0.00     0.015 C 
HETATM   14  C6  UNL     1      34.876  15.453  88.801  1.00  0.00     0.079 C 
ENDBRANCH   6   8
ENDBRANCH   1   3
BRANCH   1  15
HETATM   15  O1  UNL     1      42.259  16.774  84.851  1.00  0.00    -0.389 OA
ATOM     16  H1  UNL     1      43.110  16.746  85.274  1.00  0.00     0.210 HD
ENDBRANCH   1  15
BRANCH   1  17
HETATM   17  C13 UNL     1      42.610  15.419  82.988  1.00  0.00     0.057 C 
HETATM   18  C14 UNL     1      43.991  15.883  82.807  1.00  0.00     0.126 C 
HETATM   19  C15 UNL     1      44.265  15.480  81.340  1.00  0.00     0.038 C 
HETATM   20  C16 UNL     1      43.853  14.030  81.482  1.00  0.00     0.004 C 
HETATM   21  C17 UNL     1      43.841  13.397  80.165  1.00  0.00    -0.043 C 
HETATM   22  C23 UNL     1      42.566  14.079  82.281  1.00  0.00    -0.031 C 
HETATM   23  C18 UNL     1      43.913  11.900  80.130  1.00  0.00     0.015 C 
HETATM   24  C19 UNL     1      45.118  13.875  79.441  1.00  0.00     0.015 C 
HETATM   25  C20 UNL     1      42.705  13.957  79.338  1.00  0.00     0.009 C 
HETATM   26  C21 UNL     1      41.455  13.583  80.036  1.00  0.00     0.002 C 
HETATM   27  C22 UNL     1      41.340  13.925  81.461  1.00  0.00     0.010 C 
HETATM   28  C24 UNL     1      42.716  12.899  83.245  1.00  0.00     0.016 C 
BRANCH  18  29
HETATM   29  O2  UNL     1      44.243  17.239  82.752  1.00  0.00    -0.395 OA
ATOM     30  H2  UNL     1      44.821  17.575  82.077  1.00  0.00     0.210 HD
ENDBRANCH  18  29
ENDBRANCH   1  17
TORSDOF 5
ENDMDL
MODEL 3
REMARK VINA RESULT: -9.418795450      1.266      2.339
REMARK  5 active torsions:
REMARK  status: ('A' for Active; 'I' for Inactive)
REMARK    1  A    between atoms: C2_2  and  C7_8 
REMARK    2  A    between atoms: C10_11  and  C11_12 
REMARK    3  A    between atoms: C11_12  and  O1_14 
REMARK    4  A    between atoms: C11_12  and  C13_16 
REMARK    5  A    between atoms: C14_17  and  O2_18 
ROOT
HETATM    1  C11 UNL     1      41.503  13.900  84.592  1.00  0.00     0.065 C 
HETATM    2  C12 UNL     1      41.182  12.569  85.092  1.00  0.00     0.047 C 
ENDROOT
BRANCH   1   3
HETATM    3  C10 UNL     1      40.196  14.567  84.228  1.00  0.00     0.021 C 
HETATM    4  C9  UNL     1      39.031  13.650  84.190  1.00  0.00     0.008 C 
HETATM    5  C8  UNL     1      37.875  14.663  84.379  1.00  0.00     0.009 C 
HETATM    6  C7  UNL     1      38.393  15.340  85.639  1.00  0.00     0.016 C 
HETATM    7  C25 UNL     1      39.794  15.644  85.257  1.00  0.00     0.016 C 
BRANCH   6   8
HETATM    8  C2  UNL     1      37.519  16.414  86.090  1.00  0.00    -0.067 C 
HETATM    9  C1  UNL     1      37.641  17.698  85.257  1.00  0.00     0.045 C 
HETATM   10  C3  UNL     1      36.689  16.490  87.066  1.00  0.00    -0.019 C 
HETATM   11  C4  UNL     1      35.853  17.687  87.454  1.00  0.00     0.047 C 
HETATM   12  S1  UNL     1      36.185  15.275  88.250  1.00  0.00    -0.134 SA
HETATM   13  C5  UNL     1      34.473  17.184  87.767  1.00  0.00     0.015 C 
HETATM   14  C6  UNL     1      34.595  16.050  88.753  1.00  0.00     0.079 C 
ENDBRANCH   6   8
ENDBRANCH   1   3
BRANCH   1  15
HETATM   15  O1  UNL     1      42.019  14.743  85.613  1.00  0.00    -0.389 OA
ATOM     16  H1  UNL     1      42.866  14.358  85.801  1.00  0.00     0.210 HD
ENDBRANCH   1  15
BRANCH   1  17
HETATM   17  C13 UNL     1      42.425  14.016  83.436  1.00  0.00     0.057 C 
HETATM   18  C14 UNL     1      41.802  13.957  82.108  1.00  0.00     0.126 C 
HETATM   19  C15 UNL     1      42.980  14.364  81.194  1.00  0.00     0.038 C 
HETATM   20  C16 UNL     1      43.332  15.641  81.926  1.00  0.00     0.004 C 
HETATM   21  C17 UNL     1      44.569  16.192  81.376  1.00  0.00    -0.043 C 
HETATM   22  C23 UNL     1      43.290  15.260  83.392  1.00  0.00    -0.031 C 
HETATM   23  C18 UNL     1      44.837  17.645  81.629  1.00  0.00     0.015 C 
HETATM   24  C19 UNL     1      44.455  16.068  79.842  1.00  0.00     0.015 C 
HETATM   25  C20 UNL     1      45.734  15.300  81.742  1.00  0.00     0.009 C 
HETATM   26  C21 UNL     1      45.837  15.330  83.218  1.00  0.00     0.002 C 
HETATM   27  C22 UNL     1      44.626  15.027  83.994  1.00  0.00     0.010 C 
HETATM   28  C24 UNL     1      42.616  16.471  84.042  1.00  0.00     0.016 C 
BRANCH  18  29
HETATM   29  O2  UNL     1      41.474  12.728  81.573  1.00  0.00    -0.395 OA
ATOM     30  H2  UNL     1      42.160  12.187  81.200  1.00  0.00     0.210 HD
ENDBRANCH  18  29
ENDBRANCH   1  17
TORSDOF 5
ENDMDL
MODEL 4
REMARK VINA RESULT: -8.962762559      1.140      1.533
REMARK  5 active torsions:
REMARK  status: ('A' for Active; 'I' for Inactive)
REMARK    1  A    between atoms: C2_2  and  C7_8 
REMARK    2  A    between atoms: C10_11  and  C11_12 
REMARK    3  A    between atoms: C11_12  and  O1_14 
REMARK    4  A    between atoms: C11_12  and  C13_16 
REMARK    5  A    between atoms: C14_17  and  O2_18 
ROOT
HETATM    1  C11 UNL     1      41.304  14.928  84.626  1.00  0.00     0.065 C 
HETATM    2  C12 UNL     1      41.379  13.545  85.078  1.00  0.00     0.047 C 
ENDROOT
BRANCH   1   3
HETATM    3  C10 UNL     1      39.840  15.303  84.576  1.00  0.00     0.021 C 
HETATM    4  C9  UNL     1      38.936  14.188  84.200  1.00  0.00     0.008 C 
HETATM    5  C8  UNL     1      37.601  14.705  84.793  1.00  0.00     0.009 C 
HETATM    6  C7  UNL     1      38.090  14.973  86.209  1.00  0.00     0.016 C 
HETATM    7  C25 UNL     1      39.318  15.764  85.952  1.00  0.00     0.016 C 
BRANCH   6   8
HETATM    8  C2  UNL     1      37.043  15.521  87.061  1.00  0.00    -0.067 C 
HETATM    9  C1  UNL     1      36.601  14.569  88.181  1.00  0.00     0.045 C 
HETATM   10  C3  UNL     1      36.411  16.637  87.031  1.00  0.00    -0.019 C 
HETATM   11  C4  UNL     1      35.309  17.081  87.963  1.00  0.00     0.047 C 
HETATM   12  S1  UNL     1      36.600  18.042  85.972  1.00  0.00    -0.134 SA
HETATM   13  C5  UNL     1      35.582  18.511  88.329  1.00  0.00     0.015 C 
HETATM   14  C6  UNL     1      35.796  19.292  87.056  1.00  0.00     0.079 C 
ENDBRANCH   6   8
ENDBRANCH   1   3
BRANCH   1  15
HETATM   15  O1  UNL     1      41.833  15.833  85.585  1.00  0.00    -0.389 OA
ATOM     16  H1  UNL     1      42.240  16.502  85.048  1.00  0.00     0.210 HD
ENDBRANCH   1  15
BRANCH   1  17
HETATM   17  C13 UNL     1      41.921  15.279  83.323  1.00  0.00     0.057 C 
HETATM   18  C14 UNL     1      43.047  16.219  83.378  1.00  0.00     0.126 C 
HETATM   19  C15 UNL     1      43.584  16.145  81.930  1.00  0.00     0.038 C 
HETATM   20  C16 UNL     1      43.720  14.639  81.876  1.00  0.00     0.004 C 
HETATM   21  C17 UNL     1      44.062  14.231  80.515  1.00  0.00    -0.043 C 
HETATM   22  C23 UNL     1      42.437  14.121  82.493  1.00  0.00    -0.031 C 
HETATM   23  C18 UNL     1      44.680  12.875  80.347  1.00  0.00     0.015 C 
HETATM   24  C19 UNL     1      45.136  15.223  80.021  1.00  0.00     0.015 C 
HETATM   25  C20 UNL     1      42.882  14.464  79.598  1.00  0.00     0.009 C 
HETATM   26  C21 UNL     1      41.796  13.581  80.080  1.00  0.00     0.002 C 
HETATM   27  C22 UNL     1      41.433  13.659  81.502  1.00  0.00     0.010 C 
HETATM   28  C24 UNL     1      42.918  12.948  83.351  1.00  0.00     0.016 C 
BRANCH  18  29
HETATM   29  O2  UNL     1      42.790  17.571  83.487  1.00  0.00    -0.395 OA
ATOM     30  H2  UNL     1      42.959  18.137  82.743  1.00  0.00     0.210 HD
ENDBRANCH  18  29
ENDBRANCH   1  17
TORSDOF 5
ENDMDL
MODEL 5
REMARK VINA RESULT: -8.943226514      1.305      1.888
REMARK  5 active torsions:
REMARK  status: ('A' for Active; 'I' for Inactive)
REMARK    1  A    between atoms: C2_2  and  C7_8 
REMARK    2  A    between atoms: C10_11  and  C11_12 
REMARK    3  A    between atoms: C11_12  and  O1_14 
REMARK    4  A    between atoms: C11_12  and  C13_16 
REMARK    5  A    between atoms: C14_17  and  O2_18 
ROOT
HETATM    1  C11 UNL     1      40.319  14.147  84.651  1.00  0.00     0.065 C 
HETATM    2  C12 UNL     1      39.180  13.514  83.998  1.00  0.00     0.047 C 
ENDROOT
BRANCH   1   3
HETATM    3  C10 UNL     1      39.780  15.291  85.478  1.00  0.00     0.021 C 
HETATM    4  C9  UNL     1      39.209  16.406  84.682  1.00  0.00     0.008 C 
HETATM    5  C8  UNL     1      38.283  17.055  85.741  1.00  0.00     0.009 C 
HETATM    6  C7  UNL     1      37.514  15.804  86.141  1.00  0.00     0.016 C 
HETATM    7  C25 UNL     1      38.617  14.845  86.388  1.00  0.00     0.016 C 
BRANCH   6   8
HETATM    8  C2  UNL     1      36.538  16.068  87.190  1.00  0.00    -0.067 C 
HETATM    9  C1  UNL     1      36.350  14.895  88.163  1.00  0.00     0.045 C 
HETATM   10  C3  UNL     1      35.794  17.084  87.432  1.00  0.00    -0.019 C 
HETATM   11  C4  UNL     1      34.785  17.226  88.546  1.00  0.00     0.047 C 
HETATM   12  S1  UNL     1      35.693  18.657  86.627  1.00  0.00    -0.134 SA
HETATM   13  C5  UNL     1      34.953  18.599  89.129  1.00  0.00     0.015 C 
HETATM   14  C6  UNL     1      34.913  19.599  88.001  1.00  0.00     0.079 C 
ENDBRANCH   6   8
ENDBRANCH   1   3
BRANCH   1  15
HETATM   15  O1  UNL     1      40.914  13.300  85.625  1.00  0.00    -0.389 OA
ATOM     16  H1  UNL     1      40.240  13.233  86.290  1.00  0.00     0.210 HD
ENDBRANCH   1  15
BRANCH   1  17
HETATM   17  C13 UNL     1      41.422  14.661  83.803  1.00  0.00     0.057 C 
HETATM   18  C14 UNL     1      42.604  15.158  84.517  1.00  0.00     0.126 C 
HETATM   19  C15 UNL     1      43.608  15.355  83.359  1.00  0.00     0.038 C 
HETATM   20  C16 UNL     1      43.472  13.964  82.778  1.00  0.00     0.004 C 
HETATM   21  C17 UNL     1      44.205  13.890  81.515  1.00  0.00    -0.043 C 
HETATM   22  C23 UNL     1      41.980  13.700  82.773  1.00  0.00    -0.031 C 
HETATM   23  C18 UNL     1      44.578  12.523  81.025  1.00  0.00     0.015 C 
HETATM   24  C19 UNL     1      45.550  14.611  81.751  1.00  0.00     0.015 C 
HETATM   25  C20 UNL     1      43.506  14.727  80.468  1.00  0.00     0.009 C 
HETATM   26  C21 UNL     1      42.175  14.113  80.260  1.00  0.00     0.002 C 
HETATM   27  C22 UNL     1      41.340  13.875  81.446  1.00  0.00     0.010 C 
HETATM   28  C24 UNL     1      41.889  12.238  83.220  1.00  0.00     0.016 C 
BRANCH  18  29
HETATM   29  O2  UNL     1      42.580  16.430  85.055  1.00  0.00    -0.395 OA
ATOM     30  H2  UNL     1      42.494  16.533  85.995  1.00  0.00     0.210 HD
ENDBRANCH  18  29
ENDBRANCH   1  17
TORSDOF 5
ENDMDL
