MODEL 1
REMARK VINA RESULT: -6.847617906      0.000      0.000
REMARK  14 active torsions:
REMARK  status: ('A' for Active; 'I' for Inactive)
REMARK    1  A    between atoms: C4_4  and  C5_5 
REMARK    2  A    between atoms: C5_5  and  C6_6 
REMARK    3  A    between atoms: C6_6  and  C7_7 
REMARK    4  A    between atoms: C7_7  and  C8_8 
REMARK    5  A    between atoms: C8_8  and  C9_9 
REMARK    6  A    between atoms: C9_9  and  C10_10 
REMARK    7  A    between atoms: C10_10  and  C11_11 
REMARK    8  A    between atoms: C11_11  and  C12_12 
REMARK    9  A    between atoms: C12_12  and  C13_13 
REMARK   10  A    between atoms: C13_13  and  C14_14 
REMARK   11  A    between atoms: C14_14  and  C15_15 
REMARK   12  A    between atoms: C15_15  and  C16_16 
REMARK   13  A    between atoms: C16_16  and  C17_17 
REMARK   14  A    between atoms: C17_17  and  C18_18 
ROOT
HETATM    1  C11 UNL     1       2.375   8.574   0.405  1.00  0.00     0.000 C 
ENDROOT
BRANCH   1   2
HETATM    2  C10 UNL     1       2.011   7.160   0.787  1.00  0.00     0.000 C 
BRANCH   2   3
HETATM    3  C9  UNL     1       3.022   6.158   0.335  1.00  0.00     0.000 C 
BRANCH   3   4
HETATM    4  C8  UNL     1       2.677   5.601  -1.021  1.00  0.00     0.000 C 
BRANCH   4   5
HETATM    5  C7  UNL     1       3.659   6.004  -2.075  1.00  0.00     0.000 C 
BRANCH   5   6
HETATM    6  C6  UNL     1       5.065   6.129  -1.550  1.00  0.00     0.005 C 
BRANCH   6   7
HETATM    7  C5  UNL     1       5.796   7.298  -2.168  1.00  0.00     0.038 C 
BRANCH   7   8
HETATM    8  C4  UNL     1       6.687   7.866  -1.146  1.00  0.00    -0.058 A 
HETATM    9  C3  UNL     1       6.960   7.172   0.004  1.00  0.00     0.007 A 
HETATM   10  C2  UNL     1       7.799   7.682   0.991  1.00  0.00     0.001 A 
HETATM   11  C1  UNL     1       8.366   8.914   0.802  1.00  0.00     0.000 A 
HETATM   12  C23 UNL     1       8.097   9.624  -0.355  1.00  0.00     0.001 A 
HETATM   13  C22 UNL     1       7.257   9.099  -1.330  1.00  0.00     0.007 A 
ENDBRANCH   7   8
ENDBRANCH   6   7
ENDBRANCH   5   6
ENDBRANCH   4   5
ENDBRANCH   3   4
ENDBRANCH   2   3
ENDBRANCH   1   2
BRANCH   1  14
HETATM   14  C12 UNL     1       3.788   8.844   0.805  1.00  0.00     0.000 C 
BRANCH  14  15
HETATM   15  C13 UNL     1       4.257  10.253   0.513  1.00  0.00     0.000 C 
BRANCH  15  16
HETATM   16  C14 UNL     1       3.035  11.036   0.087  1.00  0.00     0.000 C 
BRANCH  16  17
HETATM   17  C15 UNL     1       3.044  12.449   0.625  1.00  0.00     0.000 C 
BRANCH  17  18
HETATM   18  C16 UNL     1       3.320  12.333   2.110  1.00  0.00     0.002 C 
BRANCH  18  19
HETATM   19  C17 UNL     1       2.183  12.873   2.940  1.00  0.00     0.033 C 
BRANCH  19  20
HETATM   20  C18 UNL     1       1.775  11.868   3.966  1.00  0.00     0.186 C 
HETATM   21  C19 UNL     1       2.351  10.513   3.770  1.00  0.00     0.034 C 
HETATM   22  C20 UNL     1       1.127   9.596   3.752  1.00  0.00     0.029 C 
HETATM   23  C21 UNL     1       0.075  10.566   3.203  1.00  0.00     0.233 C 
HETATM   24  N1  UNL     1       0.329  11.734   4.014  1.00  0.00    -0.071 N 
ATOM     25  H12 UNL     1      -0.061  11.689   4.956  1.00  0.00     0.277 HD
ATOM     26  H11 UNL     1      -0.183  12.569   3.728  1.00  0.00     0.277 HD
ENDBRANCH  19  20
ENDBRANCH  18  19
ENDBRANCH  17  18
ENDBRANCH  16  17
ENDBRANCH  15  16
ENDBRANCH  14  15
ENDBRANCH   1  14
TORSDOF 14
ENDMDL
MODEL 2
REMARK VINA RESULT: -6.809612388      0.785      1.256
REMARK  14 active torsions:
REMARK  status: ('A' for Active; 'I' for Inactive)
REMARK    1  A    between atoms: C4_4  and  C5_5 
REMARK    2  A    between atoms: C5_5  and  C6_6 
REMARK    3  A    between atoms: C6_6  and  C7_7 
REMARK    4  A    between atoms: C7_7  and  C8_8 
REMARK    5  A    between atoms: C8_8  and  C9_9 
REMARK    6  A    between atoms: C9_9  and  C10_10 
REMARK    7  A    between atoms: C10_10  and  C11_11 
REMARK    8  A    between atoms: C11_11  and  C12_12 
REMARK    9  A    between atoms: C12_12  and  C13_13 
REMARK   10  A    between atoms: C13_13  and  C14_14 
REMARK   11  A    between atoms: C14_14  and  C15_15 
REMARK   12  A    between atoms: C15_15  and  C16_16 
REMARK   13  A    between atoms: C16_16  and  C17_17 
REMARK   14  A    between atoms: C17_17  and  C18_18 
ROOT
HETATM    1  C11 UNL     1       1.363   8.067   0.521  1.00  0.00     0.000 C 
ENDROOT
BRANCH   1   2
HETATM    2  C10 UNL     1       1.843   6.667   0.816  1.00  0.00     0.000 C 
BRANCH   2   3
HETATM    3  C9  UNL     1       1.807   5.777  -0.384  1.00  0.00     0.000 C 
BRANCH   3   4
HETATM    4  C8  UNL     1       3.191   5.345  -0.792  1.00  0.00     0.000 C 
BRANCH   4   5
HETATM    5  C7  UNL     1       3.759   6.195  -1.885  1.00  0.00     0.000 C 
BRANCH   5   6
HETATM    6  C6  UNL     1       5.265   6.222  -1.884  1.00  0.00     0.005 C 
BRANCH   6   7
HETATM    7  C5  UNL     1       5.805   7.596  -2.205  1.00  0.00     0.038 C 
BRANCH   7   8
HETATM    8  C4  UNL     1       6.704   7.995  -1.113  1.00  0.00    -0.058 A 
HETATM    9  C3  UNL     1       6.937   7.151  -0.058  1.00  0.00     0.007 A 
HETATM   10  C2  UNL     1       7.784   7.499   0.991  1.00  0.00     0.001 A 
HETATM   11  C1  UNL     1       8.399   8.721   0.964  1.00  0.00     0.000 A 
HETATM   12  C23 UNL     1       8.171   9.581  -0.095  1.00  0.00     0.001 A 
HETATM   13  C22 UNL     1       7.323   9.218  -1.135  1.00  0.00     0.007 A 
ENDBRANCH   7   8
ENDBRANCH   6   7
ENDBRANCH   5   6
ENDBRANCH   4   5
ENDBRANCH   3   4
ENDBRANCH   2   3
ENDBRANCH   1   2
BRANCH   1  14
HETATM   14  C12 UNL     1       2.541   8.970   0.365  1.00  0.00     0.000 C 
BRANCH  14  15
HETATM   15  C13 UNL     1       3.775   8.517   1.115  1.00  0.00     0.000 C 
BRANCH  15  16
HETATM   16  C14 UNL     1       4.591   9.759   1.395  1.00  0.00     0.000 C 
BRANCH  16  17
HETATM   17  C15 UNL     1       4.222  10.904   0.480  1.00  0.00     0.000 C 
BRANCH  17  18
HETATM   18  C16 UNL     1       4.034  12.114   1.372  1.00  0.00     0.002 C 
BRANCH  18  19
HETATM   19  C17 UNL     1       2.579  12.471   1.541  1.00  0.00     0.033 C 
BRANCH  19  20
HETATM   20  C18 UNL     1       2.224  12.500   2.991  1.00  0.00     0.186 C 
HETATM   21  C19 UNL     1       3.329  12.123   3.909  1.00  0.00     0.034 C 
HETATM   22  C20 UNL     1       2.733  10.995   4.752  1.00  0.00     0.029 C 
HETATM   23  C21 UNL     1       1.726  10.417   3.753  1.00  0.00     0.233 C 
HETATM   24  N1  UNL     1       1.098  11.624   3.266  1.00  0.00    -0.071 N 
ATOM     25  H12 UNL     1       0.397  12.020   3.894  1.00  0.00     0.277 HD
ATOM     26  H11 UNL     1       0.466  11.486   2.477  1.00  0.00     0.277 HD
ENDBRANCH  19  20
ENDBRANCH  18  19
ENDBRANCH  17  18
ENDBRANCH  16  17
ENDBRANCH  15  16
ENDBRANCH  14  15
ENDBRANCH   1  14
TORSDOF 14
ENDMDL
MODEL 3
REMARK VINA RESULT: -6.778482217      0.903      1.908
REMARK  14 active torsions:
REMARK  status: ('A' for Active; 'I' for Inactive)
REMARK    1  A    between atoms: C4_4  and  C5_5 
REMARK    2  A    between atoms: C5_5  and  C6_6 
REMARK    3  A    between atoms: C6_6  and  C7_7 
REMARK    4  A    between atoms: C7_7  and  C8_8 
REMARK    5  A    between atoms: C8_8  and  C9_9 
REMARK    6  A    between atoms: C9_9  and  C10_10 
REMARK    7  A    between atoms: C10_10  and  C11_11 
REMARK    8  A    between atoms: C11_11  and  C12_12 
REMARK    9  A    between atoms: C12_12  and  C13_13 
REMARK   10  A    between atoms: C13_13  and  C14_14 
REMARK   11  A    between atoms: C14_14  and  C15_15 
REMARK   12  A    between atoms: C15_15  and  C16_16 
REMARK   13  A    between atoms: C16_16  and  C17_17 
REMARK   14  A    between atoms: C17_17  and  C18_18 
ROOT
HETATM    1  C11 UNL     1       3.445   8.959   1.304  1.00  0.00     0.000 C 
ENDROOT
BRANCH   1   2
HETATM    2  C10 UNL     1       2.293   8.935   0.331  1.00  0.00     0.000 C 
BRANCH   2   3
HETATM    3  C9  UNL     1       1.266   7.905   0.674  1.00  0.00     0.000 C 
BRANCH   3   4
HETATM    4  C8  UNL     1       1.881   6.537   0.806  1.00  0.00     0.000 C 
BRANCH   4   5
HETATM    5  C7  UNL     1       1.820   5.753  -0.467  1.00  0.00     0.000 C 
BRANCH   5   6
HETATM    6  C6  UNL     1       3.173   5.282  -0.932  1.00  0.00     0.005 C 
BRANCH   6   7
HETATM    7  C5  UNL     1       3.796   6.241  -1.919  1.00  0.00     0.038 C 
BRANCH   7   8
HETATM    8  C4  UNL     1       5.013   6.793  -1.306  1.00  0.00    -0.058 A 
HETATM    9  C3  UNL     1       5.684   7.830  -1.901  1.00  0.00     0.007 A 
HETATM   10  C2  UNL     1       6.838   8.375  -1.345  1.00  0.00     0.001 A 
HETATM   11  C1  UNL     1       7.313   7.857  -0.171  1.00  0.00     0.000 A 
HETATM   12  C23 UNL     1       6.645   6.810   0.438  1.00  0.00     0.001 A 
HETATM   13  C22 UNL     1       5.493   6.278  -0.130  1.00  0.00     0.007 A 
ENDBRANCH   7   8
ENDBRANCH   6   7
ENDBRANCH   5   6
ENDBRANCH   4   5
ENDBRANCH   3   4
ENDBRANCH   2   3
ENDBRANCH   1   2
BRANCH   1  14
HETATM   14  C12 UNL     1       4.435   9.989   0.872  1.00  0.00     0.000 C 
BRANCH  14  15
HETATM   15  C13 UNL     1       3.862  11.063  -0.027  1.00  0.00     0.000 C 
BRANCH  15  16
HETATM   16  C14 UNL     1       3.714  12.305   0.823  1.00  0.00     0.000 C 
BRANCH  16  17
HETATM   17  C15 UNL     1       2.267  12.644   1.094  1.00  0.00     0.000 C 
BRANCH  17  18
HETATM   18  C16 UNL     1       2.189  13.025   2.559  1.00  0.00     0.002 C 
BRANCH  18  19
HETATM   19  C17 UNL     1       2.806  11.976   3.449  1.00  0.00     0.033 C 
BRANCH  19  20
HETATM   20  C18 UNL     1       1.767  11.395   4.350  1.00  0.00     0.186 C 
HETATM   21  C19 UNL     1       1.819   9.916   4.485  1.00  0.00     0.034 C 
HETATM   22  C20 UNL     1       0.404   9.467   4.119  1.00  0.00     0.029 C 
HETATM   23  C21 UNL     1       0.007  10.591   3.157  1.00  0.00     0.233 C 
HETATM   24  N1  UNL     1       0.433  11.754   3.903  1.00  0.00    -0.071 N 
ATOM     25  H12 UNL     1      -0.203  12.034   4.650  1.00  0.00     0.277 HD
ATOM     26  H11 UNL     1       0.381  12.631   3.385  1.00  0.00     0.277 HD
ENDBRANCH  19  20
ENDBRANCH  18  19
ENDBRANCH  17  18
ENDBRANCH  16  17
ENDBRANCH  15  16
ENDBRANCH  14  15
ENDBRANCH   1  14
TORSDOF 14
ENDMDL
MODEL 4
REMARK VINA RESULT: -6.706959059      1.868      6.517
REMARK  14 active torsions:
REMARK  status: ('A' for Active; 'I' for Inactive)
REMARK    1  A    between atoms: C4_4  and  C5_5 
REMARK    2  A    between atoms: C5_5  and  C6_6 
REMARK    3  A    between atoms: C6_6  and  C7_7 
REMARK    4  A    between atoms: C7_7  and  C8_8 
REMARK    5  A    between atoms: C8_8  and  C9_9 
REMARK    6  A    between atoms: C9_9  and  C10_10 
REMARK    7  A    between atoms: C10_10  and  C11_11 
REMARK    8  A    between atoms: C11_11  and  C12_12 
REMARK    9  A    between atoms: C12_12  and  C13_13 
REMARK   10  A    between atoms: C13_13  and  C14_14 
REMARK   11  A    between atoms: C14_14  and  C15_15 
REMARK   12  A    between atoms: C15_15  and  C16_16 
REMARK   13  A    between atoms: C16_16  and  C17_17 
REMARK   14  A    between atoms: C17_17  and  C18_18 
ROOT
HETATM    1  C11 UNL     1       1.097   8.730   0.435  1.00  0.00     0.000 C 
ENDROOT
BRANCH   1   2
HETATM    2  C10 UNL     1       1.072   8.535   1.931  1.00  0.00     0.000 C 
BRANCH   2   3
HETATM    3  C9  UNL     1      -0.063   9.250   2.590  1.00  0.00     0.000 C 
BRANCH   3   4
HETATM    4  C8  UNL     1       0.195   9.456   4.060  1.00  0.00     0.000 C 
BRANCH   4   5
HETATM    5  C7  UNL     1       0.323  10.902   4.424  1.00  0.00     0.000 C 
BRANCH   5   6
HETATM    6  C6  UNL     1       1.729  11.422   4.276  1.00  0.00     0.005 C 
BRANCH   6   7
HETATM    7  C5  UNL     1       1.813  12.540   3.264  1.00  0.00     0.038 C 
BRANCH   7   8
HETATM    8  C4  UNL     1       2.591  12.053   2.116  1.00  0.00    -0.058 A 
HETATM    9  C3  UNL     1       3.655  11.211   2.301  1.00  0.00     0.007 A 
HETATM   10  C2  UNL     1       4.411  10.732   1.235  1.00  0.00     0.001 A 
HETATM   11  C1  UNL     1       4.076  11.117  -0.035  1.00  0.00     0.000 A 
HETATM   12  C23 UNL     1       3.003  11.967  -0.235  1.00  0.00     0.001 A 
HETATM   13  C22 UNL     1       2.260  12.436   0.842  1.00  0.00     0.007 A 
ENDBRANCH   7   8
ENDBRANCH   6   7
ENDBRANCH   5   6
ENDBRANCH   4   5
ENDBRANCH   3   4
ENDBRANCH   2   3
ENDBRANCH   1   2
BRANCH   1  14
HETATM   14  C12 UNL     1       2.231   7.952  -0.145  1.00  0.00     0.000 C 
BRANCH  14  15
HETATM   15  C13 UNL     1       2.485   6.624   0.534  1.00  0.00     0.000 C 
BRANCH  15  16
HETATM   16  C14 UNL     1       2.616   5.594  -0.566  1.00  0.00     0.000 C 
BRANCH  16  17
HETATM   17  C15 UNL     1       3.466   6.088  -1.713  1.00  0.00     0.000 C 
BRANCH  17  18
HETATM   18  C16 UNL     1       4.903   5.799  -1.330  1.00  0.00     0.002 C 
BRANCH  18  19
HETATM   19  C17 UNL     1       5.854   6.833  -1.878  1.00  0.00     0.033 C 
BRANCH  19  20
HETATM   20  C18 UNL     1       5.928   8.002  -0.953  1.00  0.00     0.186 C 
HETATM   21  C19 UNL     1       7.017   8.966  -1.257  1.00  0.00     0.034 C 
HETATM   22  C20 UNL     1       7.786   9.074   0.060  1.00  0.00     0.029 C 
HETATM   23  C21 UNL     1       7.516   7.683   0.642  1.00  0.00     0.233 C 
HETATM   24  N1  UNL     1       6.092   7.565   0.423  1.00  0.00    -0.071 N 
ATOM     25  H12 UNL     1       5.517   8.068   1.099  1.00  0.00     0.277 HD
ATOM     26  H11 UNL     1       5.707   6.642   0.623  1.00  0.00     0.277 HD
ENDBRANCH  19  20
ENDBRANCH  18  19
ENDBRANCH  17  18
ENDBRANCH  16  17
ENDBRANCH  15  16
ENDBRANCH  14  15
ENDBRANCH   1  14
TORSDOF 14
ENDMDL
MODEL 5
REMARK VINA RESULT: -6.703432735      2.109      6.350
REMARK  14 active torsions:
REMARK  status: ('A' for Active; 'I' for Inactive)
REMARK    1  A    between atoms: C4_4  and  C5_5 
REMARK    2  A    between atoms: C5_5  and  C6_6 
REMARK    3  A    between atoms: C6_6  and  C7_7 
REMARK    4  A    between atoms: C7_7  and  C8_8 
REMARK    5  A    between atoms: C8_8  and  C9_9 
REMARK    6  A    between atoms: C9_9  and  C10_10 
REMARK    7  A    between atoms: C10_10  and  C11_11 
REMARK    8  A    between atoms: C11_11  and  C12_12 
REMARK    9  A    between atoms: C12_12  and  C13_13 
REMARK   10  A    between atoms: C13_13  and  C14_14 
REMARK   11  A    between atoms: C14_14  and  C15_15 
REMARK   12  A    between atoms: C15_15  and  C16_16 
REMARK   13  A    between atoms: C16_16  and  C17_17 
REMARK   14  A    between atoms: C17_17  and  C18_18 
ROOT
HETATM    1  C11 UNL     1       4.743  10.035   1.604  1.00  0.00     0.000 C 
ENDROOT
BRANCH   1   2
HETATM    2  C10 UNL     1       3.553   9.123   1.434  1.00  0.00     0.000 C 
BRANCH   2   3
HETATM    3  C9  UNL     1       2.609   9.593   0.375  1.00  0.00     0.000 C 
BRANCH   3   4
HETATM    4  C8  UNL     1       1.275   8.901   0.481  1.00  0.00     0.000 C 
BRANCH   4   5
HETATM    5  C7  UNL     1       0.997   8.398   1.862  1.00  0.00     0.000 C 
BRANCH   5   6
HETATM    6  C6  UNL     1      -0.026   9.226   2.594  1.00  0.00     0.005 C 
BRANCH   6   7
HETATM    7  C5  UNL     1       0.420   9.564   3.997  1.00  0.00     0.038 C 
BRANCH   7   8
HETATM    8  C4  UNL     1       1.395  10.661   3.910  1.00  0.00    -0.058 A 
HETATM    9  C3  UNL     1       2.521  10.656   4.691  1.00  0.00     0.007 A 
HETATM   10  C2  UNL     1       3.462  11.680   4.632  1.00  0.00     0.001 A 
HETATM   11  C1  UNL     1       3.253  12.719   3.767  1.00  0.00     0.000 A 
HETATM   12  C23 UNL     1       2.120  12.735   2.973  1.00  0.00     0.001 A 
HETATM   13  C22 UNL     1       1.190  11.704   3.045  1.00  0.00     0.007 A 
ENDBRANCH   7   8
ENDBRANCH   6   7
ENDBRANCH   5   6
ENDBRANCH   4   5
ENDBRANCH   3   4
ENDBRANCH   2   3
ENDBRANCH   1   2
BRANCH   1  14
HETATM   14  C12 UNL     1       4.710  11.092   0.550  1.00  0.00     0.000 C 
BRANCH  14  15
HETATM   15  C13 UNL     1       6.012  11.261  -0.201  1.00  0.00     0.000 C 
BRANCH  15  16
HETATM   16  C14 UNL     1       6.048  10.176  -1.254  1.00  0.00     0.000 C 
BRANCH  16  17
HETATM   17  C15 UNL     1       7.251   9.273  -1.103  1.00  0.00     0.000 C 
BRANCH  17  18
HETATM   18  C16 UNL     1       6.707   7.868  -0.941  1.00  0.00     0.002 C 
BRANCH  18  19
HETATM   19  C17 UNL     1       5.314   7.733  -1.502  1.00  0.00     0.033 C 
BRANCH  19  20
HETATM   20  C18 UNL     1       4.906   6.298  -1.518  1.00  0.00     0.186 C 
HETATM   21  C19 UNL     1       3.642   6.019  -2.248  1.00  0.00     0.034 C 
HETATM   22  C20 UNL     1       2.785   5.276  -1.223  1.00  0.00     0.029 C 
HETATM   23  C21 UNL     1       3.339   5.875   0.074  1.00  0.00     0.233 C 
HETATM   24  N1  UNL     1       4.761   5.784  -0.167  1.00  0.00    -0.071 N 
ATOM     25  H12 UNL     1       5.157   4.855  -0.022  1.00  0.00     0.277 HD
ATOM     26  H11 UNL     1       5.340   6.255   0.529  1.00  0.00     0.277 HD
ENDBRANCH  19  20
ENDBRANCH  18  19
ENDBRANCH  17  18
ENDBRANCH  16  17
ENDBRANCH  15  16
ENDBRANCH  14  15
ENDBRANCH   1  14
TORSDOF 14
ENDMDL
