MODEL 1
REMARK VINA RESULT: -6.991931725      0.000      0.000
REMARK  13 active torsions:
REMARK  status: ('A' for Active; 'I' for Inactive)
REMARK    1  A    between atoms: C4_4  and  C5_5 
REMARK    2  A    between atoms: C5_5  and  C6_6 
REMARK    3  A    between atoms: C6_6  and  C7_7 
REMARK    4  A    between atoms: C7_7  and  C8_8 
REMARK    5  A    between atoms: C8_8  and  C9_9 
REMARK    6  A    between atoms: C9_9  and  C10_10 
REMARK    7  A    between atoms: C10_10  and  C11_11 
REMARK    8  A    between atoms: C12_12  and  C13_13 
REMARK    9  A    between atoms: C13_13  and  C14_14 
REMARK   10  A    between atoms: C14_14  and  C15_15 
REMARK   11  A    between atoms: C15_15  and  C16_16 
REMARK   12  A    between atoms: C16_16  and  C17_17 
REMARK   13  A    between atoms: C17_17  and  C18_18 
ROOT
HETATM    1  C11 UNL     1       2.413   8.507   0.372  1.00  0.00    -0.031 C 
HETATM    2  C12 UNL     1       3.680   9.182   0.376  1.00  0.00    -0.031 C 
ENDROOT
BRANCH   1   3
HETATM    3  C10 UNL     1       2.261   7.129   0.819  1.00  0.00     0.027 C 
BRANCH   3   4
HETATM    4  C9  UNL     1       3.138   6.092   0.247  1.00  0.00     0.004 C 
BRANCH   4   5
HETATM    5  C8  UNL     1       2.710   5.516  -1.041  1.00  0.00     0.000 C 
BRANCH   5   6
HETATM    6  C7  UNL     1       3.679   5.994  -2.134  1.00  0.00     0.000 C 
BRANCH   6   7
HETATM    7  C6  UNL     1       5.053   6.051  -1.574  1.00  0.00     0.005 C 
BRANCH   7   8
HETATM    8  C5  UNL     1       5.739   7.288  -2.186  1.00  0.00     0.038 C 
BRANCH   8   9
HETATM    9  C4  UNL     1       6.659   7.797  -1.108  1.00  0.00    -0.058 A 
HETATM   10  C3  UNL     1       7.238   9.027  -1.259  1.00  0.00     0.007 A 
HETATM   11  C2  UNL     1       8.079   9.499  -0.279  1.00  0.00     0.001 A 
HETATM   12  C1  UNL     1       8.368   8.772   0.866  1.00  0.00     0.000 A 
HETATM   13  C22 UNL     1       7.762   7.537   0.978  1.00  0.00     0.001 A 
HETATM   14  C21 UNL     1       6.920   7.049   0.009  1.00  0.00     0.007 A 
ENDBRANCH   8   9
ENDBRANCH   7   8
ENDBRANCH   6   7
ENDBRANCH   5   6
ENDBRANCH   4   5
ENDBRANCH   3   4
ENDBRANCH   1   3
BRANCH   2  15
HETATM   15  C13 UNL     1       4.553   9.398   1.521  1.00  0.00     0.027 C 
BRANCH  15  16
HETATM   16  C14 UNL     1       5.163  10.727   1.702  1.00  0.00     0.004 C 
BRANCH  16  17
HETATM   17  C15 UNL     1       4.381  11.875   1.208  1.00  0.00     0.001 C 
BRANCH  17  18
HETATM   18  C16 UNL     1       3.426  12.416   2.287  1.00  0.00     0.006 C 
BRANCH  18  19
HETATM   19  C17 UNL     1       2.004  12.081   2.006  1.00  0.00     0.058 C 
BRANCH  19  20
HETATM   20  C18 UNL     1       1.288  11.394   3.072  1.00  0.00     0.027 A 
HETATM   21  C19 UNL     1       1.213  10.057   3.343  1.00  0.00     0.045 A 
HETATM   22  C20 UNL     1       0.410   9.929   4.457  1.00  0.00     0.109 A 
HETATM   23  N1  UNL     1       0.009  11.165   4.850  1.00  0.00    -0.312 N 
HETATM   24  N2  UNL     1       0.547  12.009   4.010  1.00  0.00    -0.305 N 
ATOM     25  H1  UNL     1      -0.592  11.389   5.644  1.00  0.00     0.186 HD
ATOM     26  H2  UNL     1       0.418  13.020   4.059  1.00  0.00     0.186 HD
ENDBRANCH  19  20
ENDBRANCH  18  19
ENDBRANCH  17  18
ENDBRANCH  16  17
ENDBRANCH  15  16
ENDBRANCH   2  15
TORSDOF 13
ENDMDL
MODEL 2
REMARK VINA RESULT: -6.834140143      0.805      1.277
REMARK  13 active torsions:
REMARK  status: ('A' for Active; 'I' for Inactive)
REMARK    1  A    between atoms: C4_4  and  C5_5 
REMARK    2  A    between atoms: C5_5  and  C6_6 
REMARK    3  A    between atoms: C6_6  and  C7_7 
REMARK    4  A    between atoms: C7_7  and  C8_8 
REMARK    5  A    between atoms: C8_8  and  C9_9 
REMARK    6  A    between atoms: C9_9  and  C10_10 
REMARK    7  A    between atoms: C10_10  and  C11_11 
REMARK    8  A    between atoms: C12_12  and  C13_13 
REMARK    9  A    between atoms: C13_13  and  C14_14 
REMARK   10  A    between atoms: C14_14  and  C15_15 
REMARK   11  A    between atoms: C15_15  and  C16_16 
REMARK   12  A    between atoms: C16_16  and  C17_17 
REMARK   13  A    between atoms: C17_17  and  C18_18 
ROOT
HETATM    1  C11 UNL     1       2.041   8.108   0.362  1.00  0.00    -0.031 C 
HETATM    2  C12 UNL     1       3.262   8.863   0.350  1.00  0.00    -0.031 C 
ENDROOT
BRANCH   1   3
HETATM    3  C10 UNL     1       2.004   6.689   0.688  1.00  0.00     0.027 C 
BRANCH   3   4
HETATM    4  C9  UNL     1       2.056   5.704  -0.407  1.00  0.00     0.004 C 
BRANCH   4   5
HETATM    5  C8  UNL     1       3.401   5.299  -0.855  1.00  0.00     0.000 C 
BRANCH   5   6
HETATM    6  C7  UNL     1       3.666   5.927  -2.231  1.00  0.00     0.000 C 
BRANCH   6   7
HETATM    7  C6  UNL     1       4.907   6.739  -2.164  1.00  0.00     0.005 C 
BRANCH   7   8
HETATM    8  C5  UNL     1       5.712   6.233  -0.952  1.00  0.00     0.038 C 
BRANCH   8   9
HETATM    9  C4  UNL     1       6.639   7.366  -0.600  1.00  0.00    -0.058 A 
HETATM   10  C3  UNL     1       7.349   7.301   0.568  1.00  0.00     0.007 A 
HETATM   11  C2  UNL     1       8.198   8.331   0.896  1.00  0.00     0.001 A 
HETATM   12  C1  UNL     1       8.366   9.444   0.085  1.00  0.00     0.000 A 
HETATM   13  C22 UNL     1       7.631   9.469  -1.082  1.00  0.00     0.001 A 
HETATM   14  C21 UNL     1       6.778   8.449  -1.427  1.00  0.00     0.007 A 
ENDBRANCH   8   9
ENDBRANCH   7   8
ENDBRANCH   6   7
ENDBRANCH   5   6
ENDBRANCH   4   5
ENDBRANCH   3   4
ENDBRANCH   1   3
BRANCH   2  15
HETATM   15  C13 UNL     1       4.198   9.033   1.453  1.00  0.00     0.027 C 
BRANCH  15  16
HETATM   16  C14 UNL     1       5.020  10.254   1.498  1.00  0.00     0.004 C 
BRANCH  16  17
HETATM   17  C15 UNL     1       4.597  11.358   0.616  1.00  0.00     0.001 C 
BRANCH  17  18
HETATM   18  C16 UNL     1       3.870  12.464   1.401  1.00  0.00     0.006 C 
BRANCH  18  19
HETATM   19  C17 UNL     1       2.389  12.333   1.326  1.00  0.00     0.058 C 
BRANCH  19  20
HETATM   20  C18 UNL     1       1.741  11.742   2.488  1.00  0.00     0.027 A 
HETATM   21  C19 UNL     1       0.741  10.812   2.542  1.00  0.00     0.045 A 
HETATM   22  C20 UNL     1       0.486  10.589   3.879  1.00  0.00     0.109 A 
HETATM   23  N1  UNL     1       1.317  11.369   4.617  1.00  0.00    -0.312 N 
HETATM   24  N2  UNL     1       2.046  12.039   3.763  1.00  0.00    -0.305 N 
ATOM     25  H1  UNL     1       1.362  11.422   5.635  1.00  0.00     0.186 HD
ATOM     26  H2  UNL     1       2.765  12.709   4.034  1.00  0.00     0.186 HD
ENDBRANCH  19  20
ENDBRANCH  18  19
ENDBRANCH  17  18
ENDBRANCH  16  17
ENDBRANCH  15  16
ENDBRANCH   2  15
TORSDOF 13
ENDMDL
MODEL 3
REMARK VINA RESULT: -6.831885291      2.757      6.997
REMARK  13 active torsions:
REMARK  status: ('A' for Active; 'I' for Inactive)
REMARK    1  A    between atoms: C4_4  and  C5_5 
REMARK    2  A    between atoms: C5_5  and  C6_6 
REMARK    3  A    between atoms: C6_6  and  C7_7 
REMARK    4  A    between atoms: C7_7  and  C8_8 
REMARK    5  A    between atoms: C8_8  and  C9_9 
REMARK    6  A    between atoms: C9_9  and  C10_10 
REMARK    7  A    between atoms: C10_10  and  C11_11 
REMARK    8  A    between atoms: C12_12  and  C13_13 
REMARK    9  A    between atoms: C13_13  and  C14_14 
REMARK   10  A    between atoms: C14_14  and  C15_15 
REMARK   11  A    between atoms: C15_15  and  C16_16 
REMARK   12  A    between atoms: C16_16  and  C17_17 
REMARK   13  A    between atoms: C17_17  and  C18_18 
ROOT
HETATM    1  C11 UNL     1       2.883   8.623   0.341  1.00  0.00    -0.031 C 
HETATM    2  C12 UNL     1       2.217   7.352   0.338  1.00  0.00    -0.031 C 
ENDROOT
BRANCH   1   3
HETATM    3  C10 UNL     1       3.963   8.936   1.267  1.00  0.00     0.027 C 
BRANCH   3   4
HETATM    4  C9  UNL     1       4.700  10.202   1.102  1.00  0.00     0.004 C 
BRANCH   4   5
HETATM    5  C8  UNL     1       4.343  11.015  -0.076  1.00  0.00     0.000 C 
BRANCH   5   6
HETATM    6  C7  UNL     1       3.942  12.418   0.405  1.00  0.00     0.000 C 
BRANCH   6   7
HETATM    7  C6  UNL     1       2.471  12.462   0.602  1.00  0.00     0.005 C 
BRANCH   7   8
HETATM    8  C5  UNL     1       2.225  12.811   2.082  1.00  0.00     0.038 C 
BRANCH   8   9
HETATM    9  C4  UNL     1       1.649  11.558   2.687  1.00  0.00    -0.058 A 
HETATM   10  C3  UNL     1       2.129  11.123   3.892  1.00  0.00     0.007 A 
HETATM   11  C2  UNL     1       1.607   9.981   4.451  1.00  0.00     0.001 A 
HETATM   12  C1  UNL     1       0.606   9.244   3.838  1.00  0.00     0.000 A 
HETATM   13  C22 UNL     1       0.151   9.717   2.624  1.00  0.00     0.001 A 
HETATM   14  C21 UNL     1       0.660  10.856   2.050  1.00  0.00     0.007 A 
ENDBRANCH   8   9
ENDBRANCH   7   8
ENDBRANCH   6   7
ENDBRANCH   5   6
ENDBRANCH   4   5
ENDBRANCH   3   4
ENDBRANCH   1   3
BRANCH   2  15
HETATM   15  C13 UNL     1       2.829   6.042   0.156  1.00  0.00     0.027 C 
BRANCH  15  16
HETATM   16  C14 UNL     1       2.815   5.438  -1.187  1.00  0.00     0.004 C 
BRANCH  16  17
HETATM   17  C15 UNL     1       3.713   6.048  -2.185  1.00  0.00     0.001 C 
BRANCH  17  18
HETATM   18  C16 UNL     1       5.140   6.217  -1.636  1.00  0.00     0.006 C 
BRANCH  18  19
HETATM   19  C17 UNL     1       5.771   7.490  -2.078  1.00  0.00     0.058 C 
BRANCH  19  20
HETATM   20  C18 UNL     1       6.722   8.087  -1.150  1.00  0.00     0.027 A 
HETATM   21  C19 UNL     1       7.421   9.256  -1.260  1.00  0.00     0.045 A 
HETATM   22  C20 UNL     1       8.182   9.365  -0.115  1.00  0.00     0.109 A 
HETATM   23  N1  UNL     1       7.946   8.283   0.670  1.00  0.00    -0.312 N 
HETATM   24  N2  UNL     1       7.077   7.547   0.029  1.00  0.00    -0.305 N 
ATOM     25  H1  UNL     1       8.364   8.085   1.579  1.00  0.00     0.186 HD
ATOM     26  H2  UNL     1       6.710   6.664   0.382  1.00  0.00     0.186 HD
ENDBRANCH  19  20
ENDBRANCH  18  19
ENDBRANCH  17  18
ENDBRANCH  16  17
ENDBRANCH  15  16
ENDBRANCH   2  15
TORSDOF 13
ENDMDL
MODEL 4
REMARK VINA RESULT: -6.821459207      3.155      6.870
REMARK  13 active torsions:
REMARK  status: ('A' for Active; 'I' for Inactive)
REMARK    1  A    between atoms: C4_4  and  C5_5 
REMARK    2  A    between atoms: C5_5  and  C6_6 
REMARK    3  A    between atoms: C6_6  and  C7_7 
REMARK    4  A    between atoms: C7_7  and  C8_8 
REMARK    5  A    between atoms: C8_8  and  C9_9 
REMARK    6  A    between atoms: C9_9  and  C10_10 
REMARK    7  A    between atoms: C10_10  and  C11_11 
REMARK    8  A    between atoms: C12_12  and  C13_13 
REMARK    9  A    between atoms: C13_13  and  C14_14 
REMARK   10  A    between atoms: C14_14  and  C15_15 
REMARK   11  A    between atoms: C15_15  and  C16_16 
REMARK   12  A    between atoms: C16_16  and  C17_17 
REMARK   13  A    between atoms: C17_17  and  C18_18 
ROOT
HETATM    1  C11 UNL     1       2.061   8.613   1.480  1.00  0.00    -0.031 C 
HETATM    2  C12 UNL     1       2.672   7.925   0.378  1.00  0.00    -0.031 C 
ENDROOT
BRANCH   1   3
HETATM    3  C10 UNL     1       0.717   9.167   1.406  1.00  0.00     0.027 C 
BRANCH   3   4
HETATM    4  C9  UNL     1       0.154   9.837   2.592  1.00  0.00     0.004 C 
BRANCH   4   5
HETATM    5  C8  UNL     1       0.868   9.617   3.864  1.00  0.00     0.000 C 
BRANCH   5   6
HETATM    6  C7  UNL     1       1.234  10.985   4.460  1.00  0.00     0.000 C 
BRANCH   6   7
HETATM    7  C6  UNL     1       2.711  11.136   4.457  1.00  0.00     0.005 C 
BRANCH   7   8
HETATM    8  C5  UNL     1       3.024  12.491   3.794  1.00  0.00     0.038 C 
BRANCH   8   9
HETATM    9  C4  UNL     1       3.244  12.172   2.339  1.00  0.00    -0.058 A 
HETATM   10  C3  UNL     1       4.361  11.469   1.977  1.00  0.00     0.007 A 
HETATM   11  C2  UNL     1       4.568  11.173   0.651  1.00  0.00     0.001 A 
HETATM   12  C1  UNL     1       3.684  11.562  -0.345  1.00  0.00     0.000 A 
HETATM   13  C22 UNL     1       2.572  12.268   0.064  1.00  0.00     0.001 A 
HETATM   14  C21 UNL     1       2.348  12.573   1.384  1.00  0.00     0.007 A 
ENDBRANCH   8   9
ENDBRANCH   7   8
ENDBRANCH   6   7
ENDBRANCH   5   6
ENDBRANCH   4   5
ENDBRANCH   3   4
ENDBRANCH   1   3
BRANCH   2  15
HETATM   15  C13 UNL     1       2.162   6.746  -0.309  1.00  0.00     0.027 C 
BRANCH  15  16
HETATM   16  C14 UNL     1       3.126   5.770  -0.846  1.00  0.00     0.004 C 
BRANCH  16  17
HETATM   17  C15 UNL     1       3.793   6.140  -2.108  1.00  0.00     0.001 C 
BRANCH  17  18
HETATM   18  C16 UNL     1       5.238   6.613  -1.869  1.00  0.00     0.006 C 
BRANCH  18  19
HETATM   19  C17 UNL     1       5.998   5.689  -0.985  1.00  0.00     0.058 C 
BRANCH  19  20
HETATM   20  C18 UNL     1       6.928   6.316  -0.055  1.00  0.00     0.027 A 
HETATM   21  C19 UNL     1       7.067   7.635   0.272  1.00  0.00     0.045 A 
HETATM   22  C20 UNL     1       8.087   7.703   1.198  1.00  0.00     0.109 A 
HETATM   23  N1  UNL     1       8.553   6.448   1.425  1.00  0.00    -0.312 N 
HETATM   24  N2  UNL     1       7.846   5.651   0.668  1.00  0.00    -0.305 N 
ATOM     25  H1  UNL     1       9.307   6.181   2.059  1.00  0.00     0.186 HD
ATOM     26  H2  UNL     1       7.975   4.640   0.630  1.00  0.00     0.186 HD
ENDBRANCH  19  20
ENDBRANCH  18  19
ENDBRANCH  17  18
ENDBRANCH  16  17
ENDBRANCH  15  16
ENDBRANCH   2  15
TORSDOF 13
ENDMDL
MODEL 5
REMARK VINA RESULT: -6.818710446      3.462      5.517
REMARK  13 active torsions:
REMARK  status: ('A' for Active; 'I' for Inactive)
REMARK    1  A    between atoms: C4_4  and  C5_5 
REMARK    2  A    between atoms: C5_5  and  C6_6 
REMARK    3  A    between atoms: C6_6  and  C7_7 
REMARK    4  A    between atoms: C7_7  and  C8_8 
REMARK    5  A    between atoms: C8_8  and  C9_9 
REMARK    6  A    between atoms: C9_9  and  C10_10 
REMARK    7  A    between atoms: C10_10  and  C11_11 
REMARK    8  A    between atoms: C12_12  and  C13_13 
REMARK    9  A    between atoms: C13_13  and  C14_14 
REMARK   10  A    between atoms: C14_14  and  C15_15 
REMARK   11  A    between atoms: C15_15  and  C16_16 
REMARK   12  A    between atoms: C16_16  and  C17_17 
REMARK   13  A    between atoms: C17_17  and  C18_18 
ROOT
HETATM    1  C11 UNL     1       1.928   5.650  -0.328  1.00  0.00    -0.031 C 
HETATM    2  C12 UNL     1       3.021   5.326  -1.200  1.00  0.00    -0.031 C 
ENDROOT
BRANCH   1   3
HETATM    3  C10 UNL     1       2.000   6.731   0.646  1.00  0.00     0.027 C 
BRANCH   3   4
HETATM    4  C9  UNL     1       1.281   7.988   0.372  1.00  0.00     0.004 C 
BRANCH   4   5
HETATM    5  C8  UNL     1       2.091   9.221   0.398  1.00  0.00     0.000 C 
BRANCH   5   6
HETATM    6  C7  UNL     1       3.409   8.921   1.128  1.00  0.00     0.000 C 
BRANCH   6   7
HETATM    7  C6  UNL     1       4.230  10.157   1.175  1.00  0.00     0.005 C 
BRANCH   7   8
HETATM    8  C5  UNL     1       4.666  10.464  -0.271  1.00  0.00     0.038 C 
BRANCH   8   9
HETATM    9  C4  UNL     1       6.166  10.332  -0.261  1.00  0.00    -0.058 A 
HETATM   10  C3  UNL     1       6.810  10.016  -1.427  1.00  0.00     0.007 A 
HETATM   11  C2  UNL     1       8.179   9.895  -1.426  1.00  0.00     0.001 A 
HETATM   12  C1  UNL     1       8.942  10.079  -0.283  1.00  0.00     0.000 A 
HETATM   13  C22 UNL     1       8.253  10.396   0.870  1.00  0.00     0.001 A 
HETATM   14  C21 UNL     1       6.885  10.521   0.889  1.00  0.00     0.007 A 
ENDBRANCH   8   9
ENDBRANCH   7   8
ENDBRANCH   6   7
ENDBRANCH   5   6
ENDBRANCH   4   5
ENDBRANCH   3   4
ENDBRANCH   1   3
BRANCH   2  15
HETATM   15  C13 UNL     1       3.676   6.215  -2.150  1.00  0.00     0.027 C 
BRANCH  15  16
HETATM   16  C14 UNL     1       4.865   6.965  -1.710  1.00  0.00     0.004 C 
BRANCH  16  17
HETATM   17  C15 UNL     1       5.919   6.180  -1.040  1.00  0.00     0.001 C 
BRANCH  17  18
HETATM   18  C16 UNL     1       6.241   6.740   0.357  1.00  0.00     0.006 C 
BRANCH  18  19
HETATM   19  C17 UNL     1       7.690   6.648   0.684  1.00  0.00     0.058 C 
BRANCH  19  20
HETATM   20  C18 UNL     1       8.046   6.886   2.076  1.00  0.00     0.027 A 
HETATM   21  C19 UNL     1       7.321   7.491   3.064  1.00  0.00     0.045 A 
HETATM   22  C20 UNL     1       8.106   7.464   4.197  1.00  0.00     0.109 A 
HETATM   23  N1  UNL     1       9.282   6.854   3.899  1.00  0.00    -0.312 N 
HETATM   24  N2  UNL     1       9.214   6.524   2.636  1.00  0.00    -0.305 N 
ATOM     25  H1  UNL     1      10.063   6.687   4.534  1.00  0.00     0.186 HD
ATOM     26  H2  UNL     1       9.961   6.045   2.132  1.00  0.00     0.186 HD
ENDBRANCH  19  20
ENDBRANCH  18  19
ENDBRANCH  17  18
ENDBRANCH  16  17
ENDBRANCH  15  16
ENDBRANCH   2  15
TORSDOF 13
ENDMDL
