MODEL 1
REMARK VINA RESULT: -6.565341788      0.000      0.000
REMARK  14 active torsions:
REMARK  status: ('A' for Active; 'I' for Inactive)
REMARK    1  A    between atoms: C4_4  and  C5_5 
REMARK    2  A    between atoms: C5_5  and  C6_6 
REMARK    3  A    between atoms: C6_6  and  C7_7 
REMARK    4  A    between atoms: C7_7  and  C8_8 
REMARK    5  A    between atoms: C8_8  and  C9_9 
REMARK    6  A    between atoms: C9_9  and  C10_10 
REMARK    7  A    between atoms: C10_10  and  C11_11 
REMARK    8  A    between atoms: C11_11  and  C12_12 
REMARK    9  A    between atoms: C12_12  and  C13_13 
REMARK   10  A    between atoms: C13_13  and  N1_14 
REMARK   11  A    between atoms: N1_14  and  C14_16 
REMARK   12  A    between atoms: C14_16  and  C15_17 
REMARK   13  A    between atoms: C15_17  and  C16_18 
REMARK   14  A    between atoms: C16_18  and  C17_19 
ROOT
HETATM    1  C11 UNL     1       3.205   9.635   0.334  1.00  0.00     0.005 C 
ENDROOT
BRANCH   1   2
HETATM    2  C10 UNL     1       2.251   8.489   0.257  1.00  0.00     0.000 C 
BRANCH   2   3
HETATM    3  C9  UNL     1       2.518   7.372   1.218  1.00  0.00     0.000 C 
BRANCH   3   4
HETATM    4  C8  UNL     1       1.859   6.068   0.852  1.00  0.00     0.000 C 
BRANCH   4   5
HETATM    5  C7  UNL     1       1.890   5.881  -0.633  1.00  0.00     0.000 C 
BRANCH   5   6
HETATM    6  C6  UNL     1       3.137   5.213  -1.126  1.00  0.00     0.005 C 
BRANCH   6   7
HETATM    7  C5  UNL     1       3.914   6.034  -2.114  1.00  0.00     0.038 C 
BRANCH   7   8
HETATM    8  C4  UNL     1       5.083   6.672  -1.423  1.00  0.00    -0.058 A 
HETATM    9  C3  UNL     1       5.592   6.089  -0.272  1.00  0.00     0.007 A 
HETATM   10  C2  UNL     1       6.661   6.663   0.376  1.00  0.00     0.001 A 
HETATM   11  C1  UNL     1       7.242   7.813  -0.094  1.00  0.00     0.000 A 
HETATM   12  C23 UNL     1       6.752   8.414  -1.243  1.00  0.00     0.001 A 
HETATM   13  C22 UNL     1       5.678   7.818  -1.875  1.00  0.00     0.007 A 
ENDBRANCH   7   8
ENDBRANCH   6   7
ENDBRANCH   5   6
ENDBRANCH   4   5
ENDBRANCH   3   4
ENDBRANCH   2   3
ENDBRANCH   1   2
BRANCH   1  14
HETATM   14  C12 UNL     1       4.257   9.441   1.407  1.00  0.00     0.044 C 
BRANCH  14  15
HETATM   15  C13 UNL     1       4.838  10.716   1.912  1.00  0.00     0.060 C 
BRANCH  15  16
HETATM   16  N1  UNL     1       4.056  11.839   1.742  1.00  0.00    -0.382 N 
ATOM     17  H1  UNL     1       3.896  12.123   0.775  1.00  0.00     0.163 HD
BRANCH  16  18
HETATM   18  C14 UNL     1       3.466  12.623   2.694  1.00  0.00     0.060 C 
BRANCH  18  19
HETATM   19  C15 UNL     1       2.075  12.347   3.114  1.00  0.00     0.045 C 
BRANCH  19  20
HETATM   20  C16 UNL     1       2.022  11.256   4.215  1.00  0.00     0.009 C 
BRANCH  20  21
HETATM   21  C17 UNL     1       1.349  10.061   3.649  1.00  0.00    -0.014 C 
HETATM   22  C18 UNL     1       0.165  10.427   2.755  1.00  0.00     0.004 C 
HETATM   23  C19 UNL     1      -0.443   9.034   2.545  1.00  0.00     0.000 C 
HETATM   24  C20 UNL     1      -0.236   8.330   3.881  1.00  0.00     0.000 C 
HETATM   25  C21 UNL     1       0.596   9.273   4.727  1.00  0.00     0.004 C 
ENDBRANCH  20  21
ENDBRANCH  19  20
ENDBRANCH  18  19
ENDBRANCH  16  18
ENDBRANCH  15  16
ENDBRANCH  14  15
ENDBRANCH   1  14
TORSDOF 14
ENDMDL
MODEL 2
REMARK VINA RESULT: -6.498087762      1.324      6.177
REMARK  14 active torsions:
REMARK  status: ('A' for Active; 'I' for Inactive)
REMARK    1  A    between atoms: C4_4  and  C5_5 
REMARK    2  A    between atoms: C5_5  and  C6_6 
REMARK    3  A    between atoms: C6_6  and  C7_7 
REMARK    4  A    between atoms: C7_7  and  C8_8 
REMARK    5  A    between atoms: C8_8  and  C9_9 
REMARK    6  A    between atoms: C9_9  and  C10_10 
REMARK    7  A    between atoms: C10_10  and  C11_11 
REMARK    8  A    between atoms: C11_11  and  C12_12 
REMARK    9  A    between atoms: C12_12  and  C13_13 
REMARK   10  A    between atoms: C13_13  and  N1_14 
REMARK   11  A    between atoms: N1_14  and  C14_16 
REMARK   12  A    between atoms: C14_16  and  C15_17 
REMARK   13  A    between atoms: C15_17  and  C16_18 
REMARK   14  A    between atoms: C16_18  and  C17_19 
ROOT
HETATM    1  C11 UNL     1       4.624  10.045   1.510  1.00  0.00     0.005 C 
ENDROOT
BRANCH   1   2
HETATM    2  C10 UNL     1       3.442   9.139   1.402  1.00  0.00     0.000 C 
BRANCH   2   3
HETATM    3  C9  UNL     1       2.426   9.537   0.378  1.00  0.00     0.000 C 
BRANCH   3   4
HETATM    4  C8  UNL     1       1.130   8.775   0.460  1.00  0.00     0.000 C 
BRANCH   4   5
HETATM    5  C7  UNL     1       0.912   8.291   1.860  1.00  0.00     0.000 C 
BRANCH   5   6
HETATM    6  C6  UNL     1      -0.046   9.136   2.643  1.00  0.00     0.005 C 
BRANCH   6   7
HETATM    7  C5  UNL     1       0.434   9.474   4.025  1.00  0.00     0.038 C 
BRANCH   7   8
HETATM    8  C4  UNL     1       1.414  10.607   3.949  1.00  0.00    -0.058 A 
HETATM    9  C3  UNL     1       1.163  11.667   3.090  1.00  0.00     0.007 A 
HETATM   10  C2  UNL     1       2.053  12.712   3.006  1.00  0.00     0.001 A 
HETATM   11  C1  UNL     1       3.199  12.731   3.759  1.00  0.00     0.000 A 
HETATM   12  C23 UNL     1       3.473  11.684   4.626  1.00  0.00     0.001 A 
HETATM   13  C22 UNL     1       2.563  10.647   4.692  1.00  0.00     0.007 A 
ENDBRANCH   7   8
ENDBRANCH   6   7
ENDBRANCH   5   6
ENDBRANCH   4   5
ENDBRANCH   3   4
ENDBRANCH   2   3
ENDBRANCH   1   2
BRANCH   1  14
HETATM   14  C12 UNL     1       4.578  11.179   0.507  1.00  0.00     0.044 C 
BRANCH  14  15
HETATM   15  C13 UNL     1       5.822  11.314  -0.301  1.00  0.00     0.060 C 
BRANCH  15  16
HETATM   16  N1  UNL     1       6.037  10.326  -1.240  1.00  0.00    -0.382 N 
ATOM     17  H1  UNL     1       5.347  10.273  -1.990  1.00  0.00     0.163 HD
BRANCH  16  18
HETATM   18  C14 UNL     1       7.049   9.410  -1.301  1.00  0.00     0.060 C 
BRANCH  18  19
HETATM   19  C15 UNL     1       6.787   8.001  -0.935  1.00  0.00     0.045 C 
BRANCH  19  20
HETATM   20  C16 UNL     1       5.896   7.297  -1.991  1.00  0.00     0.009 C 
BRANCH  20  21
HETATM   21  C17 UNL     1       4.585   6.998  -1.364  1.00  0.00    -0.014 C 
HETATM   22  C18 UNL     1       4.715   6.086  -0.145  1.00  0.00     0.004 C 
HETATM   23  C19 UNL     1       3.234   5.775   0.107  1.00  0.00     0.000 C 
HETATM   24  C20 UNL     1       2.629   5.683  -1.290  1.00  0.00     0.000 C 
HETATM   25  C21 UNL     1       3.729   6.087  -2.251  1.00  0.00     0.004 C 
ENDBRANCH  20  21
ENDBRANCH  19  20
ENDBRANCH  18  19
ENDBRANCH  16  18
ENDBRANCH  15  16
ENDBRANCH  14  15
ENDBRANCH   1  14
TORSDOF 14
ENDMDL
MODEL 3
REMARK VINA RESULT: -6.370650027      0.940      1.589
REMARK  14 active torsions:
REMARK  status: ('A' for Active; 'I' for Inactive)
REMARK    1  A    between atoms: C4_4  and  C5_5 
REMARK    2  A    between atoms: C5_5  and  C6_6 
REMARK    3  A    between atoms: C6_6  and  C7_7 
REMARK    4  A    between atoms: C7_7  and  C8_8 
REMARK    5  A    between atoms: C8_8  and  C9_9 
REMARK    6  A    between atoms: C9_9  and  C10_10 
REMARK    7  A    between atoms: C10_10  and  C11_11 
REMARK    8  A    between atoms: C11_11  and  C12_12 
REMARK    9  A    between atoms: C12_12  and  C13_13 
REMARK   10  A    between atoms: C13_13  and  N1_14 
REMARK   11  A    between atoms: N1_14  and  C14_16 
REMARK   12  A    between atoms: C14_16  and  C15_17 
REMARK   13  A    between atoms: C15_17  and  C16_18 
REMARK   14  A    between atoms: C16_18  and  C17_19 
ROOT
HETATM    1  C11 UNL     1       3.170   8.417   0.991  1.00  0.00     0.005 C 
ENDROOT
BRANCH   1   2
HETATM    2  C10 UNL     1       1.970   8.117   0.154  1.00  0.00     0.000 C 
BRANCH   2   3
HETATM    3  C9  UNL     1       1.553   6.679   0.133  1.00  0.00     0.000 C 
BRANCH   3   4
HETATM    4  C8  UNL     1       2.670   5.712  -0.159  1.00  0.00     0.000 C 
BRANCH   4   5
HETATM    5  C7  UNL     1       2.940   5.676  -1.631  1.00  0.00     0.000 C 
BRANCH   5   6
HETATM    6  C6  UNL     1       4.320   6.132  -1.998  1.00  0.00     0.005 C 
BRANCH   6   7
HETATM    7  C5  UNL     1       5.371   5.746  -0.999  1.00  0.00     0.038 C 
BRANCH   7   8
HETATM    8  C4  UNL     1       6.258   6.925  -0.726  1.00  0.00    -0.058 A 
HETATM    9  C3  UNL     1       6.913   7.014   0.493  1.00  0.00     0.007 A 
HETATM   10  C2  UNL     1       7.726   8.091   0.761  1.00  0.00     0.001 A 
HETATM   11  C1  UNL     1       7.906   9.092  -0.160  1.00  0.00     0.000 A 
HETATM   12  C23 UNL     1       7.262   9.025  -1.386  1.00  0.00     0.001 A 
HETATM   13  C22 UNL     1       6.451   7.933  -1.630  1.00  0.00     0.007 A 
ENDBRANCH   7   8
ENDBRANCH   6   7
ENDBRANCH   5   6
ENDBRANCH   4   5
ENDBRANCH   3   4
ENDBRANCH   2   3
ENDBRANCH   1   2
BRANCH   1  14
HETATM   14  C12 UNL     1       3.962   9.597   0.464  1.00  0.00     0.044 C 
BRANCH  14  15
HETATM   15  C13 UNL     1       4.766  10.290   1.509  1.00  0.00     0.060 C 
BRANCH  15  16
HETATM   16  N1  UNL     1       4.501  11.634   1.676  1.00  0.00    -0.382 N 
ATOM     17  H1  UNL     1       5.025  12.098   2.418  1.00  0.00     0.163 HD
BRANCH  16  18
HETATM   18  C14 UNL     1       3.631  12.426   0.981  1.00  0.00     0.060 C 
BRANCH  18  19
HETATM   19  C15 UNL     1       2.259  12.635   1.492  1.00  0.00     0.045 C 
BRANCH  19  20
HETATM   20  C16 UNL     1       2.222  12.613   3.042  1.00  0.00     0.009 C 
BRANCH  20  21
HETATM   21  C17 UNL     1       1.261  11.565   3.467  1.00  0.00    -0.014 C 
HETATM   22  C18 UNL     1       1.951  10.377   4.135  1.00  0.00     0.004 C 
HETATM   23  C19 UNL     1       0.768   9.403   4.220  1.00  0.00     0.000 C 
HETATM   24  C20 UNL     1      -0.017   9.656   2.938  1.00  0.00     0.000 C 
HETATM   25  C21 UNL     1       0.650  10.838   2.264  1.00  0.00     0.004 C 
ENDBRANCH  20  21
ENDBRANCH  19  20
ENDBRANCH  18  19
ENDBRANCH  16  18
ENDBRANCH  15  16
ENDBRANCH  14  15
ENDBRANCH   1  14
TORSDOF 14
ENDMDL
MODEL 4
REMARK VINA RESULT: -6.320474492      1.391      3.424
REMARK  14 active torsions:
REMARK  status: ('A' for Active; 'I' for Inactive)
REMARK    1  A    between atoms: C4_4  and  C5_5 
REMARK    2  A    between atoms: C5_5  and  C6_6 
REMARK    3  A    between atoms: C6_6  and  C7_7 
REMARK    4  A    between atoms: C7_7  and  C8_8 
REMARK    5  A    between atoms: C8_8  and  C9_9 
REMARK    6  A    between atoms: C9_9  and  C10_10 
REMARK    7  A    between atoms: C10_10  and  C11_11 
REMARK    8  A    between atoms: C11_11  and  C12_12 
REMARK    9  A    between atoms: C12_12  and  C13_13 
REMARK   10  A    between atoms: C13_13  and  N1_14 
REMARK   11  A    between atoms: N1_14  and  C14_16 
REMARK   12  A    between atoms: C14_16  and  C15_17 
REMARK   13  A    between atoms: C15_17  and  C16_18 
REMARK   14  A    between atoms: C16_18  and  C17_19 
ROOT
HETATM    1  C11 UNL     1       2.825   8.509   0.399  1.00  0.00     0.005 C 
ENDROOT
BRANCH   1   2
HETATM    2  C10 UNL     1       2.778   7.051   0.714  1.00  0.00     0.000 C 
BRANCH   2   3
HETATM    3  C9  UNL     1       2.207   6.184  -0.366  1.00  0.00     0.000 C 
BRANCH   3   4
HETATM    4  C8  UNL     1       3.223   5.332  -1.081  1.00  0.00     0.000 C 
BRANCH   4   5
HETATM    5  C7  UNL     1       3.881   6.128  -2.165  1.00  0.00     0.000 C 
BRANCH   5   6
HETATM    6  C6  UNL     1       5.315   6.456  -1.880  1.00  0.00     0.005 C 
BRANCH   6   7
HETATM    7  C5  UNL     1       5.619   7.926  -1.920  1.00  0.00     0.038 C 
BRANCH   7   8
HETATM    8  C4  UNL     1       6.601   8.262  -0.837  1.00  0.00    -0.058 A 
HETATM    9  C3  UNL     1       7.505   9.294  -1.037  1.00  0.00     0.007 A 
HETATM   10  C2  UNL     1       8.415   9.613  -0.055  1.00  0.00     0.001 A 
HETATM   11  C1  UNL     1       8.451   8.924   1.131  1.00  0.00     0.000 A 
HETATM   12  C23 UNL     1       7.557   7.888   1.354  1.00  0.00     0.001 A 
HETATM   13  C22 UNL     1       6.654   7.588   0.353  1.00  0.00     0.007 A 
ENDBRANCH   7   8
ENDBRANCH   6   7
ENDBRANCH   5   6
ENDBRANCH   4   5
ENDBRANCH   3   4
ENDBRANCH   2   3
ENDBRANCH   1   2
BRANCH   1  14
HETATM   14  C12 UNL     1       1.469   9.173   0.526  1.00  0.00     0.044 C 
BRANCH  14  15
HETATM   15  C13 UNL     1       0.919   9.149   1.910  1.00  0.00     0.060 C 
BRANCH  15  16
HETATM   16  N1  UNL     1       0.312  10.312   2.335  1.00  0.00    -0.382 N 
ATOM     17  H1  UNL     1      -0.422  10.674   1.726  1.00  0.00     0.163 HD
BRANCH  16  18
HETATM   18  C14 UNL     1       0.561  11.046   3.460  1.00  0.00     0.060 C 
BRANCH  18  19
HETATM   19  C15 UNL     1       1.905  11.625   3.677  1.00  0.00     0.045 C 
BRANCH  19  20
HETATM   20  C16 UNL     1       2.224  12.723   2.630  1.00  0.00     0.009 C 
BRANCH  20  21
HETATM   21  C17 UNL     1       3.584  12.469   2.093  1.00  0.00    -0.014 C 
HETATM   22  C18 UNL     1       3.571  12.161   0.596  1.00  0.00     0.004 C 
HETATM   23  C19 UNL     1       5.027  11.715   0.410  1.00  0.00     0.000 C 
HETATM   24  C20 UNL     1       5.356  10.965   1.697  1.00  0.00     0.000 C 
HETATM   25  C21 UNL     1       4.154  11.141   2.603  1.00  0.00     0.004 C 
ENDBRANCH  20  21
ENDBRANCH  19  20
ENDBRANCH  18  19
ENDBRANCH  16  18
ENDBRANCH  15  16
ENDBRANCH  14  15
ENDBRANCH   1  14
TORSDOF 14
ENDMDL
MODEL 5
REMARK VINA RESULT: -6.318003608      1.765      6.708
REMARK  14 active torsions:
REMARK  status: ('A' for Active; 'I' for Inactive)
REMARK    1  A    between atoms: C4_4  and  C5_5 
REMARK    2  A    between atoms: C5_5  and  C6_6 
REMARK    3  A    between atoms: C6_6  and  C7_7 
REMARK    4  A    between atoms: C7_7  and  C8_8 
REMARK    5  A    between atoms: C8_8  and  C9_9 
REMARK    6  A    between atoms: C9_9  and  C10_10 
REMARK    7  A    between atoms: C10_10  and  C11_11 
REMARK    8  A    between atoms: C11_11  and  C12_12 
REMARK    9  A    between atoms: C12_12  and  C13_13 
REMARK   10  A    between atoms: C13_13  and  N1_14 
REMARK   11  A    between atoms: N1_14  and  C14_16 
REMARK   12  A    between atoms: C14_16  and  C15_17 
REMARK   13  A    between atoms: C15_17  and  C16_18 
REMARK   14  A    between atoms: C16_18  and  C17_19 
ROOT
HETATM    1  C11 UNL     1       2.836   8.373   0.393  1.00  0.00     0.005 C 
ENDROOT
BRANCH   1   2
HETATM    2  C10 UNL     1       1.606   9.101   0.826  1.00  0.00     0.000 C 
BRANCH   2   3
HETATM    3  C9  UNL     1       1.006   8.628   2.113  1.00  0.00     0.000 C 
BRANCH   3   4
HETATM    4  C8  UNL     1      -0.018   9.563   2.702  1.00  0.00     0.000 C 
BRANCH   4   5
HETATM    5  C7  UNL     1       0.371   9.927   4.101  1.00  0.00     0.000 C 
BRANCH   5   6
HETATM    6  C6  UNL     1       0.983  11.290   4.217  1.00  0.00     0.005 C 
BRANCH   6   7
HETATM    7  C5  UNL     1       2.427  11.272   4.629  1.00  0.00     0.038 C 
BRANCH   7   8
HETATM    8  C4  UNL     1       3.295  11.333   3.407  1.00  0.00    -0.058 A 
HETATM    9  C3  UNL     1       2.960  12.202   2.379  1.00  0.00     0.007 A 
HETATM   10  C2  UNL     1       3.743  12.267   1.249  1.00  0.00     0.001 A 
HETATM   11  C1  UNL     1       4.861  11.483   1.113  1.00  0.00     0.000 A 
HETATM   12  C23 UNL     1       5.216  10.607   2.128  1.00  0.00     0.001 A 
HETATM   13  C22 UNL     1       4.413  10.561   3.251  1.00  0.00     0.007 A 
ENDBRANCH   7   8
ENDBRANCH   6   7
ENDBRANCH   5   6
ENDBRANCH   4   5
ENDBRANCH   3   4
ENDBRANCH   2   3
ENDBRANCH   1   2
BRANCH   1  14
HETATM   14  C12 UNL     1       2.804   6.906   0.772  1.00  0.00     0.044 C 
BRANCH  14  15
HETATM   15  C13 UNL     1       2.185   6.035  -0.265  1.00  0.00     0.060 C 
BRANCH  15  16
HETATM   16  N1  UNL     1       3.066   5.346  -1.073  1.00  0.00    -0.382 N 
ATOM     17  H1  UNL     1       3.160   4.350  -0.875  1.00  0.00     0.163 HD
BRANCH  16  18
HETATM   18  C14 UNL     1       3.831   5.819  -2.102  1.00  0.00     0.060 C 
BRANCH  18  19
HETATM   19  C15 UNL     1       5.265   6.107  -1.881  1.00  0.00     0.045 C 
BRANCH  19  20
HETATM   20  C16 UNL     1       5.568   7.621  -2.029  1.00  0.00     0.009 C 
BRANCH  20  21
HETATM   21  C17 UNL     1       6.785   7.928  -1.238  1.00  0.00    -0.014 C 
HETATM   22  C18 UNL     1       6.579   7.707   0.260  1.00  0.00     0.004 C 
HETATM   23  C19 UNL     1       7.875   8.329   0.796  1.00  0.00     0.000 C 
HETATM   24  C20 UNL     1       8.131   9.515  -0.128  1.00  0.00     0.000 C 
HETATM   25  C21 UNL     1       7.080   9.432  -1.216  1.00  0.00     0.004 C 
ENDBRANCH  20  21
ENDBRANCH  19  20
ENDBRANCH  18  19
ENDBRANCH  16  18
ENDBRANCH  15  16
ENDBRANCH  14  15
ENDBRANCH   1  14
TORSDOF 14
ENDMDL
