MODEL 1
REMARK VINA RESULT: -6.610076900      0.000      0.000
REMARK  13 active torsions:
REMARK  status: ('A' for Active; 'I' for Inactive)
REMARK    1  A    between atoms: C4_4  and  C5_5 
REMARK    2  A    between atoms: C5_5  and  C6_6 
REMARK    3  A    between atoms: C6_6  and  C7_7 
REMARK    4  A    between atoms: C7_7  and  C8_8 
REMARK    5  A    between atoms: C8_8  and  C9_9 
REMARK    6  A    between atoms: C9_9  and  C10_10 
REMARK    7  A    between atoms: C10_10  and  C11_11 
REMARK    8  A    between atoms: C11_11  and  C12_12 
REMARK    9  A    between atoms: C12_12  and  C13_13 
REMARK   10  A    between atoms: C13_13  and  C14_14 
REMARK   11  A    between atoms: C14_14  and  N1_15 
REMARK   12  A    between atoms: N1_15  and  C15_18 
REMARK   13  A    between atoms: C15_18  and  C16_19 
ROOT
HETATM    1  C11 UNL     1       3.222   9.648   0.374  1.00  0.00     0.000 C 
ENDROOT
BRANCH   1   2
HETATM    2  C10 UNL     1       2.206   8.549   0.239  1.00  0.00     0.000 C 
BRANCH   2   3
HETATM    3  C9  UNL     1       2.434   7.413   1.191  1.00  0.00     0.000 C 
BRANCH   3   4
HETATM    4  C8  UNL     1       1.759   6.156   0.711  1.00  0.00     0.000 C 
BRANCH   4   5
HETATM    5  C7  UNL     1       2.017   5.967  -0.742  1.00  0.00     0.000 C 
BRANCH   5   6
HETATM    6  C6  UNL     1       3.386   5.292  -0.980  1.00  0.00     0.005 C 
BRANCH   6   7
HETATM    7  C5  UNL     1       4.104   6.209  -1.957  1.00  0.00     0.038 C 
BRANCH   7   8
HETATM    8  C4  UNL     1       5.235   6.914  -1.309  1.00  0.00    -0.058 A 
HETATM    9  C3  UNL     1       5.798   8.048  -1.810  1.00  0.00     0.007 A 
HETATM   10  C2  UNL     1       6.839   8.677  -1.187  1.00  0.00     0.001 A 
HETATM   11  C1  UNL     1       7.321   8.124  -0.006  1.00  0.00     0.000 A 
HETATM   12  C23 UNL     1       6.771   6.992   0.508  1.00  0.00     0.001 A 
HETATM   13  C22 UNL     1       5.722   6.374  -0.136  1.00  0.00     0.007 A 
ENDBRANCH   7   8
ENDBRANCH   6   7
ENDBRANCH   5   6
ENDBRANCH   4   5
ENDBRANCH   3   4
ENDBRANCH   2   3
ENDBRANCH   1   2
BRANCH   1  14
HETATM   14  C12 UNL     1       4.116   9.424   1.543  1.00  0.00     0.002 C 
BRANCH  14  15
HETATM   15  C13 UNL     1       4.869  10.712   1.922  1.00  0.00     0.027 C 
BRANCH  15  16
HETATM   16  C14 UNL     1       3.892  11.850   1.761  1.00  0.00     0.232 C 
BRANCH  16  17
HETATM   17  N1  UNL     1       3.353  12.310   3.005  1.00  0.00    -0.071 N 
ATOM     18  H12 UNL     1       3.666  11.722   3.777  1.00  0.00     0.277 HD
ATOM     19  H11 UNL     1       3.783  13.193   3.284  1.00  0.00     0.277 HD
BRANCH  17  20
HETATM   20  C15 UNL     1       1.910  12.420   2.988  1.00  0.00     0.270 C 
BRANCH  20  21
HETATM   21  C16 UNL     1       1.260  11.113   3.270  1.00  0.00    -0.033 A 
HETATM   22  C17 UNL     1       0.263  10.634   2.444  1.00  0.00     0.009 A 
HETATM   23  C18 UNL     1      -0.363   9.423   2.673  1.00  0.00     0.001 A 
HETATM   24  C19 UNL     1      -0.012   8.638   3.750  1.00  0.00     0.000 A 
HETATM   25  C20 UNL     1       0.983   9.103   4.584  1.00  0.00     0.001 A 
HETATM   26  C21 UNL     1       1.602  10.314   4.346  1.00  0.00     0.009 A 
ENDBRANCH  20  21
ENDBRANCH  17  20
ENDBRANCH  16  17
ENDBRANCH  15  16
ENDBRANCH  14  15
ENDBRANCH   1  14
TORSDOF 13
ENDMDL
MODEL 2
REMARK VINA RESULT: -6.470179097      1.018      2.829
REMARK  13 active torsions:
REMARK  status: ('A' for Active; 'I' for Inactive)
REMARK    1  A    between atoms: C4_4  and  C5_5 
REMARK    2  A    between atoms: C5_5  and  C6_6 
REMARK    3  A    between atoms: C6_6  and  C7_7 
REMARK    4  A    between atoms: C7_7  and  C8_8 
REMARK    5  A    between atoms: C8_8  and  C9_9 
REMARK    6  A    between atoms: C9_9  and  C10_10 
REMARK    7  A    between atoms: C10_10  and  C11_11 
REMARK    8  A    between atoms: C11_11  and  C12_12 
REMARK    9  A    between atoms: C12_12  and  C13_13 
REMARK   10  A    between atoms: C13_13  and  C14_14 
REMARK   11  A    between atoms: C14_14  and  N1_15 
REMARK   12  A    between atoms: N1_15  and  C15_18 
REMARK   13  A    between atoms: C15_18  and  C16_19 
ROOT
HETATM    1  C11 UNL     1       1.400   9.596   0.788  1.00  0.00     0.000 C 
ENDROOT
BRANCH   1   2
HETATM    2  C10 UNL     1       2.363   8.599   0.207  1.00  0.00     0.000 C 
BRANCH   2   3
HETATM    3  C9  UNL     1       2.826   7.576   1.201  1.00  0.00     0.000 C 
BRANCH   3   4
HETATM    4  C8  UNL     1       2.370   6.195   0.815  1.00  0.00     0.000 C 
BRANCH   4   5
HETATM    5  C7  UNL     1       2.165   6.124  -0.658  1.00  0.00     0.000 C 
BRANCH   5   6
HETATM    6  C6  UNL     1       3.247   5.247  -1.327  1.00  0.00     0.005 C 
BRANCH   6   7
HETATM    7  C5  UNL     1       4.040   6.209  -2.197  1.00  0.00     0.038 C 
BRANCH   7   8
HETATM    8  C4  UNL     1       5.189   6.785  -1.461  1.00  0.00    -0.058 A 
HETATM    9  C3  UNL     1       5.628   8.062  -1.635  1.00  0.00     0.007 A 
HETATM   10  C2  UNL     1       6.690   8.566  -0.938  1.00  0.00     0.001 A 
HETATM   11  C1  UNL     1       7.327   7.729  -0.028  1.00  0.00     0.000 A 
HETATM   12  C23 UNL     1       6.903   6.451   0.158  1.00  0.00     0.001 A 
HETATM   13  C22 UNL     1       5.829   5.964  -0.555  1.00  0.00     0.007 A 
ENDBRANCH   7   8
ENDBRANCH   6   7
ENDBRANCH   5   6
ENDBRANCH   4   5
ENDBRANCH   3   4
ENDBRANCH   2   3
ENDBRANCH   1   2
BRANCH   1  14
HETATM   14  C12 UNL     1       0.857   9.134   2.095  1.00  0.00     0.002 C 
BRANCH  14  15
HETATM   15  C13 UNL     1       0.092  10.262   2.810  1.00  0.00     0.027 C 
BRANCH  15  16
HETATM   16  C14 UNL     1       0.695  10.392   4.186  1.00  0.00     0.232 C 
BRANCH  16  17
HETATM   17  N1  UNL     1       1.333  11.654   4.405  1.00  0.00    -0.071 N 
ATOM     18  H12 UNL     1       1.154  12.293   3.630  1.00  0.00     0.277 HD
ATOM     19  H11 UNL     1       0.873  12.171   5.155  1.00  0.00     0.277 HD
BRANCH  17  20
HETATM   20  C15 UNL     1       2.754  11.532   4.657  1.00  0.00     0.270 C 
BRANCH  20  21
HETATM   21  C16 UNL     1       3.526  11.436   3.392  1.00  0.00    -0.033 A 
HETATM   22  C17 UNL     1       3.335  12.360   2.383  1.00  0.00     0.009 A 
HETATM   23  C18 UNL     1       4.036  12.303   1.192  1.00  0.00     0.001 A 
HETATM   24  C19 UNL     1       4.963  11.309   0.964  1.00  0.00     0.000 A 
HETATM   25  C20 UNL     1       5.164  10.379   1.961  1.00  0.00     0.001 A 
HETATM   26  C21 UNL     1       4.459  10.445   3.147  1.00  0.00     0.009 A 
ENDBRANCH  20  21
ENDBRANCH  17  20
ENDBRANCH  16  17
ENDBRANCH  15  16
ENDBRANCH  14  15
ENDBRANCH   1  14
TORSDOF 13
ENDMDL
MODEL 3
REMARK VINA RESULT: -6.464496961      1.515      4.002
REMARK  13 active torsions:
REMARK  status: ('A' for Active; 'I' for Inactive)
REMARK    1  A    between atoms: C4_4  and  C5_5 
REMARK    2  A    between atoms: C5_5  and  C6_6 
REMARK    3  A    between atoms: C6_6  and  C7_7 
REMARK    4  A    between atoms: C7_7  and  C8_8 
REMARK    5  A    between atoms: C8_8  and  C9_9 
REMARK    6  A    between atoms: C9_9  and  C10_10 
REMARK    7  A    between atoms: C10_10  and  C11_11 
REMARK    8  A    between atoms: C11_11  and  C12_12 
REMARK    9  A    between atoms: C12_12  and  C13_13 
REMARK   10  A    between atoms: C13_13  and  C14_14 
REMARK   11  A    between atoms: C14_14  and  N1_15 
REMARK   12  A    between atoms: N1_15  and  C15_18 
REMARK   13  A    between atoms: C15_18  and  C16_19 
ROOT
HETATM    1  C11 UNL     1       3.992  10.164   0.480  1.00  0.00     0.000 C 
ENDROOT
BRANCH   1   2
HETATM    2  C10 UNL     1       5.085  10.839   1.258  1.00  0.00     0.000 C 
BRANCH   2   3
HETATM    3  C9  UNL     1       5.666   9.972   2.335  1.00  0.00     0.000 C 
BRANCH   3   4
HETATM    4  C8  UNL     1       7.156  10.157   2.440  1.00  0.00     0.000 C 
BRANCH   4   5
HETATM    5  C7  UNL     1       7.697  10.648   1.143  1.00  0.00     0.000 C 
BRANCH   5   6
HETATM    6  C6  UNL     1       8.476   9.535   0.409  1.00  0.00     0.005 C 
BRANCH   6   7
HETATM    7  C5  UNL     1       7.727   9.337  -0.899  1.00  0.00     0.038 C 
BRANCH   7   8
HETATM    8  C4  UNL     1       6.867   8.131  -0.854  1.00  0.00    -0.058 A 
HETATM    9  C3  UNL     1       6.960   7.178   0.113  1.00  0.00     0.007 A 
HETATM   10  C2  UNL     1       6.150   6.078   0.129  1.00  0.00     0.001 A 
HETATM   11  C1  UNL     1       5.208   5.948  -0.886  1.00  0.00     0.000 A 
HETATM   12  C23 UNL     1       5.101   6.890  -1.861  1.00  0.00     0.001 A 
HETATM   13  C22 UNL     1       5.928   7.992  -1.857  1.00  0.00     0.007 A 
ENDBRANCH   7   8
ENDBRANCH   6   7
ENDBRANCH   5   6
ENDBRANCH   4   5
ENDBRANCH   3   4
ENDBRANCH   2   3
ENDBRANCH   1   2
BRANCH   1  14
HETATM   14  C12 UNL     1       3.663   8.827   1.047  1.00  0.00     0.002 C 
BRANCH  14  15
HETATM   15  C13 UNL     1       2.424   8.222   0.362  1.00  0.00     0.027 C 
BRANCH  15  16
HETATM   16  C14 UNL     1       1.297   9.206   0.555  1.00  0.00     0.232 C 
BRANCH  16  17
HETATM   17  N1  UNL     1       0.640   9.069   1.819  1.00  0.00    -0.071 N 
ATOM     18  H12 UNL     1      -0.167   8.451   1.745  1.00  0.00     0.277 HD
ATOM     19  H11 UNL     1       1.208   8.524   2.469  1.00  0.00     0.277 HD
BRANCH  17  20
HETATM   20  C15 UNL     1       0.267  10.342   2.401  1.00  0.00     0.270 C 
BRANCH  20  21
HETATM   21  C16 UNL     1       1.402  10.961   3.134  1.00  0.00    -0.033 A 
HETATM   22  C17 UNL     1       1.999  10.299   4.188  1.00  0.00     0.009 A 
HETATM   23  C18 UNL     1       3.057  10.842   4.893  1.00  0.00     0.001 A 
HETATM   24  C19 UNL     1       3.562  12.082   4.566  1.00  0.00     0.000 A 
HETATM   25  C20 UNL     1       2.977  12.755   3.514  1.00  0.00     0.001 A 
HETATM   26  C21 UNL     1       1.920  12.203   2.817  1.00  0.00     0.009 A 
ENDBRANCH  20  21
ENDBRANCH  17  20
ENDBRANCH  16  17
ENDBRANCH  15  16
ENDBRANCH  14  15
ENDBRANCH   1  14
TORSDOF 13
ENDMDL
MODEL 4
REMARK VINA RESULT: -6.444451106      1.680      6.948
REMARK  13 active torsions:
REMARK  status: ('A' for Active; 'I' for Inactive)
REMARK    1  A    between atoms: C4_4  and  C5_5 
REMARK    2  A    between atoms: C5_5  and  C6_6 
REMARK    3  A    between atoms: C6_6  and  C7_7 
REMARK    4  A    between atoms: C7_7  and  C8_8 
REMARK    5  A    between atoms: C8_8  and  C9_9 
REMARK    6  A    between atoms: C9_9  and  C10_10 
REMARK    7  A    between atoms: C10_10  and  C11_11 
REMARK    8  A    between atoms: C11_11  and  C12_12 
REMARK    9  A    between atoms: C12_12  and  C13_13 
REMARK   10  A    between atoms: C13_13  and  C14_14 
REMARK   11  A    between atoms: C14_14  and  N1_15 
REMARK   12  A    between atoms: N1_15  and  C15_18 
REMARK   13  A    between atoms: C15_18  and  C16_19 
ROOT
HETATM    1  C11 UNL     1       2.320   8.484   0.233  1.00  0.00     0.000 C 
ENDROOT
BRANCH   1   2
HETATM    2  C10 UNL     1       3.330   9.582   0.410  1.00  0.00     0.000 C 
BRANCH   2   3
HETATM    3  C9  UNL     1       4.225   9.377   1.596  1.00  0.00     0.000 C 
BRANCH   3   4
HETATM    4  C8  UNL     1       4.868  10.669   2.024  1.00  0.00     0.000 C 
BRANCH   4   5
HETATM    5  C7  UNL     1       3.939  11.804   1.772  1.00  0.00     0.000 C 
BRANCH   5   6
HETATM    6  C6  UNL     1       3.331  12.328   3.092  1.00  0.00     0.005 C 
BRANCH   6   7
HETATM    7  C5  UNL     1       1.830  12.328   2.853  1.00  0.00     0.038 C 
BRANCH   7   8
HETATM    8  C4  UNL     1       1.225  11.022   3.205  1.00  0.00    -0.058 A 
HETATM    9  C3  UNL     1       1.586  10.297   4.300  1.00  0.00     0.007 A 
HETATM   10  C2  UNL     1       1.007   9.097   4.599  1.00  0.00     0.001 A 
HETATM   11  C1  UNL     1       0.019   8.619   3.744  1.00  0.00     0.000 A 
HETATM   12  C23 UNL     1      -0.354   9.329   2.646  1.00  0.00     0.001 A 
HETATM   13  C22 UNL     1       0.243  10.538   2.363  1.00  0.00     0.007 A 
ENDBRANCH   7   8
ENDBRANCH   6   7
ENDBRANCH   5   6
ENDBRANCH   4   5
ENDBRANCH   3   4
ENDBRANCH   2   3
ENDBRANCH   1   2
BRANCH   1  14
HETATM   14  C12 UNL     1       2.509   7.401   1.237  1.00  0.00     0.002 C 
BRANCH  14  15
HETATM   15  C13 UNL     1       1.807   6.105   0.795  1.00  0.00     0.027 C 
BRANCH  15  16
HETATM   16  C14 UNL     1       2.069   5.951  -0.682  1.00  0.00     0.232 C 
BRANCH  16  17
HETATM   17  N1  UNL     1       3.295   5.270  -0.969  1.00  0.00    -0.071 N 
ATOM     18  H12 UNL     1       3.817   5.083  -0.113  1.00  0.00     0.277 HD
ATOM     19  H11 UNL     1       3.118   4.311  -1.269  1.00  0.00     0.277 HD
BRANCH  17  20
HETATM   20  C15 UNL     1       4.116   5.970  -1.935  1.00  0.00     0.270 C 
BRANCH  20  21
HETATM   21  C16 UNL     1       5.230   6.701  -1.275  1.00  0.00    -0.033 A 
HETATM   22  C17 UNL     1       5.760   7.838  -1.852  1.00  0.00     0.009 A 
HETATM   23  C18 UNL     1       6.795   8.544  -1.268  1.00  0.00     0.001 A 
HETATM   24  C19 UNL     1       7.345   8.134  -0.073  1.00  0.00     0.000 A 
HETATM   25  C20 UNL     1       6.827   7.000   0.515  1.00  0.00     0.001 A 
HETATM   26  C21 UNL     1       5.792   6.301  -0.077  1.00  0.00     0.009 A 
ENDBRANCH  20  21
ENDBRANCH  17  20
ENDBRANCH  16  17
ENDBRANCH  15  16
ENDBRANCH  14  15
ENDBRANCH   1  14
TORSDOF 13
ENDMDL
MODEL 5
REMARK VINA RESULT: -6.414448667      1.727      6.116
REMARK  13 active torsions:
REMARK  status: ('A' for Active; 'I' for Inactive)
REMARK    1  A    between atoms: C4_4  and  C5_5 
REMARK    2  A    between atoms: C5_5  and  C6_6 
REMARK    3  A    between atoms: C6_6  and  C7_7 
REMARK    4  A    between atoms: C7_7  and  C8_8 
REMARK    5  A    between atoms: C8_8  and  C9_9 
REMARK    6  A    between atoms: C9_9  and  C10_10 
REMARK    7  A    between atoms: C10_10  and  C11_11 
REMARK    8  A    between atoms: C11_11  and  C12_12 
REMARK    9  A    between atoms: C12_12  and  C13_13 
REMARK   10  A    between atoms: C13_13  and  C14_14 
REMARK   11  A    between atoms: C14_14  and  N1_15 
REMARK   12  A    between atoms: N1_15  and  C15_18 
REMARK   13  A    between atoms: C15_18  and  C16_19 
ROOT
HETATM    1  C11 UNL     1       4.827  10.438   1.000  1.00  0.00     0.000 C 
ENDROOT
BRANCH   1   2
HETATM    2  C10 UNL     1       3.670   9.730   0.353  1.00  0.00     0.000 C 
BRANCH   2   3
HETATM    3  C9  UNL     1       3.321   8.434   1.023  1.00  0.00     0.000 C 
BRANCH   3   4
HETATM    4  C8  UNL     1       2.098   7.812   0.404  1.00  0.00     0.000 C 
BRANCH   4   5
HETATM    5  C7  UNL     1       0.899   8.640   0.710  1.00  0.00     0.000 C 
BRANCH   5   6
HETATM    6  C6  UNL     1       0.594   8.638   2.224  1.00  0.00     0.005 C 
BRANCH   6   7
HETATM    7  C5  UNL     1       0.199  10.071   2.541  1.00  0.00     0.038 C 
BRANCH   7   8
HETATM    8  C4  UNL     1       1.329  10.829   3.129  1.00  0.00    -0.058 A 
HETATM    9  C3  UNL     1       1.798  11.998   2.614  1.00  0.00     0.007 A 
HETATM   10  C2  UNL     1       2.841  12.675   3.181  1.00  0.00     0.001 A 
HETATM   11  C1  UNL     1       3.426  12.133   4.321  1.00  0.00     0.000 A 
HETATM   12  C23 UNL     1       2.970  10.966   4.849  1.00  0.00     0.001 A 
HETATM   13  C22 UNL     1       1.917  10.301   4.261  1.00  0.00     0.007 A 
ENDBRANCH   7   8
ENDBRANCH   6   7
ENDBRANCH   5   6
ENDBRANCH   4   5
ENDBRANCH   3   4
ENDBRANCH   2   3
ENDBRANCH   1   2
BRANCH   1  14
HETATM   14  C12 UNL     1       5.293   9.722   2.220  1.00  0.00     0.002 C 
BRANCH  14  15
HETATM   15  C13 UNL     1       6.619  10.308   2.735  1.00  0.00     0.027 C 
BRANCH  15  16
HETATM   16  C14 UNL     1       7.623   9.183   2.727  1.00  0.00     0.232 C 
BRANCH  16  17
HETATM   17  N1  UNL     1       8.142   8.900   1.423  1.00  0.00    -0.071 N 
ATOM     18  H12 UNL     1       7.665   9.455   0.713  1.00  0.00     0.277 HD
ATOM     19  H11 UNL     1       9.087   9.272   1.318  1.00  0.00     0.277 HD
BRANCH  17  20
HETATM   20  C15 UNL     1       8.102   7.491   1.094  1.00  0.00     0.270 C 
BRANCH  20  21
HETATM   21  C16 UNL     1       7.037   7.194   0.100  1.00  0.00    -0.033 A 
HETATM   22  C17 UNL     1       6.234   6.080   0.247  1.00  0.00     0.009 A 
HETATM   23  C18 UNL     1       5.233   5.772  -0.657  1.00  0.00     0.001 A 
HETATM   24  C19 UNL     1       4.998   6.574  -1.752  1.00  0.00     0.000 A 
HETATM   25  C20 UNL     1       5.792   7.690  -1.912  1.00  0.00     0.001 A 
HETATM   26  C21 UNL     1       6.789   7.989  -1.004  1.00  0.00     0.009 A 
ENDBRANCH  20  21
ENDBRANCH  17  20
ENDBRANCH  16  17
ENDBRANCH  15  16
ENDBRANCH  14  15
ENDBRANCH   1  14
TORSDOF 13
ENDMDL
