MODEL 1
REMARK VINA RESULT: -6.434019228      0.000      0.000
REMARK  6 active torsions:
REMARK  status: ('A' for Active; 'I' for Inactive)
REMARK    1  A    between atoms: N1_1  and  C1_4 
REMARK    2  A    between atoms: C2_7  and  N3_8 
REMARK    3  A    between atoms: N3_8  and  N4_10 
REMARK    4  A    between atoms: N6_18  and  S1_20 
REMARK    5  A    between atoms: S1_20  and  C5_23 
REMARK    6  A    between atoms: C5_23  and  N7_24 
ROOT
HETATM    1  C1  UNL     1      19.780  67.469  32.382  1.00  0.00     0.692 C 
HETATM    2  N2  UNL     1      20.094  67.375  33.700  1.00  0.00    -0.021 N 
ATOM      3  H2  UNL     1      20.997  66.949  33.910  1.00  0.00     0.203 HD
HETATM    4  C2  UNL     1      19.371  67.769  34.766  1.00  0.00     0.713 C 
HETATM    5  N5  UNL     1      18.075  68.178  34.775  1.00  0.00    -0.151 N 
ATOM      6  H5  UNL     1      17.660  68.322  35.696  1.00  0.00     0.188 HD
HETATM    7  C3  UNL     1      17.255  68.422  33.708  1.00  0.00     0.305 C 
HETATM    8  O1  UNL     1      16.018  68.390  33.907  1.00  0.00    -0.263 OA
HETATM    9  C4  UNL     1      17.646  68.701  32.424  1.00  0.00     0.199 C 
HETATM   10  N6  UNL     1      17.038  69.561  31.757  1.00  0.00    -0.263 N 
ATOM     11  H6  UNL     1      17.437  69.661  30.823  1.00  0.00     0.180 HD
HETATM   12  N8  UNL     1      18.717  68.074  31.809  1.00  0.00    -0.170 N 
ATOM     13  H8  UNL     1      18.701  68.068  30.789  1.00  0.00     0.186 HD
ENDROOT
BRANCH  10  14
HETATM   14  S1  UNL     1      15.748  70.591  31.983  1.00  0.00     0.256 S 
HETATM   15  O2  UNL     1      15.742  71.298  33.330  1.00  0.00    -0.204 OA
HETATM   16  O3  UNL     1      15.767  71.758  30.971  1.00  0.00    -0.204 OA
BRANCH  14  17
HETATM   17  C5  UNL     1      14.172  69.814  31.726  1.00  0.00     0.392 C 
BRANCH  17  18
HETATM   18  N7  UNL     1      13.423  69.664  32.928  1.00  0.00    -0.065 N 
ATOM     19  H73 UNL     1      13.732  68.844  33.450  1.00  0.00     0.275 HD
ATOM     20  H72 UNL     1      13.666  70.391  33.602  1.00  0.00     0.275 HD
ATOM     21  H71 UNL     1      12.416  69.637  32.769  1.00  0.00     0.275 HD
ENDBRANCH  17  18
ENDBRANCH  14  17
ENDBRANCH  10  14
BRANCH   1  22
HETATM   22  N1  UNL     1      20.577  66.923  31.540  1.00  0.00    -0.234 N 
ATOM     23  H12 UNL     1      20.787  65.947  31.749  1.00  0.00     0.174 HD
ATOM     24  H11 UNL     1      20.913  67.496  30.767  1.00  0.00     0.174 HD
ENDBRANCH   1  22
BRANCH   4  25
HETATM   25  N3  UNL     1      19.942  67.768  35.910  1.00  0.00    -0.138 N 
ATOM     26  H3  UNL     1      19.960  66.892  36.432  1.00  0.00     0.205 HD
BRANCH  25  27
HETATM   27  N4  UNL     1      20.539  68.878  36.487  1.00  0.00    -0.331 N 
ATOM     28  H42 UNL     1      21.135  69.445  35.883  1.00  0.00     0.177 HD
ATOM     29  H41 UNL     1      20.420  69.155  37.461  1.00  0.00     0.177 HD
ENDBRANCH  25  27
ENDBRANCH   4  25
TORSDOF 6
ENDMDL
MODEL 2
REMARK VINA RESULT: -6.380454049      1.452      1.578
REMARK  6 active torsions:
REMARK  status: ('A' for Active; 'I' for Inactive)
REMARK    1  A    between atoms: N1_1  and  C1_4 
REMARK    2  A    between atoms: C2_7  and  N3_8 
REMARK    3  A    between atoms: N3_8  and  N4_10 
REMARK    4  A    between atoms: N6_18  and  S1_20 
REMARK    5  A    between atoms: S1_20  and  C5_23 
REMARK    6  A    between atoms: C5_23  and  N7_24 
ROOT
HETATM    1  C1  UNL     1      19.571  67.379  31.901  1.00  0.00     0.692 C 
HETATM    2  N2  UNL     1      19.637  67.532  33.249  1.00  0.00    -0.021 N 
ATOM      3  H2  UNL     1      20.442  67.103  33.705  1.00  0.00     0.203 HD
HETATM    4  C2  UNL     1      18.778  68.176  34.064  1.00  0.00     0.713 C 
HETATM    5  N5  UNL     1      17.547  68.657  33.747  1.00  0.00    -0.151 N 
ATOM      6  H5  UNL     1      16.992  69.008  34.528  1.00  0.00     0.188 HD
HETATM    7  C3  UNL     1      16.956  68.731  32.516  1.00  0.00     0.305 C 
HETATM    8  O1  UNL     1      15.706  68.814  32.475  1.00  0.00    -0.263 OA
HETATM    9  C4  UNL     1      17.593  68.722  31.302  1.00  0.00     0.199 C 
HETATM   10  N6  UNL     1      17.200  69.466  30.382  1.00  0.00    -0.263 N 
ATOM     11  H6  UNL     1      17.765  69.352  29.541  1.00  0.00     0.180 HD
HETATM   12  N8  UNL     1      18.690  67.920  31.032  1.00  0.00    -0.170 N 
ATOM     13  H8  UNL     1      18.854  67.711  30.047  1.00  0.00     0.186 HD
ENDROOT
BRANCH  10  14
HETATM   14  S1  UNL     1      15.996  70.597  30.160  1.00  0.00     0.256 S 
HETATM   15  O2  UNL     1      15.947  71.675  31.233  1.00  0.00    -0.204 OA
HETATM   16  O3  UNL     1      16.205  71.402  28.859  1.00  0.00    -0.204 OA
BRANCH  14  17
HETATM   17  C5  UNL     1      14.381  69.881  29.978  1.00  0.00     0.392 C 
BRANCH  17  18
HETATM   18  N7  UNL     1      14.421  68.490  29.678  1.00  0.00    -0.065 N 
ATOM     19  H73 UNL     1      14.875  67.968  30.428  1.00  0.00     0.275 HD
ATOM     20  H72 UNL     1      13.489  68.078  29.729  1.00  0.00     0.275 HD
ATOM     21  H71 UNL     1      14.858  68.289  28.779  1.00  0.00     0.275 HD
ENDBRANCH  17  18
ENDBRANCH  14  17
ENDBRANCH  10  14
BRANCH   1  22
HETATM   22  N1  UNL     1      20.447  66.627  31.345  1.00  0.00    -0.234 N 
ATOM     23  H12 UNL     1      21.409  66.908  31.537  1.00  0.00     0.174 HD
ATOM     24  H11 UNL     1      20.111  65.846  30.783  1.00  0.00     0.174 HD
ENDBRANCH   1  22
BRANCH   4  25
HETATM   25  N3  UNL     1      19.135  68.370  35.276  1.00  0.00    -0.138 N 
ATOM     26  H3  UNL     1      18.409  68.600  35.955  1.00  0.00     0.205 HD
BRANCH  25  27
HETATM   27  N4  UNL     1      20.442  68.288  35.729  1.00  0.00    -0.331 N 
ATOM     28  H42 UNL     1      21.045  69.089  35.541  1.00  0.00     0.177 HD
ATOM     29  H41 UNL     1      20.829  67.488  36.230  1.00  0.00     0.177 HD
ENDBRANCH  25  27
ENDBRANCH   4  25
TORSDOF 6
ENDMDL
MODEL 3
REMARK VINA RESULT: -6.183266005      6.237      7.929
REMARK  6 active torsions:
REMARK  status: ('A' for Active; 'I' for Inactive)
REMARK    1  A    between atoms: N1_1  and  C1_4 
REMARK    2  A    between atoms: C2_7  and  N3_8 
REMARK    3  A    between atoms: N3_8  and  N4_10 
REMARK    4  A    between atoms: N6_18  and  S1_20 
REMARK    5  A    between atoms: S1_20  and  C5_23 
REMARK    6  A    between atoms: C5_23  and  N7_24 
ROOT
HETATM    1  C1  UNL     1      14.206  64.939  38.535  1.00  0.00     0.692 C 
HETATM    2  N2  UNL     1      14.383  63.820  39.285  1.00  0.00    -0.021 N 
ATOM      3  H2  UNL     1      13.540  63.284  39.486  1.00  0.00     0.203 HD
HETATM    4  C2  UNL     1      15.527  63.326  39.798  1.00  0.00     0.713 C 
HETATM    5  N5  UNL     1      16.740  63.938  39.844  1.00  0.00    -0.151 N 
ATOM      6  H5  UNL     1      17.461  63.456  40.380  1.00  0.00     0.188 HD
HETATM    7  C3  UNL     1      17.118  65.117  39.263  1.00  0.00     0.305 C 
HETATM    8  O1  UNL     1      18.114  65.707  39.742  1.00  0.00    -0.263 OA
HETATM    9  C4  UNL     1      16.514  65.734  38.198  1.00  0.00     0.199 C 
HETATM   10  N6  UNL     1      17.205  66.284  37.318  1.00  0.00    -0.263 N 
ATOM     11  H6  UNL     1      16.623  66.700  36.592  1.00  0.00     0.180 HD
HETATM   12  N8  UNL     1      15.140  65.774  38.030  1.00  0.00    -0.170 N 
ATOM     13  H8  UNL     1      14.786  66.533  37.448  1.00  0.00     0.186 HD
ENDROOT
BRANCH  10  14
HETATM   14  S1  UNL     1      18.826  66.519  37.012  1.00  0.00     0.256 S 
HETATM   15  O2  UNL     1      19.572  67.246  38.121  1.00  0.00    -0.204 OA
HETATM   16  O3  UNL     1      19.584  65.178  36.897  1.00  0.00    -0.204 OA
BRANCH  14  17
HETATM   17  C5  UNL     1      19.141  67.335  35.466  1.00  0.00     0.392 C 
BRANCH  17  18
HETATM   18  N7  UNL     1      20.301  68.160  35.500  1.00  0.00    -0.065 N 
ATOM     19  H73 UNL     1      20.137  68.996  36.060  1.00  0.00     0.275 HD
ATOM     20  H72 UNL     1      21.040  67.729  36.055  1.00  0.00     0.275 HD
ATOM     21  H71 UNL     1      20.641  68.406  34.570  1.00  0.00     0.275 HD
ENDBRANCH  17  18
ENDBRANCH  14  17
ENDBRANCH  10  14
BRANCH   1  22
HETATM   22  N1  UNL     1      13.004  65.278  38.248  1.00  0.00    -0.234 N 
ATOM     23  H12 UNL     1      12.683  66.109  38.744  1.00  0.00     0.174 HD
ATOM     24  H11 UNL     1      12.499  64.703  37.573  1.00  0.00     0.174 HD
ENDBRANCH   1  22
BRANCH   4  25
HETATM   25  N3  UNL     1      15.498  62.153  40.304  1.00  0.00    -0.138 N 
ATOM     26  H3  UNL     1      16.017  61.415  39.827  1.00  0.00     0.205 HD
BRANCH  25  27
HETATM   27  N4  UNL     1      14.808  61.816  41.458  1.00  0.00    -0.331 N 
ATOM     28  H42 UNL     1      13.986  62.377  41.682  1.00  0.00     0.177 HD
ATOM     29  H41 UNL     1      15.069  61.054  42.084  1.00  0.00     0.177 HD
ENDBRANCH  25  27
ENDBRANCH   4  25
TORSDOF 6
ENDMDL
MODEL 4
REMARK VINA RESULT: -6.128593646      3.260      5.930
REMARK  6 active torsions:
REMARK  status: ('A' for Active; 'I' for Inactive)
REMARK    1  A    between atoms: N1_1  and  C1_4 
REMARK    2  A    between atoms: C2_7  and  N3_8 
REMARK    3  A    between atoms: N3_8  and  N4_10 
REMARK    4  A    between atoms: N6_18  and  S1_20 
REMARK    5  A    between atoms: S1_20  and  C5_23 
REMARK    6  A    between atoms: C5_23  and  N7_24 
ROOT
HETATM    1  C1  UNL     1      14.565  68.322  34.420  1.00  0.00     0.692 C 
HETATM    2  N2  UNL     1      14.870  69.386  33.632  1.00  0.00    -0.021 N 
ATOM      3  H2  UNL     1      14.074  69.885  33.234  1.00  0.00     0.203 HD
HETATM    4  C2  UNL     1      16.086  69.868  33.307  1.00  0.00     0.713 C 
HETATM    5  N5  UNL     1      17.291  69.284  33.539  1.00  0.00    -0.151 N 
ATOM      6  H5  UNL     1      18.096  69.743  33.112  1.00  0.00     0.188 HD
HETATM    7  C3  UNL     1      17.564  68.161  34.270  1.00  0.00     0.305 C 
HETATM    8  O1  UNL     1      18.638  67.561  34.035  1.00  0.00    -0.263 OA
HETATM    9  C4  UNL     1      16.774  67.611  35.247  1.00  0.00     0.199 C 
HETATM   10  N6  UNL     1      17.291  67.145  36.281  1.00  0.00    -0.263 N 
ATOM     11  H6  UNL     1      16.586  66.770  36.915  1.00  0.00     0.180 HD
HETATM   12  N8  UNL     1      15.394  67.550  35.155  1.00  0.00    -0.170 N 
ATOM     13  H8  UNL     1      14.944  66.827  35.717  1.00  0.00     0.186 HD
ENDROOT
BRANCH  10  14
HETATM   14  S1  UNL     1      18.827  66.973  36.905  1.00  0.00     0.256 S 
HETATM   15  O2  UNL     1      18.884  66.217  38.224  1.00  0.00    -0.204 OA
HETATM   16  O3  UNL     1      19.727  66.131  35.975  1.00  0.00    -0.204 OA
BRANCH  14  17
HETATM   17  C5  UNL     1      19.694  68.513  37.078  1.00  0.00     0.392 C 
BRANCH  17  18
HETATM   18  N7  UNL     1      20.659  68.725  36.053  1.00  0.00    -0.065 N 
ATOM     19  H73 UNL     1      21.409  69.336  36.378  1.00  0.00     0.275 HD
ATOM     20  H72 UNL     1      21.199  67.877  35.878  1.00  0.00     0.275 HD
ATOM     21  H71 UNL     1      20.250  69.080  35.189  1.00  0.00     0.275 HD
ENDBRANCH  17  18
ENDBRANCH  14  17
ENDBRANCH  10  14
BRANCH   1  22
HETATM   22  N1  UNL     1      13.333  67.976  34.500  1.00  0.00    -0.234 N 
ATOM     23  H12 UNL     1      13.087  67.194  33.894  1.00  0.00     0.174 HD
ATOM     24  H11 UNL     1      12.736  68.499  35.141  1.00  0.00     0.174 HD
ENDBRANCH   1  22
BRANCH   4  25
HETATM   25  N3  UNL     1      16.141  71.000  32.715  1.00  0.00    -0.138 N 
ATOM     26  H3  UNL     1      15.845  71.825  33.236  1.00  0.00     0.205 HD
BRANCH  25  27
HETATM   27  N4  UNL     1      16.577  71.180  31.411  1.00  0.00    -0.331 N 
ATOM     28  H42 UNL     1      17.060  70.393  30.976  1.00  0.00     0.177 HD
ATOM     29  H41 UNL     1      16.444  72.035  30.873  1.00  0.00     0.177 HD
ENDBRANCH  25  27
ENDBRANCH   4  25
TORSDOF 6
ENDMDL
MODEL 5
REMARK VINA RESULT: -6.127346023      6.520      8.283
REMARK  6 active torsions:
REMARK  status: ('A' for Active; 'I' for Inactive)
REMARK    1  A    between atoms: N1_1  and  C1_4 
REMARK    2  A    between atoms: C2_7  and  N3_8 
REMARK    3  A    between atoms: N3_8  and  N4_10 
REMARK    4  A    between atoms: N6_18  and  S1_20 
REMARK    5  A    between atoms: S1_20  and  C5_23 
REMARK    6  A    between atoms: C5_23  and  N7_24 
ROOT
HETATM    1  C1  UNL     1      13.886  64.880  39.123  1.00  0.00     0.692 C 
HETATM    2  N2  UNL     1      14.106  63.688  39.736  1.00  0.00    -0.021 N 
ATOM      3  H2  UNL     1      13.271  63.159  39.988  1.00  0.00     0.203 HD
HETATM    4  C2  UNL     1      15.282  63.113  40.055  1.00  0.00     0.713 C 
HETATM    5  N5  UNL     1      16.516  63.683  40.009  1.00  0.00    -0.151 N 
ATOM      6  H5  UNL     1      17.276  63.129  40.405  1.00  0.00     0.188 HD
HETATM    7  C3  UNL     1      16.869  64.902  39.501  1.00  0.00     0.305 C 
HETATM    8  O1  UNL     1      17.938  65.413  39.907  1.00  0.00    -0.263 OA
HETATM    9  C4  UNL     1      16.167  65.638  38.582  1.00  0.00     0.199 C 
HETATM   10  N6  UNL     1      16.769  66.253  37.679  1.00  0.00    -0.263 N 
ATOM     11  H6  UNL     1      16.122  66.755  37.073  1.00  0.00     0.180 HD
HETATM   12  N8  UNL     1      14.785  65.733  38.589  1.00  0.00    -0.170 N 
ATOM     13  H8  UNL     1      14.395  66.557  38.129  1.00  0.00     0.186 HD
ENDROOT
BRANCH  10  14
HETATM   14  S1  UNL     1      18.350  66.470  37.200  1.00  0.00     0.256 S 
HETATM   15  O2  UNL     1      19.157  65.184  37.105  1.00  0.00    -0.204 OA
HETATM   16  O3  UNL     1      18.436  67.048  35.770  1.00  0.00    -0.204 OA
BRANCH  14  17
HETATM   17  C5  UNL     1      19.235  67.642  38.199  1.00  0.00     0.392 C 
BRANCH  17  18
HETATM   18  N7  UNL     1      20.234  68.349  37.472  1.00  0.00    -0.065 N 
ATOM     19  H73 UNL     1      21.094  68.427  38.015  1.00  0.00     0.275 HD
ATOM     20  H72 UNL     1      20.580  67.792  36.691  1.00  0.00     0.275 HD
ATOM     21  H71 UNL     1      19.920  69.266  37.154  1.00  0.00     0.275 HD
ENDBRANCH  17  18
ENDBRANCH  14  17
ENDBRANCH  10  14
BRANCH   1  22
HETATM   22  N1  UNL     1      12.672  65.280  39.020  1.00  0.00    -0.234 N 
ATOM     23  H12 UNL     1      12.060  64.924  39.755  1.00  0.00     0.174 HD
ATOM     24  H11 UNL     1      12.442  65.895  38.241  1.00  0.00     0.174 HD
ENDBRANCH   1  22
BRANCH   4  25
HETATM   25  N3  UNL     1      15.266  61.896  40.448  1.00  0.00    -0.138 N 
ATOM     26  H3  UNL     1      15.588  61.181  39.795  1.00  0.00     0.205 HD
BRANCH  25  27
HETATM   27  N4  UNL     1      14.841  61.484  41.701  1.00  0.00    -0.331 N 
ATOM     28  H42 UNL     1      14.319  62.163  42.255  1.00  0.00     0.177 HD
ATOM     29  H41 UNL     1      15.017  60.560  42.094  1.00  0.00     0.177 HD
ENDBRANCH  25  27
ENDBRANCH   4  25
TORSDOF 6
ENDMDL
