MODEL 1
REMARK VINA RESULT: -6.106391472      0.000      0.000
REMARK  5 active torsions:
REMARK  status: ('A' for Active; 'I' for Inactive)
REMARK    1  A    between atoms: N1_1  and  C1_4 
REMARK    2  A    between atoms: C2_7  and  S1_8 
REMARK    3  A    between atoms: S1_8  and  N3_9 
REMARK    4  A    between atoms: C3_14  and  S2_15 
REMARK    5  A    between atoms: S2_15  and  N4_16 
ROOT
HETATM    1  C1  UNL     1      15.605  67.649  35.437  1.00  0.00     0.679 A 
HETATM    2  N2  UNL     1      16.920  67.486  35.596  1.00  0.00    -0.178 N 
ATOM      3  H2  UNL     1      17.544  67.900  34.902  1.00  0.00     0.185 HD
HETATM    4  C2  UNL     1      17.478  66.795  36.639  1.00  0.00     0.193 A 
HETATM    5  C3  UNL     1      16.630  66.252  37.553  1.00  0.00     0.188 A 
HETATM    6  C4  UNL     1      15.250  66.422  37.387  1.00  0.00     0.286 A 
HETATM    7  O5  UNL     1      14.461  65.923  38.227  1.00  0.00    -0.266 OA
HETATM    8  N5  UNL     1      14.772  67.108  36.345  1.00  0.00    -0.155 N 
ATOM      9  H5  UNL     1      13.764  67.223  36.236  1.00  0.00     0.187 HD
ENDROOT
BRANCH   4  10
HETATM   10  S1  UNL     1      19.189  66.610  36.790  1.00  0.00     0.274 S 
HETATM   11  O1  UNL     1      19.686  65.216  36.748  1.00  0.00    -0.199 OA
HETATM   12  O2  UNL     1      19.779  67.252  35.517  1.00  0.00    -0.199 OA
BRANCH  10  13
HETATM   13  N3  UNL     1      19.879  67.564  38.066  1.00  0.00    -0.323 N 
ATOM     14  H32 UNL     1      19.318  67.946  38.827  1.00  0.00     0.169 HD
ATOM     15  H31 UNL     1      20.886  67.699  37.974  1.00  0.00     0.169 HD
ENDBRANCH  10  13
ENDBRANCH   4  10
BRANCH   5  16
HETATM   16  S2  UNL     1      17.171  65.370  38.914  1.00  0.00     0.265 S 
HETATM   17  O3  UNL     1      17.482  63.948  38.482  1.00  0.00    -0.200 OA
HETATM   18  O4  UNL     1      18.255  65.934  39.726  1.00  0.00    -0.200 OA
BRANCH  16  19
HETATM   19  N4  UNL     1      15.805  65.221  40.006  1.00  0.00    -0.324 N 
ATOM     20  H42 UNL     1      15.621  65.817  40.814  1.00  0.00     0.169 HD
ATOM     21  H41 UNL     1      15.244  64.436  39.678  1.00  0.00     0.169 HD
ENDBRANCH  16  19
ENDBRANCH   5  16
BRANCH   1  22
HETATM   22  N1  UNL     1      15.103  68.305  34.443  1.00  0.00    -0.234 N 
ATOM     23  H12 UNL     1      15.615  68.330  33.562  1.00  0.00     0.174 HD
ATOM     24  H11 UNL     1      14.214  68.800  34.508  1.00  0.00     0.174 HD
ENDBRANCH   1  22
TORSDOF 5
ENDMDL
MODEL 2
REMARK VINA RESULT: -5.850232791      2.015      4.116
REMARK  5 active torsions:
REMARK  status: ('A' for Active; 'I' for Inactive)
REMARK    1  A    between atoms: N1_1  and  C1_4 
REMARK    2  A    between atoms: C2_7  and  S1_8 
REMARK    3  A    between atoms: S1_8  and  N3_9 
REMARK    4  A    between atoms: C3_14  and  S2_15 
REMARK    5  A    between atoms: S2_15  and  N4_16 
ROOT
HETATM    1  C1  UNL     1      14.966  67.916  34.914  1.00  0.00     0.679 A 
HETATM    2  N2  UNL     1      15.510  67.458  36.043  1.00  0.00    -0.178 N 
ATOM      3  H2  UNL     1      14.887  67.213  36.813  1.00  0.00     0.185 HD
HETATM    4  C2  UNL     1      16.859  67.298  36.225  1.00  0.00     0.193 A 
HETATM    5  C3  UNL     1      17.672  67.628  35.187  1.00  0.00     0.188 A 
HETATM    6  C4  UNL     1      17.102  68.109  34.001  1.00  0.00     0.286 A 
HETATM    7  O5  UNL     1      17.847  68.416  33.038  1.00  0.00    -0.266 OA
HETATM    8  N5  UNL     1      15.778  68.242  33.891  1.00  0.00    -0.155 N 
ATOM      9  H5  UNL     1      15.376  68.594  33.022  1.00  0.00     0.187 HD
ENDROOT
BRANCH   4  10
HETATM   10  S1  UNL     1      17.508  66.707  37.713  1.00  0.00     0.274 S 
HETATM   11  O1  UNL     1      18.402  67.640  38.434  1.00  0.00    -0.199 OA
HETATM   12  O2  UNL     1      16.293  66.557  38.653  1.00  0.00    -0.199 OA
BRANCH  10  13
HETATM   13  N3  UNL     1      18.122  65.086  37.606  1.00  0.00    -0.323 N 
ATOM     14  H32 UNL     1      18.637  64.645  38.368  1.00  0.00     0.169 HD
ATOM     15  H31 UNL     1      17.916  64.630  36.716  1.00  0.00     0.169 HD
ENDBRANCH  10  13
ENDBRANCH   4  10
BRANCH   5  16
HETATM   16  S2  UNL     1      19.374  67.475  35.254  1.00  0.00     0.265 S 
HETATM   17  O3  UNL     1      19.949  68.710  35.924  1.00  0.00    -0.200 OA
HETATM   18  O4  UNL     1      19.943  66.246  35.815  1.00  0.00    -0.200 OA
BRANCH  16  19
HETATM   19  N4  UNL     1      19.962  67.543  33.601  1.00  0.00    -0.324 N 
ATOM     20  H42 UNL     1      20.941  67.586  33.319  1.00  0.00     0.169 HD
ATOM     21  H41 UNL     1      19.144  67.532  32.992  1.00  0.00     0.169 HD
ENDBRANCH  16  19
ENDBRANCH   5  16
BRANCH   1  22
HETATM   22  N1  UNL     1      13.691  68.059  34.768  1.00  0.00    -0.234 N 
ATOM     23  H12 UNL     1      13.178  68.625  35.445  1.00  0.00     0.174 HD
ATOM     24  H11 UNL     1      13.176  67.627  34.001  1.00  0.00     0.174 HD
ENDBRANCH   1  22
TORSDOF 5
ENDMDL
MODEL 3
REMARK VINA RESULT: -5.670154402      1.675      3.804
REMARK  5 active torsions:
REMARK  status: ('A' for Active; 'I' for Inactive)
REMARK    1  A    between atoms: N1_1  and  C1_4 
REMARK    2  A    between atoms: C2_7  and  S1_8 
REMARK    3  A    between atoms: S1_8  and  N3_9 
REMARK    4  A    between atoms: C3_14  and  S2_15 
REMARK    5  A    between atoms: S2_15  and  N4_16 
ROOT
HETATM    1  C1  UNL     1      14.970  67.239  36.316  1.00  0.00     0.679 A 
HETATM    2  N2  UNL     1      15.934  66.798  37.127  1.00  0.00    -0.178 N 
ATOM      3  H2  UNL     1      15.660  66.369  38.011  1.00  0.00     0.185 HD
HETATM    4  C2  UNL     1      17.270  66.889  36.836  1.00  0.00     0.193 A 
HETATM    5  C3  UNL     1      17.614  67.463  35.653  1.00  0.00     0.188 A 
HETATM    6  C4  UNL     1      16.603  67.927  34.802  1.00  0.00     0.286 A 
HETATM    7  O5  UNL     1      16.914  68.458  33.707  1.00  0.00    -0.266 OA
HETATM    8  N5  UNL     1      15.319  67.807  35.147  1.00  0.00    -0.155 N 
ATOM      9  H5  UNL     1      14.593  68.150  34.517  1.00  0.00     0.187 HD
ENDROOT
BRANCH   4  10
HETATM   10  S1  UNL     1      18.475  66.306  37.929  1.00  0.00     0.274 S 
HETATM   11  O1  UNL     1      17.967  65.776  39.214  1.00  0.00    -0.199 OA
HETATM   12  O2  UNL     1      19.087  65.071  37.235  1.00  0.00    -0.199 OA
BRANCH  10  13
HETATM   13  N3  UNL     1      19.834  67.374  38.095  1.00  0.00    -0.323 N 
ATOM     14  H32 UNL     1      20.787  67.032  38.217  1.00  0.00     0.169 HD
ATOM     15  H31 UNL     1      19.582  68.363  38.060  1.00  0.00     0.169 HD
ENDBRANCH  10  13
ENDBRANCH   4  10
BRANCH   5  16
HETATM   16  S2  UNL     1      19.236  67.641  35.143  1.00  0.00     0.265 S 
HETATM   17  O3  UNL     1      19.804  68.909  35.754  1.00  0.00    -0.200 OA
HETATM   18  O4  UNL     1      20.151  66.507  35.314  1.00  0.00    -0.200 OA
BRANCH  16  19
HETATM   19  N4  UNL     1      19.201  67.948  33.415  1.00  0.00    -0.324 N 
ATOM     20  H42 UNL     1      18.408  68.319  32.892  1.00  0.00     0.169 HD
ATOM     21  H41 UNL     1      20.115  67.685  33.046  1.00  0.00     0.169 HD
ENDBRANCH  16  19
ENDBRANCH   5  16
BRANCH   1  22
HETATM   22  N1  UNL     1      13.716  67.143  36.613  1.00  0.00    -0.234 N 
ATOM     23  H12 UNL     1      13.023  67.385  35.906  1.00  0.00     0.174 HD
ATOM     24  H11 UNL     1      13.394  66.836  37.531  1.00  0.00     0.174 HD
ENDBRANCH   1  22
TORSDOF 5
ENDMDL
MODEL 4
REMARK VINA RESULT: -5.650452131      1.444      3.777
REMARK  5 active torsions:
REMARK  status: ('A' for Active; 'I' for Inactive)
REMARK    1  A    between atoms: N1_1  and  C1_4 
REMARK    2  A    between atoms: C2_7  and  S1_8 
REMARK    3  A    between atoms: S1_8  and  N3_9 
REMARK    4  A    between atoms: C3_14  and  S2_15 
REMARK    5  A    between atoms: S2_15  and  N4_16 
ROOT
HETATM    1  C1  UNL     1      15.541  68.123  34.788  1.00  0.00     0.679 A 
HETATM    2  N2  UNL     1      15.040  67.429  35.813  1.00  0.00    -0.178 N 
ATOM      3  H2  UNL     1      14.026  67.399  35.924  1.00  0.00     0.185 HD
HETATM    4  C2  UNL     1      15.812  66.756  36.723  1.00  0.00     0.193 A 
HETATM    5  C3  UNL     1      17.160  66.808  36.557  1.00  0.00     0.188 A 
HETATM    6  C4  UNL     1      17.687  67.536  35.482  1.00  0.00     0.286 A 
HETATM    7  O5  UNL     1      18.931  67.589  35.323  1.00  0.00    -0.266 OA
HETATM    8  N5  UNL     1      16.876  68.171  34.632  1.00  0.00    -0.155 N 
ATOM      9  H5  UNL     1      17.274  68.698  33.854  1.00  0.00     0.187 HD
ENDROOT
BRANCH   4  10
HETATM   10  S1  UNL     1      15.108  65.880  38.034  1.00  0.00     0.274 S 
HETATM   11  O1  UNL     1      15.583  66.261  39.384  1.00  0.00    -0.199 OA
HETATM   12  O2  UNL     1      13.618  66.285  38.038  1.00  0.00    -0.199 OA
BRANCH  10  13
HETATM   13  N3  UNL     1      15.047  64.165  37.769  1.00  0.00    -0.323 N 
ATOM     14  H32 UNL     1      14.669  63.757  36.913  1.00  0.00     0.169 HD
ATOM     15  H31 UNL     1      15.422  63.619  38.545  1.00  0.00     0.169 HD
ENDBRANCH  10  13
ENDBRANCH   4  10
BRANCH   5  16
HETATM   16  S2  UNL     1      18.257  66.014  37.602  1.00  0.00     0.265 S 
HETATM   17  O3  UNL     1      18.680  66.982  38.692  1.00  0.00    -0.200 OA
HETATM   18  O4  UNL     1      17.873  64.713  38.158  1.00  0.00    -0.200 OA
BRANCH  16  19
HETATM   19  N4  UNL     1      19.717  65.708  36.677  1.00  0.00    -0.324 N 
ATOM     20  H42 UNL     1      19.753  65.345  35.724  1.00  0.00     0.169 HD
ATOM     21  H41 UNL     1      20.506  65.960  37.272  1.00  0.00     0.169 HD
ENDBRANCH  16  19
ENDBRANCH   5  16
BRANCH   1  22
HETATM   22  N1  UNL     1      14.791  68.750  33.944  1.00  0.00    -0.234 N 
ATOM     23  H12 UNL     1      13.780  68.620  33.991  1.00  0.00     0.174 HD
ATOM     24  H11 UNL     1      15.172  69.371  33.230  1.00  0.00     0.174 HD
ENDBRANCH   1  22
TORSDOF 5
ENDMDL
MODEL 5
REMARK VINA RESULT: -5.509303650      2.976      4.484
REMARK  5 active torsions:
REMARK  status: ('A' for Active; 'I' for Inactive)
REMARK    1  A    between atoms: N1_1  and  C1_4 
REMARK    2  A    between atoms: C2_7  and  S1_8 
REMARK    3  A    between atoms: S1_8  and  N3_9 
REMARK    4  A    between atoms: C3_14  and  S2_15 
REMARK    5  A    between atoms: S2_15  and  N4_16 
ROOT
HETATM    1  C1  UNL     1      19.153  67.781  35.572  1.00  0.00     0.679 A 
HETATM    2  N2  UNL     1      18.224  68.219  34.719  1.00  0.00    -0.178 N 
ATOM      3  H2  UNL     1      18.529  68.760  33.909  1.00  0.00     0.185 HD
HETATM    4  C2  UNL     1      16.883  67.981  34.871  1.00  0.00     0.193 A 
HETATM    5  C3  UNL     1      16.495  67.258  35.955  1.00  0.00     0.188 A 
HETATM    6  C4  UNL     1      17.470  66.798  36.851  1.00  0.00     0.286 A 
HETATM    7  O5  UNL     1      17.120  66.129  37.854  1.00  0.00    -0.266 OA
HETATM    8  N5  UNL     1      18.762  67.067  36.643  1.00  0.00    -0.155 N 
ATOM      9  H5  UNL     1      19.460  66.726  37.304  1.00  0.00     0.187 HD
ENDROOT
BRANCH   4  10
HETATM   10  S1  UNL     1      15.724  68.579  33.738  1.00  0.00     0.274 S 
HETATM   11  O1  UNL     1      14.732  69.533  34.284  1.00  0.00    -0.199 OA
HETATM   12  O2  UNL     1      16.537  69.424  32.735  1.00  0.00    -0.199 OA
BRANCH  10  13
HETATM   13  N3  UNL     1      15.031  67.341  32.736  1.00  0.00    -0.323 N 
ATOM     14  H32 UNL     1      14.748  67.514  31.772  1.00  0.00     0.169 HD
ATOM     15  H31 UNL     1      14.939  66.441  33.207  1.00  0.00     0.169 HD
ENDBRANCH  10  13
ENDBRANCH   4  10
BRANCH   5  16
HETATM   16  S2  UNL     1      14.862  66.870  36.279  1.00  0.00     0.265 S 
HETATM   17  O3  UNL     1      14.214  68.042  36.994  1.00  0.00    -0.200 OA
HETATM   18  O4  UNL     1      14.027  66.386  35.174  1.00  0.00    -0.200 OA
BRANCH  16  19
HETATM   19  N4  UNL     1      14.867  65.568  37.457  1.00  0.00    -0.324 N 
ATOM     20  H42 UNL     1      15.574  64.837  37.533  1.00  0.00     0.169 HD
ATOM     21  H41 UNL     1      14.038  65.688  38.038  1.00  0.00     0.169 HD
ENDBRANCH  16  19
ENDBRANCH   5  16
BRANCH   1  22
HETATM   22  N1  UNL     1      20.412  68.020  35.407  1.00  0.00    -0.234 N 
ATOM     23  H12 UNL     1      21.021  68.032  36.224  1.00  0.00     0.174 HD
ATOM     24  H11 UNL     1      20.819  68.198  34.489  1.00  0.00     0.174 HD
ENDBRANCH   1  22
TORSDOF 5
ENDMDL
