MODEL 1
REMARK VINA RESULT: -7.726444369      0.000      0.000
REMARK  4 active torsions:
REMARK  status: ('A' for Active; 'I' for Inactive)
REMARK    1  A    between atoms: N1_1  and  N2_4 
REMARK       I    between atoms: N2_4  and  C1_6 
REMARK    2  A    between atoms: C1_6  and  C2_8 
REMARK    3  A    between atoms: C2_8  and  N3_9 
REMARK    4  A    between atoms: C2_8  and  C3_13 
ROOT
HETATM    1  C3  UNL     1      18.959  67.881  34.344  1.00  0.00     0.126 A 
HETATM    2  N4  UNL     1      19.876  67.218  33.591  1.00  0.00    -0.329 N 
ATOM      3  H4  UNL     1      20.701  66.816  34.035  1.00  0.00     0.168 HD
HETATM    4  C4  UNL     1      19.701  67.090  32.264  1.00  0.00     0.132 A 
HETATM    5  N5  UNL     1      20.588  66.440  31.477  1.00  0.00    -0.293 N 
ATOM      6  H5  UNL     1      21.423  66.029  31.893  1.00  0.00     0.172 HD
HETATM    7  C5  UNL     1      20.383  66.328  30.150  1.00  0.00     0.328 A 
HETATM    8  O2  UNL     1      21.232  65.713  29.446  1.00  0.00    -0.247 OA
HETATM    9  N6  UNL     1      19.292  66.856  29.552  1.00  0.00    -0.275 N 
ATOM     10  H6  UNL     1      19.145  66.767  28.546  1.00  0.00     0.173 HD
HETATM   11  C6  UNL     1      18.404  67.505  30.329  1.00  0.00     0.269 A 
HETATM   12  O3  UNL     1      17.362  68.020  29.813  1.00  0.00    -0.267 OA
HETATM   13  C7  UNL     1      18.573  67.644  31.692  1.00  0.00     0.144 A 
HETATM   14  C8  UNL     1      17.631  68.326  32.471  1.00  0.00     0.266 A 
HETATM   15  O4  UNL     1      16.643  68.798  31.891  1.00  0.00    -0.267 OA
HETATM   16  N7  UNL     1      17.863  68.419  33.787  1.00  0.00    -0.310 N 
ATOM     17  H7  UNL     1      17.192  68.910  34.378  1.00  0.00     0.170 HD
ENDROOT
BRANCH   1  18
HETATM   18  C2  UNL     1      19.144  68.026  35.808  1.00  0.00     0.343 C 
BRANCH  18  19
HETATM   19  C1  UNL     1      18.940  66.762  36.527  1.00  0.00     0.273 C 
HETATM   20  N2  UNL     1      17.860  66.620  37.421  1.00  0.00    -0.275 N 
ATOM     21  H2  UNL     1      17.232  67.413  37.553  1.00  0.00     0.189 HD
HETATM   22  O1  UNL     1      19.721  65.807  36.350  1.00  0.00    -0.269 OA
BRANCH  20  23
HETATM   23  N1  UNL     1      17.608  65.445  38.138  1.00  0.00    -0.343 N 
ATOM     24  H12 UNL     1      18.393  65.018  38.630  1.00  0.00     0.176 HD
ATOM     25  H11 UNL     1      16.688  65.008  38.188  1.00  0.00     0.176 HD
ENDBRANCH  20  23
ENDBRANCH  18  19
BRANCH  18  26
HETATM   26  N3  UNL     1      20.473  68.569  36.004  1.00  0.00    -0.059 N 
ATOM     27  H33 UNL     1      20.639  68.786  36.987  1.00  0.00     0.275 HD
ATOM     28  H32 UNL     1      21.185  67.851  35.871  1.00  0.00     0.275 HD
ATOM     29  H31 UNL     1      20.655  69.380  35.413  1.00  0.00     0.275 HD
ENDBRANCH  18  26
ENDBRANCH   1  18
TORSDOF 4
ENDMDL
MODEL 2
REMARK VINA RESULT: -7.517505622      1.309      2.743
REMARK  4 active torsions:
REMARK  status: ('A' for Active; 'I' for Inactive)
REMARK    1  A    between atoms: N1_1  and  N2_4 
REMARK       I    between atoms: N2_4  and  C1_6 
REMARK    2  A    between atoms: C1_6  and  C2_8 
REMARK    3  A    between atoms: C2_8  and  N3_9 
REMARK    4  A    between atoms: C2_8  and  C3_13 
ROOT
HETATM    1  C3  UNL     1      18.935  67.900  34.299  1.00  0.00     0.126 A 
HETATM    2  N4  UNL     1      17.781  68.328  33.724  1.00  0.00    -0.329 N 
ATOM      3  H4  UNL     1      17.048  68.739  34.301  1.00  0.00     0.168 HD
HETATM    4  C4  UNL     1      17.599  68.212  32.396  1.00  0.00     0.132 A 
HETATM    5  N5  UNL     1      16.467  68.623  31.782  1.00  0.00    -0.293 N 
ATOM      6  H5  UNL     1      15.717  69.037  32.335  1.00  0.00     0.172 HD
HETATM    7  C5  UNL     1      16.316  68.494  30.450  1.00  0.00     0.328 A 
HETATM    8  O2  UNL     1      15.245  68.890  29.910  1.00  0.00    -0.247 OA
HETATM    9  N6  UNL     1      17.281  67.951  29.674  1.00  0.00    -0.275 N 
ATOM     10  H6  UNL     1      17.158  67.857  28.665  1.00  0.00     0.173 HD
HETATM   11  C6  UNL     1      18.411  67.539  30.278  1.00  0.00     0.269 A 
HETATM   12  O3  UNL     1      19.349  67.021  29.592  1.00  0.00    -0.267 OA
HETATM   13  C7  UNL     1      18.609  67.652  31.640  1.00  0.00     0.144 A 
HETATM   14  C8  UNL     1      19.797  67.213  32.236  1.00  0.00     0.266 A 
HETATM   15  O4  UNL     1      20.661  66.720  31.496  1.00  0.00    -0.267 OA
HETATM   16  N7  UNL     1      19.917  67.356  33.563  1.00  0.00    -0.310 N 
ATOM     17  H7  UNL     1      20.772  67.045  34.023  1.00  0.00     0.170 HD
ENDROOT
BRANCH   1  18
HETATM   18  C2  UNL     1      19.144  68.025  35.761  1.00  0.00     0.343 C 
BRANCH  18  19
HETATM   19  C1  UNL     1      18.935  66.754  36.468  1.00  0.00     0.273 C 
HETATM   20  N2  UNL     1      17.843  66.603  37.347  1.00  0.00    -0.275 N 
ATOM     21  H2  UNL     1      17.211  67.392  37.475  1.00  0.00     0.189 HD
HETATM   22  O1  UNL     1      19.721  65.804  36.295  1.00  0.00    -0.269 OA
BRANCH  20  23
HETATM   23  N1  UNL     1      17.585  65.421  38.051  1.00  0.00    -0.343 N 
ATOM     24  H12 UNL     1      18.389  64.867  38.347  1.00  0.00     0.176 HD
ATOM     25  H11 UNL     1      16.644  65.100  38.276  1.00  0.00     0.176 HD
ENDBRANCH  20  23
ENDBRANCH  18  19
BRANCH  18  26
HETATM   26  N3  UNL     1      20.482  68.548  35.944  1.00  0.00    -0.059 N 
ATOM     27  H33 UNL     1      21.122  68.173  35.243  1.00  0.00     0.275 HD
ATOM     28  H32 UNL     1      20.528  69.537  35.695  1.00  0.00     0.275 HD
ATOM     29  H31 UNL     1      20.838  68.391  36.887  1.00  0.00     0.275 HD
ENDBRANCH  18  26
ENDBRANCH   1  18
TORSDOF 4
ENDMDL
MODEL 3
REMARK VINA RESULT: -7.074257838      3.084      4.226
REMARK  4 active torsions:
REMARK  status: ('A' for Active; 'I' for Inactive)
REMARK    1  A    between atoms: N1_1  and  N2_4 
REMARK       I    between atoms: N2_4  and  C1_6 
REMARK    2  A    between atoms: C1_6  and  C2_8 
REMARK    3  A    between atoms: C2_8  and  N3_9 
REMARK    4  A    between atoms: C2_8  and  C3_13 
ROOT
HETATM    1  C3  UNL     1      16.979  67.899  34.882  1.00  0.00     0.126 A 
HETATM    2  N4  UNL     1      17.492  68.517  33.785  1.00  0.00    -0.329 N 
ATOM      3  H4  UNL     1      18.473  68.387  33.542  1.00  0.00     0.168 HD
HETATM    4  C4  UNL     1      16.711  69.299  33.019  1.00  0.00     0.132 A 
HETATM    5  N5  UNL     1      17.178  69.933  31.919  1.00  0.00    -0.293 N 
ATOM      6  H5  UNL     1      18.157  69.823  31.653  1.00  0.00     0.172 HD
HETATM    7  C5  UNL     1      16.370  70.709  31.172  1.00  0.00     0.328 A 
HETATM    8  O2  UNL     1      16.841  71.286  30.151  1.00  0.00    -0.247 OA
HETATM    9  N6  UNL     1      15.066  70.887  31.485  1.00  0.00    -0.275 N 
ATOM     10  H6  UNL     1      14.462  71.477  30.912  1.00  0.00     0.173 HD
HETATM   11  C6  UNL     1      14.594  70.259  32.577  1.00  0.00     0.269 A 
HETATM   12  O3  UNL     1      13.375  70.395  32.913  1.00  0.00    -0.267 OA
HETATM   13  C7  UNL     1      15.385  69.455  33.372  1.00  0.00     0.144 A 
HETATM   14  C8  UNL     1      14.862  68.817  34.503  1.00  0.00     0.266 A 
HETATM   15  O4  UNL     1      13.664  69.001  34.760  1.00  0.00    -0.267 OA
HETATM   16  N7  UNL     1      15.691  68.051  35.225  1.00  0.00    -0.310 N 
ATOM     17  H7  UNL     1      15.336  67.574  36.053  1.00  0.00     0.170 HD
ENDROOT
BRANCH   1  18
HETATM   18  C2  UNL     1      17.833  67.035  35.732  1.00  0.00     0.343 C 
BRANCH  18  19
HETATM   19  C1  UNL     1      19.219  67.517  35.807  1.00  0.00     0.273 C 
HETATM   20  N2  UNL     1      19.574  68.511  36.741  1.00  0.00    -0.275 N 
ATOM     21  H2  UNL     1      18.849  68.881  37.355  1.00  0.00     0.189 HD
HETATM   22  O1  UNL     1      20.088  67.050  35.047  1.00  0.00    -0.269 OA
BRANCH  20  23
HETATM   23  N1  UNL     1      20.874  69.015  36.867  1.00  0.00    -0.343 N 
ATOM     24  H12 UNL     1      21.550  68.750  36.151  1.00  0.00     0.176 HD
ATOM     25  H11 UNL     1      21.164  69.625  37.631  1.00  0.00     0.176 HD
ENDBRANCH  20  23
ENDBRANCH  18  19
BRANCH  18  26
HETATM   26  N3  UNL     1      17.195  66.975  37.031  1.00  0.00    -0.059 N 
ATOM     27  H33 UNL     1      17.612  66.247  37.611  1.00  0.00     0.275 HD
ATOM     28  H32 UNL     1      17.433  67.791  37.595  1.00  0.00     0.275 HD
ATOM     29  H31 UNL     1      16.184  66.857  36.965  1.00  0.00     0.275 HD
ENDBRANCH  18  26
ENDBRANCH   1  18
TORSDOF 4
ENDMDL
MODEL 4
REMARK VINA RESULT: -6.923169175      2.316      6.514
REMARK  4 active torsions:
REMARK  status: ('A' for Active; 'I' for Inactive)
REMARK    1  A    between atoms: N1_1  and  N2_4 
REMARK       I    between atoms: N2_4  and  C1_6 
REMARK    2  A    between atoms: C1_6  and  C2_8 
REMARK    3  A    between atoms: C2_8  and  N3_9 
REMARK    4  A    between atoms: C2_8  and  C3_13 
ROOT
HETATM    1  C3  UNL     1      17.308  68.442  33.847  1.00  0.00     0.126 A 
HETATM    2  N4  UNL     1      16.346  68.092  34.741  1.00  0.00    -0.329 N 
ATOM      3  H4  UNL     1      15.380  68.378  34.584  1.00  0.00     0.168 HD
HETATM    4  C4  UNL     1      16.661  67.370  35.831  1.00  0.00     0.132 A 
HETATM    5  N5  UNL     1      15.736  67.000  36.746  1.00  0.00    -0.293 N 
ATOM      6  H5  UNL     1      14.762  67.274  36.616  1.00  0.00     0.172 HD
HETATM    7  C5  UNL     1      16.084  66.276  37.827  1.00  0.00     0.328 A 
HETATM    8  O2  UNL     1      15.193  65.948  38.661  1.00  0.00    -0.247 OA
HETATM    9  N6  UNL     1      17.361  65.890  38.044  1.00  0.00    -0.275 N 
ATOM     10  H6  UNL     1      17.615  65.342  38.866  1.00  0.00     0.173 HD
HETATM   11  C6  UNL     1      18.288  66.255  37.138  1.00  0.00     0.269 A 
HETATM   12  O3  UNL     1      19.503  65.916  37.297  1.00  0.00    -0.267 OA
HETATM   13  C7  UNL     1      17.977  66.996  36.015  1.00  0.00     0.144 A 
HETATM   14  C8  UNL     1      18.965  67.358  35.092  1.00  0.00     0.266 A 
HETATM   15  O4  UNL     1      20.125  66.989  35.322  1.00  0.00    -0.267 OA
HETATM   16  N7  UNL     1      18.587  68.078  34.027  1.00  0.00    -0.310 N 
ATOM     17  H7  UNL     1      19.286  68.355  33.339  1.00  0.00     0.170 HD
ENDROOT
BRANCH   1  18
HETATM   18  C2  UNL     1      16.969  69.237  32.643  1.00  0.00     0.343 C 
BRANCH  18  19
HETATM   19  C1  UNL     1      17.017  68.438  31.411  1.00  0.00     0.273 C 
HETATM   20  N2  UNL     1      17.104  69.073  30.156  1.00  0.00    -0.275 N 
ATOM     21  H2  UNL     1      17.132  70.092  30.129  1.00  0.00     0.189 HD
HETATM   22  O1  UNL     1      16.982  67.194  31.469  1.00  0.00    -0.269 OA
BRANCH  20  23
HETATM   23  N1  UNL     1      17.153  68.374  28.945  1.00  0.00    -0.343 N 
ATOM     24  H12 UNL     1      16.701  67.461  28.913  1.00  0.00     0.176 HD
ATOM     25  H11 UNL     1      17.615  68.735  28.110  1.00  0.00     0.176 HD
ENDBRANCH  20  23
ENDBRANCH  18  19
BRANCH  18  26
HETATM   26  N3  UNL     1      15.660  69.810  32.881  1.00  0.00    -0.059 N 
ATOM     27  H33 UNL     1      15.345  70.354  32.078  1.00  0.00     0.275 HD
ATOM     28  H32 UNL     1      14.939  69.089  32.885  1.00  0.00     0.275 HD
ATOM     29  H31 UNL     1      15.627  70.367  33.736  1.00  0.00     0.275 HD
ENDBRANCH  18  26
ENDBRANCH   1  18
TORSDOF 4
ENDMDL
MODEL 5
REMARK VINA RESULT: -6.876682596      3.104      6.481
REMARK  4 active torsions:
REMARK  status: ('A' for Active; 'I' for Inactive)
REMARK    1  A    between atoms: N1_1  and  N2_4 
REMARK       I    between atoms: N2_4  and  C1_6 
REMARK    2  A    between atoms: C1_6  and  C2_8 
REMARK    3  A    between atoms: C2_8  and  N3_9 
REMARK    4  A    between atoms: C2_8  and  C3_13 
ROOT
HETATM    1  C3  UNL     1      16.837  68.372  33.909  1.00  0.00     0.126 A 
HETATM    2  N4  UNL     1      16.004  67.960  34.900  1.00  0.00    -0.329 N 
ATOM      3  H4  UNL     1      15.001  68.131  34.824  1.00  0.00     0.168 HD
HETATM    4  C4  UNL     1      16.495  67.328  35.982  1.00  0.00     0.132 A 
HETATM    5  N5  UNL     1      15.703  66.901  36.992  1.00  0.00    -0.293 N 
ATOM      6  H5  UNL     1      14.696  67.060  36.943  1.00  0.00     0.172 HD
HETATM    7  C5  UNL     1      16.226  66.270  38.061  1.00  0.00     0.328 A 
HETATM    8  O2  UNL     1      15.455  65.885  38.985  1.00  0.00    -0.247 OA
HETATM    9  N6  UNL     1      17.553  66.038  38.171  1.00  0.00    -0.275 N 
ATOM     10  H6  UNL     1      17.939  65.559  38.985  1.00  0.00     0.173 HD
HETATM   11  C6  UNL     1      18.347  66.460  37.170  1.00  0.00     0.269 A 
HETATM   12  O3  UNL     1      19.602  66.265  37.227  1.00  0.00    -0.267 OA
HETATM   13  C7  UNL     1      17.856  67.110  36.056  1.00  0.00     0.144 A 
HETATM   14  C8  UNL     1      18.710  67.536  35.032  1.00  0.00     0.266 A 
HETATM   15  O4  UNL     1      19.921  67.307  35.165  1.00  0.00    -0.267 OA
HETATM   16  N7  UNL     1      18.160  68.160  33.982  1.00  0.00    -0.310 N 
ATOM     17  H7  UNL     1      18.759  68.480  33.221  1.00  0.00     0.170 HD
ENDROOT
BRANCH   1  18
HETATM   18  C2  UNL     1      16.304  69.069  32.714  1.00  0.00     0.343 C 
BRANCH  18  19
HETATM   19  C1  UNL     1      15.284  70.070  33.056  1.00  0.00     0.273 C 
HETATM   20  N2  UNL     1      13.921  69.712  33.083  1.00  0.00    -0.275 N 
ATOM     21  H2  UNL     1      13.667  68.750  32.860  1.00  0.00     0.189 HD
HETATM   22  O1  UNL     1      15.618  71.239  33.325  1.00  0.00    -0.269 OA
BRANCH  20  23
HETATM   23  N1  UNL     1      12.898  70.613  33.400  1.00  0.00    -0.343 N 
ATOM     24  H12 UNL     1      12.654  71.310  32.698  1.00  0.00     0.176 HD
ATOM     25  H11 UNL     1      12.398  70.599  34.289  1.00  0.00     0.176 HD
ENDBRANCH  20  23
ENDBRANCH  18  19
BRANCH  18  26
HETATM   26  N3  UNL     1      17.443  69.649  32.032  1.00  0.00    -0.059 N 
ATOM     27  H33 UNL     1      17.480  70.659  32.173  1.00  0.00     0.275 HD
ATOM     28  H32 UNL     1      18.317  69.387  32.490  1.00  0.00     0.275 HD
ATOM     29  H31 UNL     1      17.466  69.416  31.039  1.00  0.00     0.275 HD
ENDBRANCH  18  26
ENDBRANCH   1  18
TORSDOF 4
ENDMDL
