MODEL 1
REMARK VINA RESULT: -7.091284047      0.000      0.000
REMARK  3 active torsions:
REMARK  status: ('A' for Active; 'I' for Inactive)
REMARK    1  A    between atoms: C1_2  and  C2_4 
REMARK    2  A    between atoms: C2_4  and  N2_5 
REMARK    3  A    between atoms: C2_4  and  N3_9 
ROOT
HETATM    1  N3  UNL     1      15.265  67.393  36.561  1.00  0.00    -0.337 N 
ATOM      2  H3  UNL     1      15.274  68.122  35.848  1.00  0.00     0.163 HD
HETATM    3  C3  UNL     1      16.382  66.844  36.737  1.00  0.00     0.170 C 
HETATM    4  N4  UNL     1      17.522  67.273  35.953  1.00  0.00    -0.339 N 
ATOM      5  H4  UNL     1      17.382  67.701  35.039  1.00  0.00     0.163 HD
HETATM    6  C4  UNL     1      18.849  67.091  36.469  1.00  0.00     0.279 C 
HETATM    7  C5  UNL     1      19.145  68.101  37.514  1.00  0.00     0.284 C 
HETATM    8  O2  UNL     1      18.879  67.999  38.752  1.00  0.00    -0.268 OA
HETATM    9  N5  UNL     1      19.776  69.190  36.865  1.00  0.00    -0.264 N 
ATOM     10  H5  UNL     1      19.889  70.123  37.260  1.00  0.00     0.190 HD
HETATM   11  N6  UNL     1      20.218  68.791  35.605  1.00  0.00    -0.264 N 
ATOM     12  H6  UNL     1      20.705  69.373  34.923  1.00  0.00     0.190 HD
HETATM   13  C6  UNL     1      19.866  67.424  35.447  1.00  0.00     0.284 C 
HETATM   14  O3  UNL     1      20.331  66.654  34.598  1.00  0.00    -0.268 OA
HETATM   15  C7  UNL     1      18.986  65.727  36.991  1.00  0.00     0.272 C 
HETATM   16  O4  UNL     1      19.975  64.988  36.761  1.00  0.00    -0.269 OA
HETATM   17  N7  UNL     1      17.908  65.243  37.808  1.00  0.00    -0.288 N 
ATOM     18  H7  UNL     1      18.087  64.496  38.479  1.00  0.00     0.172 HD
HETATM   19  C8  UNL     1      16.596  65.782  37.702  1.00  0.00     0.291 C 
HETATM   20  O5  UNL     1      15.658  65.360  38.416  1.00  0.00    -0.264 OA
ENDROOT
BRANCH   1  21
HETATM   21  C2  UNL     1      14.001  67.198  37.155  1.00  0.00     0.373 C 
BRANCH  21  22
HETATM   22  C1  UNL     1      13.105  68.295  36.644  1.00  0.00     0.281 C 
HETATM   23  N1  UNL     1      13.254  68.781  35.316  1.00  0.00    -0.059 NA
HETATM   24  O1  UNL     1      12.243  68.754  37.416  1.00  0.00    -0.273 OA
ENDBRANCH  21  22
BRANCH  21  25
HETATM   25  N2  UNL     1      13.390  65.922  36.872  1.00  0.00    -0.050 N 
ATOM     26  H23 UNL     1      12.492  66.019  36.397  1.00  0.00     0.277 HD
ATOM     27  H22 UNL     1      13.883  65.408  36.142  1.00  0.00     0.277 HD
ATOM     28  H21 UNL     1      13.315  65.390  37.738  1.00  0.00     0.277 HD
ENDBRANCH  21  25
ENDBRANCH   1  21
TORSDOF 3
ENDMDL
MODEL 2
REMARK VINA RESULT: -6.642557068      9.316     11.923
REMARK  3 active torsions:
REMARK  status: ('A' for Active; 'I' for Inactive)
REMARK    1  A    between atoms: C1_2  and  C2_4 
REMARK    2  A    between atoms: C2_4  and  N2_5 
REMARK    3  A    between atoms: C2_4  and  N3_9 
ROOT
HETATM    1  N3  UNL     1      17.524  58.539  43.168  1.00  0.00    -0.337 N 
ATOM      2  H3  UNL     1      17.857  58.937  42.289  1.00  0.00     0.163 HD
HETATM    3  C3  UNL     1      16.318  58.794  43.414  1.00  0.00     0.170 C 
HETATM    4  N4  UNL     1      15.550  59.590  42.479  1.00  0.00    -0.339 N 
ATOM      5  H4  UNL     1      16.021  60.247  41.858  1.00  0.00     0.163 HD
HETATM    6  C4  UNL     1      14.122  59.449  42.430  1.00  0.00     0.279 C 
HETATM    7  C5  UNL     1      13.746  58.197  41.727  1.00  0.00     0.284 C 
HETATM    8  O2  UNL     1      13.629  57.047  42.256  1.00  0.00    -0.268 OA
HETATM    9  N5  UNL     1      13.546  58.535  40.368  1.00  0.00    -0.264 N 
ATOM     10  H5  UNL     1      13.509  57.868  39.596  1.00  0.00     0.190 HD
HETATM   11  N6  UNL     1      13.406  59.916  40.243  1.00  0.00    -0.264 N 
ATOM     12  H6  UNL     1      13.253  60.433  39.377  1.00  0.00     0.190 HD
HETATM   13  C6  UNL     1      13.517  60.470  41.547  1.00  0.00     0.284 C 
HETATM   14  O3  UNL     1      13.169  61.610  41.877  1.00  0.00    -0.268 OA
HETATM   15  C7  UNL     1      13.583  59.477  43.793  1.00  0.00     0.272 C 
HETATM   16  O4  UNL     1      12.574  60.146  44.131  1.00  0.00    -0.269 OA
HETATM   17  N7  UNL     1      14.273  58.684  44.772  1.00  0.00    -0.288 N 
ATOM     18  H7  UNL     1      13.772  58.369  45.603  1.00  0.00     0.172 HD
HETATM   19  C8  UNL     1      15.641  58.328  44.609  1.00  0.00     0.291 C 
HETATM   20  O5  UNL     1      16.241  57.636  45.462  1.00  0.00    -0.264 OA
ENDROOT
BRANCH   1  21
HETATM   21  C2  UNL     1      18.508  57.810  43.867  1.00  0.00     0.373 C 
BRANCH  21  22
HETATM   22  C1  UNL     1      19.576  57.450  42.869  1.00  0.00     0.281 C 
HETATM   23  N1  UNL     1      19.579  58.045  41.578  1.00  0.00    -0.059 NA
HETATM   24  O1  UNL     1      20.443  56.625  43.212  1.00  0.00    -0.273 OA
ENDBRANCH  21  22
BRANCH  21  25
HETATM   25  N2  UNL     1      19.114  58.517  44.970  1.00  0.00    -0.050 N 
ATOM     26  H23 UNL     1      19.740  57.923  45.514  1.00  0.00     0.277 HD
ATOM     27  H22 UNL     1      19.801  59.204  44.660  1.00  0.00     0.277 HD
ATOM     28  H21 UNL     1      18.379  58.934  45.541  1.00  0.00     0.277 HD
ENDBRANCH  21  25
ENDBRANCH   1  21
TORSDOF 3
ENDMDL
MODEL 3
REMARK VINA RESULT: -6.589892494      3.565      6.320
REMARK  3 active torsions:
REMARK  status: ('A' for Active; 'I' for Inactive)
REMARK    1  A    between atoms: C1_2  and  C2_4 
REMARK    2  A    between atoms: C2_4  and  N2_5 
REMARK    3  A    between atoms: C2_4  and  N3_9 
ROOT
HETATM    1  N3  UNL     1      18.244  68.000  35.207  1.00  0.00    -0.337 N 
ATOM      2  H3  UNL     1      17.708  68.230  36.044  1.00  0.00     0.163 HD
HETATM    3  C3  UNL     1      17.543  67.915  34.166  1.00  0.00     0.170 C 
HETATM    4  N4  UNL     1      16.114  68.135  34.245  1.00  0.00    -0.339 N 
ATOM      5  H4  UNL     1      15.620  67.978  35.123  1.00  0.00     0.163 HD
HETATM    6  C4  UNL     1      15.397  68.577  33.083  1.00  0.00     0.279 C 
HETATM    7  C5  UNL     1      15.641  70.020  32.837  1.00  0.00     0.284 C 
HETATM    8  O2  UNL     1      16.603  70.514  32.170  1.00  0.00    -0.268 OA
HETATM    9  N5  UNL     1      14.601  70.728  33.485  1.00  0.00    -0.264 N 
ATOM     10  H5  UNL     1      14.613  71.725  33.698  1.00  0.00     0.190 HD
HETATM   11  N6  UNL     1      13.558  69.855  33.788  1.00  0.00    -0.264 N 
ATOM     12  H6  UNL     1      12.685  70.096  34.256  1.00  0.00     0.190 HD
HETATM   13  C6  UNL     1      13.937  68.566  33.323  1.00  0.00     0.284 C 
HETATM   14  O3  UNL     1      13.174  67.609  33.155  1.00  0.00    -0.268 OA
HETATM   15  C7  UNL     1      15.794  67.765  31.928  1.00  0.00     0.272 C 
HETATM   16  O4  UNL     1      14.979  67.280  31.103  1.00  0.00    -0.269 OA
HETATM   17  N7  UNL     1      17.202  67.530  31.763  1.00  0.00    -0.288 N 
ATOM     18  H7  UNL     1      17.565  67.310  30.836  1.00  0.00     0.172 HD
HETATM   19  C8  UNL     1      18.100  67.598  32.864  1.00  0.00     0.291 C 
HETATM   20  O5  UNL     1      19.326  67.394  32.719  1.00  0.00    -0.264 OA
ENDROOT
BRANCH   1  21
HETATM   21  C2  UNL     1      19.624  67.842  35.443  1.00  0.00     0.373 C 
BRANCH  21  22
HETATM   22  C1  UNL     1      19.965  68.706  36.628  1.00  0.00     0.281 C 
HETATM   23  N1  UNL     1      19.493  68.362  37.924  1.00  0.00    -0.059 NA
HETATM   24  O1  UNL     1      20.666  69.717  36.434  1.00  0.00    -0.273 OA
ENDBRANCH  21  22
BRANCH  21  25
HETATM   25  N2  UNL     1      20.040  66.487  35.715  1.00  0.00    -0.050 N 
ATOM     26  H23 UNL     1      20.692  66.431  36.497  1.00  0.00     0.277 HD
ATOM     27  H22 UNL     1      19.290  65.923  36.112  1.00  0.00     0.277 HD
ATOM     28  H21 UNL     1      20.422  66.080  34.861  1.00  0.00     0.277 HD
ENDBRANCH  21  25
ENDBRANCH   1  21
TORSDOF 3
ENDMDL
MODEL 4
REMARK VINA RESULT: -6.553197096      2.596      6.045
REMARK  3 active torsions:
REMARK  status: ('A' for Active; 'I' for Inactive)
REMARK    1  A    between atoms: C1_2  and  C2_4 
REMARK    2  A    between atoms: C2_4  and  N2_5 
REMARK    3  A    between atoms: C2_4  and  N3_9 
ROOT
HETATM    1  N3  UNL     1      18.081  67.739  35.819  1.00  0.00    -0.337 N 
ATOM      2  H3  UNL     1      17.961  67.547  36.814  1.00  0.00     0.163 HD
HETATM    3  C3  UNL     1      17.053  67.511  35.133  1.00  0.00     0.170 C 
HETATM    4  N4  UNL     1      15.854  67.021  35.781  1.00  0.00    -0.339 N 
ATOM      5  H4  UNL     1      15.920  66.506  36.658  1.00  0.00     0.163 HD
HETATM    6  C4  UNL     1      14.571  67.264  35.183  1.00  0.00     0.279 C 
HETATM    7  C5  UNL     1      14.154  68.671  35.398  1.00  0.00     0.284 C 
HETATM    8  O2  UNL     1      14.449  69.662  34.659  1.00  0.00    -0.268 OA
HETATM    9  N5  UNL     1      13.370  68.690  36.576  1.00  0.00    -0.264 N 
ATOM     10  H5  UNL     1      13.134  69.526  37.111  1.00  0.00     0.190 HD
HETATM   11  N6  UNL     1      12.969  67.394  36.893  1.00  0.00    -0.264 N 
ATOM     12  H6  UNL     1      12.397  67.116  37.691  1.00  0.00     0.190 HD
HETATM   13  C6  UNL     1      13.504  66.531  35.899  1.00  0.00     0.284 C 
HETATM   14  O3  UNL     1      13.137  65.371  35.679  1.00  0.00    -0.268 OA
HETATM   15  C7  UNL     1      14.632  66.938  33.754  1.00  0.00     0.272 C 
HETATM   16  O4  UNL     1      13.750  66.274  33.152  1.00  0.00    -0.269 OA
HETATM   17  N7  UNL     1      15.777  67.420  33.034  1.00  0.00    -0.288 N 
ATOM     18  H7  UNL     1      15.713  67.555  32.025  1.00  0.00     0.172 HD
HETATM   19  C8  UNL     1      17.001  67.715  33.697  1.00  0.00     0.291 C 
HETATM   20  O5  UNL     1      17.998  68.136  33.069  1.00  0.00    -0.264 OA
ENDROOT
BRANCH   1  21
HETATM   21  C2  UNL     1      19.368  68.208  35.484  1.00  0.00     0.373 C 
BRANCH  21  22
HETATM   22  C1  UNL     1      19.977  68.751  36.749  1.00  0.00     0.281 C 
HETATM   23  N1  UNL     1      19.546  68.269  38.015  1.00  0.00    -0.059 NA
HETATM   24  O1  UNL     1      20.859  69.625  36.647  1.00  0.00    -0.273 OA
ENDBRANCH  21  22
BRANCH  21  25
HETATM   25  N2  UNL     1      20.249  67.210  34.928  1.00  0.00    -0.050 N 
ATOM     26  H23 UNL     1      19.954  66.261  35.156  1.00  0.00     0.277 HD
ATOM     27  H22 UNL     1      20.171  67.144  33.914  1.00  0.00     0.277 HD
ATOM     28  H21 UNL     1      21.204  67.404  35.232  1.00  0.00     0.277 HD
ENDBRANCH  21  25
ENDBRANCH   1  21
TORSDOF 3
ENDMDL
MODEL 5
REMARK VINA RESULT: -6.522914475      4.147      6.153
REMARK  3 active torsions:
REMARK  status: ('A' for Active; 'I' for Inactive)
REMARK    1  A    between atoms: C1_2  and  C2_4 
REMARK    2  A    between atoms: C2_4  and  N2_5 
REMARK    3  A    between atoms: C2_4  and  N3_9 
ROOT
HETATM    1  N3  UNL     1      17.924  67.933  35.066  1.00  0.00    -0.337 N 
ATOM      2  H3  UNL     1      18.795  68.302  34.685  1.00  0.00     0.163 HD
HETATM    3  C3  UNL     1      16.897  68.338  34.464  1.00  0.00     0.170 C 
HETATM    4  N4  UNL     1      17.035  69.245  33.344  1.00  0.00    -0.339 N 
ATOM      5  H4  UNL     1      17.854  69.848  33.272  1.00  0.00     0.163 HD
HETATM    6  C4  UNL     1      16.015  69.292  32.335  1.00  0.00     0.279 C 
HETATM    7  C5  UNL     1      16.115  68.115  31.438  1.00  0.00     0.284 C 
HETATM    8  O2  UNL     1      15.577  66.979  31.629  1.00  0.00    -0.268 OA
HETATM    9  N5  UNL     1      16.919  68.503  30.340  1.00  0.00    -0.264 N 
ATOM     10  H5  UNL     1      17.361  67.863  29.680  1.00  0.00     0.190 HD
HETATM   11  N6  UNL     1      17.014  69.893  30.297  1.00  0.00    -0.264 N 
ATOM     12  H6  UNL     1      17.532  70.443  29.612  1.00  0.00     0.190 HD
HETATM   13  C6  UNL     1      16.256  70.402  31.387  1.00  0.00     0.284 C 
HETATM   14  O3  UNL     1      15.872  71.570  31.512  1.00  0.00    -0.268 OA
HETATM   15  C7  UNL     1      14.699  69.363  32.978  1.00  0.00     0.272 C 
HETATM   16  O4  UNL     1      13.788  70.150  32.618  1.00  0.00    -0.269 OA
HETATM   17  N7  UNL     1      14.474  68.467  34.078  1.00  0.00    -0.288 N 
ATOM     18  H7  UNL     1      13.518  68.203  34.319  1.00  0.00     0.172 HD
HETATM   19  C8  UNL     1      15.553  67.939  34.839  1.00  0.00     0.291 C 
HETATM   20  O5  UNL     1      15.356  67.158  35.797  1.00  0.00    -0.264 OA
ENDROOT
BRANCH   1  21
HETATM   21  C2  UNL     1      18.107  67.068  36.164  1.00  0.00     0.373 C 
BRANCH  21  22
HETATM   22  C1  UNL     1      19.441  66.397  35.973  1.00  0.00     0.281 C 
HETATM   23  N1  UNL     1      19.810  65.293  36.789  1.00  0.00    -0.059 NA
HETATM   24  O1  UNL     1      20.197  66.839  35.087  1.00  0.00    -0.273 OA
ENDBRANCH  21  22
BRANCH  21  25
HETATM   25  N2  UNL     1      18.087  67.716  37.454  1.00  0.00    -0.050 N 
ATOM     26  H23 UNL     1      17.922  67.058  38.216  1.00  0.00     0.277 HD
ATOM     27  H22 UNL     1      19.011  68.038  37.740  1.00  0.00     0.277 HD
ATOM     28  H21 UNL     1      17.401  68.471  37.436  1.00  0.00     0.277 HD
ENDBRANCH  21  25
ENDBRANCH   1  21
TORSDOF 3
ENDMDL
