MODEL 1
REMARK VINA RESULT: -6.998389927      0.000      0.000
REMARK  5 active torsions:
REMARK  status: ('A' for Active; 'I' for Inactive)
REMARK    1  A    between atoms: N2_3  and  C2_5 
REMARK    2  A    between atoms: C6_12  and  C7_13 
REMARK       I    between atoms: C7_13  and  N5_15 
REMARK       I    between atoms: C8_17  and  N7_19 
REMARK    3  A    between atoms: N7_19  and  N8_21 
REMARK    4  A    between atoms: N8_21  and  N9_22 
REMARK    5  A    between atoms: N8_21  and  O2_25 
ROOT
HETATM    1  N1  UNL     1      20.012  66.830  35.229  1.00  0.00    -0.172 NA
HETATM    2  C1  UNL     1      19.591  67.273  34.268  1.00  0.00     0.182 C 
HETATM    3  N2  UNL     1      19.067  67.836  33.100  1.00  0.00    -0.293 N 
ATOM      4  H2  UNL     1      18.538  68.706  33.159  1.00  0.00     0.178 HD
ENDROOT
BRANCH   3   5
HETATM    5  C2  UNL     1      19.237  67.282  31.958  1.00  0.00     0.062 A 
HETATM    6  C3  UNL     1      20.446  66.803  31.543  1.00  0.00     0.048 A 
HETATM    7  C4  UNL     1      20.540  66.224  30.302  1.00  0.00     0.091 A 
HETATM    8  N3  UNL     1      19.499  66.106  29.474  1.00  0.00    -0.354 N 
HETATM    9  C5  UNL     1      18.290  66.577  29.869  1.00  0.00     0.134 A 
ATOM     10  H3  UNL     1      19.611  65.668  28.559  1.00  0.00     0.166 HD
HETATM   11  N4  UNL     1      17.153  66.482  29.042  1.00  0.00    -0.082 NA
HETATM   12  C6  UNL     1      18.145  67.168  31.109  1.00  0.00     0.100 A 
BRANCH  12  13
HETATM   13  C7  UNL     1      16.862  67.682  31.561  1.00  0.00     0.263 C 
HETATM   14  O1  UNL     1      16.087  66.900  32.161  1.00  0.00    -0.267 OA
HETATM   15  N5  UNL     1      16.457  69.019  31.353  1.00  0.00    -0.296 N 
HETATM   16  C8  UNL     1      16.185  69.744  32.373  1.00  0.00     0.208 C 
ATOM     17  H5  UNL     1      16.381  69.399  30.410  1.00  0.00     0.171 HD
HETATM   18  N6  UNL     1      16.295  69.202  33.677  1.00  0.00    -0.062 NA
HETATM   19  N7  UNL     1      15.772  71.094  32.241  1.00  0.00    -0.251 N 
ATOM     20  H7  UNL     1      15.343  71.589  33.024  1.00  0.00     0.187 HD
BRANCH  19  21
HETATM   21  N8  UNL     1      15.966  71.726  31.021  1.00  0.00    -0.009 NA
BRANCH  21  22
HETATM   22  N9  UNL     1      15.043  71.324  30.049  1.00  0.00    -0.322 NA
ATOM     23  H92 UNL     1      14.313  70.789  30.519  1.00  0.00     0.175 HD
ATOM     24  H91 UNL     1      14.589  72.110  29.585  1.00  0.00     0.175 HD
ENDBRANCH  21  22
BRANCH  21  25
HETATM   25  O2  UNL     1      17.209  71.378  30.579  1.00  0.00    -0.276 OA
ATOM     26  H2  UNL     1      17.647  72.178  30.313  1.00  0.00     0.241 HD
ENDBRANCH  21  25
ENDBRANCH  19  21
ENDBRANCH  12  13
ENDBRANCH   3   5
TORSDOF 5
ENDMDL
MODEL 2
REMARK VINA RESULT: -6.973447196      1.812      2.850
REMARK  5 active torsions:
REMARK  status: ('A' for Active; 'I' for Inactive)
REMARK    1  A    between atoms: N2_3  and  C2_5 
REMARK    2  A    between atoms: C6_12  and  C7_13 
REMARK       I    between atoms: C7_13  and  N5_15 
REMARK       I    between atoms: C8_17  and  N7_19 
REMARK    3  A    between atoms: N7_19  and  N8_21 
REMARK    4  A    between atoms: N8_21  and  N9_22 
REMARK    5  A    between atoms: N8_21  and  O2_25 
ROOT
HETATM    1  N1  UNL     1      15.194  67.021  36.611  1.00  0.00    -0.172 NA
HETATM    2  C1  UNL     1      15.638  67.501  35.678  1.00  0.00     0.182 C 
HETATM    3  N2  UNL     1      16.164  68.102  34.530  1.00  0.00    -0.293 N 
ATOM      4  H2  UNL     1      15.568  68.710  33.968  1.00  0.00     0.178 HD
ENDROOT
BRANCH   3   5
HETATM    5  C2  UNL     1      17.376  67.905  34.169  1.00  0.00     0.062 A 
HETATM    6  C3  UNL     1      18.400  67.770  35.063  1.00  0.00     0.048 A 
HETATM    7  C4  UNL     1      19.671  67.561  34.589  1.00  0.00     0.091 A 
HETATM    8  N3  UNL     1      19.958  67.484  33.287  1.00  0.00    -0.354 N 
HETATM    9  C5  UNL     1      18.955  67.616  32.385  1.00  0.00     0.134 A 
ATOM     10  H3  UNL     1      20.917  67.328  32.976  1.00  0.00     0.166 HD
HETATM   11  N4  UNL     1      19.192  67.545  30.997  1.00  0.00    -0.082 NA
HETATM   12  C6  UNL     1      17.659  67.828  32.813  1.00  0.00     0.100 A 
BRANCH  12  13
HETATM   13  C7  UNL     1      16.561  67.973  31.870  1.00  0.00     0.263 C 
HETATM   14  O1  UNL     1      15.870  66.961  31.602  1.00  0.00    -0.267 OA
HETATM   15  N5  UNL     1      16.243  69.201  31.247  1.00  0.00    -0.296 N 
HETATM   16  C8  UNL     1      15.076  69.697  31.428  1.00  0.00     0.208 C 
ATOM     17  H5  UNL     1      16.929  69.682  30.666  1.00  0.00     0.171 HD
HETATM   18  N6  UNL     1      14.135  69.017  32.238  1.00  0.00    -0.062 NA
HETATM   19  N7  UNL     1      14.687  70.925  30.835  1.00  0.00    -0.251 N 
ATOM     20  H7  UNL     1      13.705  71.197  30.793  1.00  0.00     0.187 HD
BRANCH  19  21
HETATM   21  N8  UNL     1      15.677  71.748  30.315  1.00  0.00    -0.009 NA
BRANCH  21  22
HETATM   22  N9  UNL     1      16.254  71.232  29.150  1.00  0.00    -0.322 NA
ATOM     23  H92 UNL     1      16.352  72.001  28.487  1.00  0.00     0.175 HD
ATOM     24  H91 UNL     1      17.186  70.849  29.306  1.00  0.00     0.175 HD
ENDBRANCH  21  22
BRANCH  21  25
HETATM   25  O2  UNL     1      16.660  71.842  31.257  1.00  0.00    -0.276 OA
ATOM     26  H2  UNL     1      17.148  71.028  31.235  1.00  0.00     0.241 HD
ENDBRANCH  21  25
ENDBRANCH  19  21
ENDBRANCH  12  13
ENDBRANCH   3   5
TORSDOF 5
ENDMDL
MODEL 3
REMARK VINA RESULT: -6.788003700      2.331      3.921
REMARK  5 active torsions:
REMARK  status: ('A' for Active; 'I' for Inactive)
REMARK    1  A    between atoms: N2_3  and  C2_5 
REMARK    2  A    between atoms: C6_12  and  C7_13 
REMARK       I    between atoms: C7_13  and  N5_15 
REMARK       I    between atoms: C8_17  and  N7_19 
REMARK    3  A    between atoms: N7_19  and  N8_21 
REMARK    4  A    between atoms: N8_21  and  N9_22 
REMARK    5  A    between atoms: N8_21  and  O2_25 
ROOT
HETATM    1  N1  UNL     1      20.642  69.407  36.732  1.00  0.00    -0.172 NA
HETATM    2  C1  UNL     1      20.059  68.661  36.100  1.00  0.00     0.182 C 
HETATM    3  N2  UNL     1      19.362  67.735  35.315  1.00  0.00    -0.293 N 
ATOM      4  H2  UNL     1      19.873  67.177  34.632  1.00  0.00     0.178 HD
ENDROOT
BRANCH   3   5
HETATM    5  C2  UNL     1      18.098  67.575  35.437  1.00  0.00     0.062 A 
HETATM    6  C3  UNL     1      17.519  67.117  36.586  1.00  0.00     0.048 A 
HETATM    7  C4  UNL     1      16.155  66.975  36.630  1.00  0.00     0.091 A 
HETATM    8  N3  UNL     1      15.360  67.264  35.597  1.00  0.00    -0.354 N 
HETATM    9  C5  UNL     1      15.917  67.721  34.448  1.00  0.00     0.134 A 
ATOM     10  H3  UNL     1      14.349  67.145  35.671  1.00  0.00     0.166 HD
HETATM   11  N4  UNL     1      15.132  68.045  33.323  1.00  0.00    -0.082 NA
HETATM   12  C6  UNL     1      17.285  67.881  34.355  1.00  0.00     0.100 A 
BRANCH  12  13
HETATM   13  C7  UNL     1      17.913  68.369  33.136  1.00  0.00     0.263 C 
HETATM   14  O1  UNL     1      18.931  67.772  32.714  1.00  0.00    -0.267 OA
HETATM   15  N5  UNL     1      17.424  69.480  32.415  1.00  0.00    -0.296 N 
HETATM   16  C8  UNL     1      17.071  69.313  31.195  1.00  0.00     0.208 C 
ATOM     17  H5  UNL     1      17.354  70.397  32.856  1.00  0.00     0.171 HD
HETATM   18  N6  UNL     1      17.174  68.034  30.597  1.00  0.00    -0.062 NA
HETATM   19  N7  UNL     1      16.571  70.383  30.410  1.00  0.00    -0.251 N 
ATOM     20  H7  UNL     1      16.509  70.302  29.394  1.00  0.00     0.187 HD
BRANCH  19  21
HETATM   21  N8  UNL     1      16.168  71.543  31.057  1.00  0.00    -0.009 NA
BRANCH  21  22
HETATM   22  N9  UNL     1      15.664  71.302  32.339  1.00  0.00    -0.322 NA
ATOM     23  H92 UNL     1      15.499  72.206  32.781  1.00  0.00     0.175 HD
ATOM     24  H91 UNL     1      14.773  70.805  32.328  1.00  0.00     0.175 HD
ENDBRANCH  21  22
BRANCH  21  25
HETATM   25  O2  UNL     1      15.162  72.090  30.314  1.00  0.00    -0.276 OA
ATOM     26  H2  UNL     1      14.414  72.198  30.890  1.00  0.00     0.241 HD
ENDBRANCH  21  25
ENDBRANCH  19  21
ENDBRANCH  12  13
ENDBRANCH   3   5
TORSDOF 5
ENDMDL
MODEL 4
REMARK VINA RESULT: -6.705905039      2.282      3.232
REMARK  5 active torsions:
REMARK  status: ('A' for Active; 'I' for Inactive)
REMARK    1  A    between atoms: N2_3  and  C2_5 
REMARK    2  A    between atoms: C6_12  and  C7_13 
REMARK       I    between atoms: C7_13  and  N5_15 
REMARK       I    between atoms: C8_17  and  N7_19 
REMARK    3  A    between atoms: N7_19  and  N8_21 
REMARK    4  A    between atoms: N8_21  and  N9_22 
REMARK    5  A    between atoms: N8_21  and  O2_25 
ROOT
HETATM    1  N1  UNL     1      16.335  66.699  38.275  1.00  0.00    -0.172 NA
HETATM    2  C1  UNL     1      16.333  67.063  37.196  1.00  0.00     0.182 C 
HETATM    3  N2  UNL     1      16.309  67.516  35.873  1.00  0.00    -0.293 N 
ATOM      4  H2  UNL     1      15.422  67.801  35.459  1.00  0.00     0.178 HD
ENDROOT
BRANCH   3   5
HETATM    5  C2  UNL     1      17.378  67.581  35.171  1.00  0.00     0.062 A 
HETATM    6  C3  UNL     1      18.624  67.423  35.705  1.00  0.00     0.048 A 
HETATM    7  C4  UNL     1      19.716  67.508  34.879  1.00  0.00     0.091 A 
HETATM    8  N3  UNL     1      19.620  67.741  33.568  1.00  0.00    -0.354 N 
HETATM    9  C5  UNL     1      18.390  67.901  33.019  1.00  0.00     0.134 A 
ATOM     10  H3  UNL     1      20.457  67.797  32.988  1.00  0.00     0.166 HD
HETATM   11  N4  UNL     1      18.221  68.149  31.641  1.00  0.00    -0.082 NA
HETATM   12  C6  UNL     1      17.260  67.824  33.809  1.00  0.00     0.100 A 
BRANCH  12  13
HETATM   13  C7  UNL     1      15.928  67.992  33.250  1.00  0.00     0.263 C 
HETATM   14  O1  UNL     1      15.055  67.137  33.531  1.00  0.00    -0.267 OA
HETATM   15  N5  UNL     1      15.580  69.072  32.409  1.00  0.00    -0.296 N 
HETATM   16  C8  UNL     1      14.637  69.857  32.776  1.00  0.00     0.208 C 
ATOM     17  H5  UNL     1      16.070  69.224  31.528  1.00  0.00     0.171 HD
HETATM   18  N6  UNL     1      13.967  69.633  34.003  1.00  0.00    -0.062 NA
HETATM   19  N7  UNL     1      14.234  70.962  31.983  1.00  0.00    -0.251 N 
ATOM     20  H7  UNL     1      13.350  71.438  32.162  1.00  0.00     0.187 HD
BRANCH  19  21
HETATM   21  N8  UNL     1      15.073  71.378  30.959  1.00  0.00    -0.009 NA
BRANCH  21  22
HETATM   22  N9  UNL     1      16.364  71.681  31.405  1.00  0.00    -0.322 NA
ATOM     23  H92 UNL     1      17.023  71.177  30.811  1.00  0.00     0.175 HD
ATOM     24  H91 UNL     1      16.587  72.674  31.326  1.00  0.00     0.175 HD
ENDBRANCH  21  22
BRANCH  21  25
HETATM   25  O2  UNL     1      14.537  72.519  30.438  1.00  0.00    -0.276 OA
ATOM     26  H2  UNL     1      14.820  73.240  30.988  1.00  0.00     0.241 HD
ENDBRANCH  21  25
ENDBRANCH  19  21
ENDBRANCH  12  13
ENDBRANCH   3   5
TORSDOF 5
ENDMDL
MODEL 5
REMARK VINA RESULT: -6.702081374      2.289      5.960
REMARK  5 active torsions:
REMARK  status: ('A' for Active; 'I' for Inactive)
REMARK    1  A    between atoms: N2_3  and  C2_5 
REMARK    2  A    between atoms: C6_12  and  C7_13 
REMARK       I    between atoms: C7_13  and  N5_15 
REMARK       I    between atoms: C8_17  and  N7_19 
REMARK    3  A    between atoms: N7_19  and  N8_21 
REMARK    4  A    between atoms: N8_21  and  N9_22 
REMARK    5  A    between atoms: N8_21  and  O2_25 
ROOT
HETATM    1  N1  UNL     1      16.206  71.265  28.948  1.00  0.00    -0.172 NA
HETATM    2  C1  UNL     1      16.309  70.719  29.942  1.00  0.00     0.182 C 
HETATM    3  N2  UNL     1      16.457  70.045  31.159  1.00  0.00    -0.293 N 
ATOM      4  H2  UNL     1      17.355  69.616  31.386  1.00  0.00     0.178 HD
ENDROOT
BRANCH   3   5
HETATM    5  C2  UNL     1      15.491  69.956  31.995  1.00  0.00     0.062 A 
HETATM    6  C3  UNL     1      14.541  70.927  32.132  1.00  0.00     0.048 A 
HETATM    7  C4  UNL     1      13.540  70.749  33.053  1.00  0.00     0.091 A 
HETATM    8  N3  UNL     1      13.448  69.666  33.829  1.00  0.00    -0.354 N 
HETATM    9  C5  UNL     1      14.383  68.691  33.707  1.00  0.00     0.134 A 
ATOM     10  H3  UNL     1      12.687  69.573  34.502  1.00  0.00     0.166 HD
HETATM   11  N4  UNL     1      14.342  67.524  34.496  1.00  0.00    -0.082 NA
HETATM   12  C6  UNL     1      15.410  68.824  32.794  1.00  0.00     0.100 A 
BRANCH  12  13
HETATM   13  C7  UNL     1      16.428  67.796  32.639  1.00  0.00     0.263 C 
HETATM   14  O1  UNL     1      16.320  66.993  31.682  1.00  0.00    -0.267 OA
HETATM   15  N5  UNL     1      17.525  67.666  33.519  1.00  0.00    -0.296 N 
HETATM   16  C8  UNL     1      18.710  67.759  33.040  1.00  0.00     0.208 C 
ATOM     17  H5  UNL     1      17.378  67.501  34.514  1.00  0.00     0.171 HD
HETATM   18  N6  UNL     1      18.899  67.989  31.656  1.00  0.00    -0.062 NA
HETATM   19  N7  UNL     1      19.859  67.640  33.863  1.00  0.00    -0.251 N 
ATOM     20  H7  UNL     1      20.781  67.487  33.454  1.00  0.00     0.187 HD
BRANCH  19  21
HETATM   21  N8  UNL     1      19.697  67.736  35.238  1.00  0.00    -0.009 NA
BRANCH  21  22
HETATM   22  N9  UNL     1      20.495  68.732  35.810  1.00  0.00    -0.322 NA
ATOM     23  H92 UNL     1      20.663  69.442  35.097  1.00  0.00     0.175 HD
ATOM     24  H91 UNL     1      20.044  69.197  36.598  1.00  0.00     0.175 HD
ENDBRANCH  21  22
BRANCH  21  25
HETATM   25  O2  UNL     1      20.080  66.541  35.774  1.00  0.00    -0.276 OA
ATOM     26  H2  UNL     1      19.410  66.285  36.397  1.00  0.00     0.241 HD
ENDBRANCH  21  25
ENDBRANCH  19  21
ENDBRANCH  12  13
ENDBRANCH   3   5
TORSDOF 5
ENDMDL
