MODEL 1
REMARK VINA RESULT: -7.287266764      0.000      0.000
REMARK  3 active torsions:
REMARK  status: ('A' for Active; 'I' for Inactive)
REMARK    1  A    between atoms: N1_1  and  N2_4 
REMARK       I    between atoms: N2_4  and  C1_6 
REMARK    2  A    between atoms: C1_6  and  C2_8 
REMARK    3  A    between atoms: C3_9  and  C4_10 
REMARK       I    between atoms: C4_10  and  N3_12 
ROOT
HETATM    1  C2  UNL     1      15.724  66.311  37.414  1.00  0.00     0.176 A 
HETATM    2  C3  UNL     1      16.793  66.822  36.713  1.00  0.00     0.152 A 
HETATM    3  N6  UNL     1      16.220  67.513  35.668  1.00  0.00    -0.182 N 
ATOM      4  H6  UNL     1      16.750  68.015  34.956  1.00  0.00     0.184 HD
HETATM    5  C6  UNL     1      14.893  67.447  35.701  1.00  0.00     0.709 A 
HETATM    6  N7  UNL     1      13.745  67.841  35.076  1.00  0.00    -0.138 N 
ATOM      7  H7  UNL     1      13.677  68.411  34.233  1.00  0.00     0.189 HD
HETATM    8  C7  UNL     1      12.733  67.338  35.778  1.00  0.00     0.354 A 
HETATM    9  O3  UNL     1      11.496  67.456  35.556  1.00  0.00    -0.245 OA
HETATM   10  N8  UNL     1      13.272  66.634  36.834  1.00  0.00    -0.229 N 
ATOM     11  H8  UNL     1      12.739  66.135  37.548  1.00  0.00     0.193 HD
HETATM   12  N9  UNL     1      14.578  66.709  36.773  1.00  0.00    -0.074 N 
ENDROOT
BRANCH   1  13
HETATM   13  C1  UNL     1      15.779  65.550  38.649  1.00  0.00     0.291 C 
HETATM   14  N2  UNL     1      16.544  64.343  38.700  1.00  0.00    -0.271 N 
ATOM     15  H2  UNL     1      17.052  64.017  37.877  1.00  0.00     0.189 HD
HETATM   16  O1  UNL     1      15.173  65.941  39.659  1.00  0.00    -0.264 OA
BRANCH  14  17
HETATM   17  N1  UNL     1      16.587  63.607  39.903  1.00  0.00    -0.342 N 
ATOM     18  H12 UNL     1      15.774  63.606  40.519  1.00  0.00     0.176 HD
ATOM     19  H11 UNL     1      17.433  63.087  40.138  1.00  0.00     0.176 HD
ENDBRANCH  14  17
ENDBRANCH   1  13
BRANCH   2  20
HETATM   20  C4  UNL     1      18.233  66.723  36.901  1.00  0.00     0.277 C 
HETATM   21  O2  UNL     1      18.756  65.777  37.493  1.00  0.00    -0.266 OA
HETATM   22  N3  UNL     1      19.031  67.799  36.354  1.00  0.00    -0.298 N 
HETATM   23  C5  UNL     1      19.823  68.458  37.118  1.00  0.00     0.203 C 
ATOM     24  H3  UNL     1      18.964  68.033  35.364  1.00  0.00     0.171 HD
HETATM   25  N4  UNL     1      19.902  68.116  38.494  1.00  0.00    -0.066 NA
HETATM   26  N5  UNL     1      20.585  69.496  36.560  1.00  0.00    -0.066 NA
ENDBRANCH   2  20
TORSDOF 3
ENDMDL
MODEL 2
REMARK VINA RESULT: -7.244820937      4.284      6.216
REMARK  3 active torsions:
REMARK  status: ('A' for Active; 'I' for Inactive)
REMARK    1  A    between atoms: N1_1  and  N2_4 
REMARK       I    between atoms: N2_4  and  C1_6 
REMARK    2  A    between atoms: C1_6  and  C2_8 
REMARK    3  A    between atoms: C3_9  and  C4_10 
REMARK       I    between atoms: C4_10  and  N3_12 
ROOT
HETATM    1  C2  UNL     1      18.107  68.076  33.246  1.00  0.00     0.176 A 
HETATM    2  C3  UNL     1      19.043  67.751  34.202  1.00  0.00     0.152 A 
HETATM    3  N6  UNL     1      20.042  67.112  33.501  1.00  0.00    -0.182 N 
ATOM      4  H6  UNL     1      20.891  66.741  33.926  1.00  0.00     0.184 HD
HETATM    5  C6  UNL     1      19.764  67.035  32.203  1.00  0.00     0.709 A 
HETATM    6  N7  UNL     1      20.219  66.598  30.994  1.00  0.00    -0.138 N 
ATOM      7  H7  UNL     1      21.097  66.110  30.815  1.00  0.00     0.189 HD
HETATM    8  C7  UNL     1      19.299  66.930  30.093  1.00  0.00     0.354 A 
HETATM    9  O3  UNL     1      19.314  66.718  28.848  1.00  0.00    -0.245 OA
HETATM   10  N8  UNL     1      18.278  67.573  30.762  1.00  0.00    -0.229 N 
ATOM     11  H8  UNL     1      17.430  67.945  30.334  1.00  0.00     0.193 HD
HETATM   12  N9  UNL     1      18.574  67.627  32.036  1.00  0.00    -0.074 N 
ENDROOT
BRANCH   1  13
HETATM   13  C1  UNL     1      16.879  68.823  33.452  1.00  0.00     0.291 C 
HETATM   14  N2  UNL     1      16.767  70.153  32.936  1.00  0.00    -0.271 N 
ATOM     15  H2  UNL     1      17.542  70.575  32.423  1.00  0.00     0.189 HD
HETATM   16  O1  UNL     1      15.927  68.317  34.067  1.00  0.00    -0.264 OA
BRANCH  14  17
HETATM   17  N1  UNL     1      15.573  70.873  33.147  1.00  0.00    -0.342 N 
ATOM     18  H12 UNL     1      14.746  70.384  33.490  1.00  0.00     0.176 HD
ATOM     19  H11 UNL     1      15.555  71.874  32.952  1.00  0.00     0.176 HD
ENDBRANCH  14  17
ENDBRANCH   1  13
BRANCH   2  20
HETATM   20  C4  UNL     1      19.091  67.953  35.642  1.00  0.00     0.277 C 
HETATM   21  O2  UNL     1      20.063  68.462  36.204  1.00  0.00    -0.266 OA
HETATM   22  N3  UNL     1      17.932  67.522  36.394  1.00  0.00    -0.298 N 
HETATM   23  C5  UNL     1      18.070  66.681  37.353  1.00  0.00     0.203 C 
ATOM     24  H3  UNL     1      17.008  67.886  36.162  1.00  0.00     0.171 HD
HETATM   25  N4  UNL     1      19.365  66.187  37.660  1.00  0.00    -0.066 NA
HETATM   26  N5  UNL     1      16.928  66.281  38.065  1.00  0.00    -0.066 NA
ENDBRANCH   2  20
TORSDOF 3
ENDMDL
MODEL 3
REMARK VINA RESULT: -7.240874138      4.120      6.665
REMARK  3 active torsions:
REMARK  status: ('A' for Active; 'I' for Inactive)
REMARK    1  A    between atoms: N1_1  and  N2_4 
REMARK       I    between atoms: N2_4  and  C1_6 
REMARK    2  A    between atoms: C1_6  and  C2_8 
REMARK    3  A    between atoms: C3_9  and  C4_10 
REMARK       I    between atoms: C4_10  and  N3_12 
ROOT
HETATM    1  C2  UNL     1      18.463  67.895  33.739  1.00  0.00     0.176 A 
HETATM    2  C3  UNL     1      17.228  68.297  33.281  1.00  0.00     0.152 A 
HETATM    3  N6  UNL     1      17.261  68.032  31.929  1.00  0.00    -0.182 N 
ATOM      4  H6  UNL     1      16.487  68.219  31.291  1.00  0.00     0.184 HD
HETATM    5  C6  UNL     1      18.422  67.504  31.557  1.00  0.00     0.709 A 
HETATM    6  N7  UNL     1      19.134  67.020  30.498  1.00  0.00    -0.138 N 
ATOM      7  H7  UNL     1      18.820  66.964  29.529  1.00  0.00     0.189 HD
HETATM    8  C7  UNL     1      20.316  66.636  30.972  1.00  0.00     0.354 A 
HETATM    9  O3  UNL     1      21.282  66.128  30.338  1.00  0.00    -0.245 OA
HETATM   10  N8  UNL     1      20.320  66.890  32.327  1.00  0.00    -0.229 N 
ATOM     11  H8  UNL     1      21.095  66.699  32.964  1.00  0.00     0.193 HD
HETATM   12  N9  UNL     1      19.170  67.415  32.664  1.00  0.00    -0.074 N 
ENDROOT
BRANCH   1  13
HETATM   13  C1  UNL     1      18.922  67.901  35.116  1.00  0.00     0.291 C 
HETATM   14  N2  UNL     1      20.034  68.721  35.486  1.00  0.00    -0.271 N 
ATOM     15  H2  UNL     1      20.502  69.302  34.790  1.00  0.00     0.189 HD
HETATM   16  O1  UNL     1      18.355  67.204  35.973  1.00  0.00    -0.264 OA
BRANCH  14  17
HETATM   17  N1  UNL     1      20.476  68.715  36.826  1.00  0.00    -0.342 N 
ATOM     18  H12 UNL     1      20.189  69.468  37.451  1.00  0.00     0.176 HD
ATOM     19  H11 UNL     1      21.078  67.957  37.147  1.00  0.00     0.176 HD
ENDBRANCH  14  17
ENDBRANCH   1  13
BRANCH   2  20
HETATM   20  C4  UNL     1      16.077  68.892  33.943  1.00  0.00     0.277 C 
HETATM   21  O2  UNL     1      15.494  68.337  34.876  1.00  0.00    -0.266 OA
HETATM   22  N3  UNL     1      15.644  70.182  33.449  1.00  0.00    -0.298 N 
HETATM   23  C5  UNL     1      14.436  70.338  33.048  1.00  0.00     0.203 C 
ATOM     24  H3  UNL     1      16.298  70.964  33.420  1.00  0.00     0.171 HD
HETATM   25  N4  UNL     1      13.542  69.236  33.097  1.00  0.00    -0.066 NA
HETATM   26  N5  UNL     1      14.043  71.600  32.574  1.00  0.00    -0.066 NA
ENDBRANCH   2  20
TORSDOF 3
ENDMDL
MODEL 4
REMARK VINA RESULT: -7.150806012      3.620      5.033
REMARK  3 active torsions:
REMARK  status: ('A' for Active; 'I' for Inactive)
REMARK    1  A    between atoms: N1_1  and  N2_4 
REMARK       I    between atoms: N2_4  and  C1_6 
REMARK    2  A    between atoms: C1_6  and  C2_8 
REMARK    3  A    between atoms: C3_9  and  C4_10 
REMARK       I    between atoms: C4_10  and  N3_12 
ROOT
HETATM    1  C2  UNL     1      17.801  67.759  34.759  1.00  0.00     0.176 A 
HETATM    2  C3  UNL     1      17.418  68.040  33.467  1.00  0.00     0.152 A 
HETATM    3  N6  UNL     1      16.045  67.926  33.485  1.00  0.00    -0.182 N 
ATOM      4  H6  UNL     1      15.448  68.074  32.671  1.00  0.00     0.184 HD
HETATM    5  C6  UNL     1      15.591  67.599  34.691  1.00  0.00     0.709 A 
HETATM    6  N7  UNL     1      14.469  67.339  35.423  1.00  0.00    -0.138 N 
ATOM      7  H7  UNL     1      13.508  67.343  35.083  1.00  0.00     0.189 HD
HETATM    8  C7  UNL     1      14.872  67.078  36.663  1.00  0.00     0.354 A 
HETATM    9  O3  UNL     1      14.164  66.786  37.667  1.00  0.00    -0.245 OA
HETATM   10  N8  UNL     1      16.247  67.180  36.683  1.00  0.00    -0.229 N 
ATOM     11  H8  UNL     1      16.842  67.033  37.499  1.00  0.00     0.193 HD
HETATM   12  N9  UNL     1      16.666  67.494  35.482  1.00  0.00    -0.074 N 
ENDROOT
BRANCH   1  13
HETATM   13  C1  UNL     1      19.151  67.804  35.292  1.00  0.00     0.291 C 
HETATM   14  N2  UNL     1      19.547  68.903  36.118  1.00  0.00    -0.271 N 
ATOM     15  H2  UNL     1      18.887  69.650  36.336  1.00  0.00     0.189 HD
HETATM   16  O1  UNL     1      19.960  66.897  35.041  1.00  0.00    -0.264 OA
BRANCH  14  17
HETATM   17  N1  UNL     1      20.863  68.941  36.627  1.00  0.00    -0.342 N 
ATOM     18  H12 UNL     1      21.219  68.144  37.155  1.00  0.00     0.176 HD
ATOM     19  H11 UNL     1      21.437  69.766  36.457  1.00  0.00     0.176 HD
ENDBRANCH  14  17
ENDBRANCH   1  13
BRANCH   2  20
HETATM   20  C4  UNL     1      18.168  68.373  32.266  1.00  0.00     0.277 C 
HETATM   21  O2  UNL     1      17.757  69.185  31.436  1.00  0.00    -0.266 OA
HETATM   22  N3  UNL     1      19.436  67.697  32.089  1.00  0.00    -0.298 N 
HETATM   23  C5  UNL     1      19.654  67.018  31.023  1.00  0.00     0.203 C 
ATOM     24  H3  UNL     1      20.154  67.761  32.810  1.00  0.00     0.171 HD
HETATM   25  N4  UNL     1      18.641  66.943  30.031  1.00  0.00    -0.066 NA
HETATM   26  N5  UNL     1      20.893  66.373  30.878  1.00  0.00    -0.066 NA
ENDBRANCH   2  20
TORSDOF 3
ENDMDL
MODEL 5
REMARK VINA RESULT: -6.953077325      5.855      7.861
REMARK  3 active torsions:
REMARK  status: ('A' for Active; 'I' for Inactive)
REMARK    1  A    between atoms: N1_1  and  N2_4 
REMARK       I    between atoms: N2_4  and  C1_6 
REMARK    2  A    between atoms: C1_6  and  C2_8 
REMARK    3  A    between atoms: C3_9  and  C4_10 
REMARK       I    between atoms: C4_10  and  N3_12 
ROOT
HETATM    1  C2  UNL     1      18.467  67.676  31.361  1.00  0.00     0.176 A 
HETATM    2  C3  UNL     1      17.655  68.427  30.541  1.00  0.00     0.152 A 
HETATM    3  N6  UNL     1      17.874  67.915  29.280  1.00  0.00    -0.182 N 
ATOM      4  H6  UNL     1      17.416  68.259  28.436  1.00  0.00     0.184 HD
HETATM    5  C6  UNL     1      18.753  66.918  29.298  1.00  0.00     0.709 A 
HETATM    6  N7  UNL     1      19.410  66.003  28.527  1.00  0.00    -0.138 N 
ATOM      7  H7  UNL     1      19.327  65.886  27.518  1.00  0.00     0.189 HD
HETATM    8  C7  UNL     1      20.178  65.291  29.347  1.00  0.00     0.354 A 
HETATM    9  O3  UNL     1      20.954  64.338  29.057  1.00  0.00    -0.245 OA
HETATM   10  N8  UNL     1      19.987  65.780  30.623  1.00  0.00    -0.229 N 
ATOM     11  H8  UNL     1      20.444  65.432  31.466  1.00  0.00     0.193 HD
HETATM   12  N9  UNL     1      19.124  66.764  30.575  1.00  0.00    -0.074 N 
ENDROOT
BRANCH   1  13
HETATM   13  C1  UNL     1      18.564  67.770  32.806  1.00  0.00     0.291 C 
HETATM   14  N2  UNL     1      19.853  67.827  33.425  1.00  0.00    -0.271 N 
ATOM     15  H2  UNL     1      20.700  67.806  32.857  1.00  0.00     0.189 HD
HETATM   16  O1  UNL     1      17.540  67.804  33.508  1.00  0.00    -0.264 OA
BRANCH  14  17
HETATM   17  N1  UNL     1      19.937  67.912  34.831  1.00  0.00    -0.342 N 
ATOM     18  H12 UNL     1      19.500  67.190  35.404  1.00  0.00     0.176 HD
ATOM     19  H11 UNL     1      20.436  68.695  35.252  1.00  0.00     0.176 HD
ENDBRANCH  14  17
ENDBRANCH   1  13
BRANCH   2  20
HETATM   20  C4  UNL     1      16.749  69.536  30.798  1.00  0.00     0.277 C 
HETATM   21  O2  UNL     1      17.078  70.710  30.623  1.00  0.00    -0.266 OA
HETATM   22  N3  UNL     1      15.427  69.191  31.275  1.00  0.00    -0.298 N 
HETATM   23  C5  UNL     1      14.999  69.684  32.380  1.00  0.00     0.203 C 
ATOM     24  H3  UNL     1      14.837  68.559  30.735  1.00  0.00     0.171 HD
HETATM   25  N4  UNL     1      15.835  70.563  33.116  1.00  0.00    -0.066 NA
HETATM   26  N5  UNL     1      13.712  69.333  32.818  1.00  0.00    -0.066 NA
ENDBRANCH   2  20
TORSDOF 3
ENDMDL
