MODEL 1
REMARK VINA RESULT: -7.251516922      0.000      0.000
REMARK  5 active torsions:
REMARK  status: ('A' for Active; 'I' for Inactive)
REMARK    1  A    between atoms: N1_1  and  C1_4 
REMARK    2  A    between atoms: C2_7  and  C3_8 
REMARK       I    between atoms: C3_8  and  N3_10 
REMARK       I    between atoms: N3_10  and  C4_12 
REMARK    3  A    between atoms: C4_12  and  C5_14 
REMARK    4  A    between atoms: N4_15  and  N5_17 
REMARK    5  A    between atoms: N8_26  and  O3_27 
ROOT
HETATM    1  C1  UNL     1     -64.476  19.027  54.072  1.00  0.00     0.719 A 
HETATM    2  N2  UNL     1     -63.842  18.756  55.227  1.00  0.00    -0.168 N 
ATOM      3  H2  UNL     1     -63.487  19.543  55.769  1.00  0.00     0.186 HD
HETATM    4  C2  UNL     1     -63.646  17.525  55.713  1.00  0.00     0.211 A 
HETATM    5  N6  UNL     1     -64.145  16.507  54.945  1.00  0.00    -0.133 N 
HETATM    6  C6  UNL     1     -64.146  15.184  55.091  1.00  0.00     0.135 A 
HETATM    7  C7  UNL     1     -64.793  14.558  54.013  1.00  0.00     0.124 A 
HETATM    8  N7  UNL     1     -65.176  15.553  53.220  1.00  0.00    -0.197 N 
ATOM      9  H7  UNL     1     -65.679  15.451  52.338  1.00  0.00     0.183 HD
HETATM   10  C8  UNL     1     -64.788  16.726  53.778  1.00  0.00     0.732 A 
HETATM   11  N8  UNL     1     -64.946  17.993  53.354  1.00  0.00     0.127 N 
ENDROOT
BRANCH   4  12
HETATM   12  C3  UNL     1     -62.956  17.275  56.966  1.00  0.00     0.294 C 
HETATM   13  O1  UNL     1     -63.061  18.023  57.964  1.00  0.00    -0.264 OA
HETATM   14  N3  UNL     1     -62.119  16.149  57.112  1.00  0.00    -0.286 N 
HETATM   15  C4  UNL     1     -61.432  15.894  58.354  1.00  0.00     0.265 C 
ATOM     16  H3  UNL     1     -61.998  15.507  56.330  1.00  0.00     0.172 HD
HETATM   17  O2  UNL     1     -61.609  16.707  59.284  1.00  0.00    -0.267 OA
BRANCH  15  18
HETATM   18  C5  UNL     1     -60.572  14.718  58.473  1.00  0.00     0.180 C 
HETATM   19  N4  UNL     1     -61.016  13.633  59.012  1.00  0.00    -0.313 N 
ATOM     20  H4  UNL     1     -60.402  12.823  59.087  1.00  0.00     0.185 HD
BRANCH  19  21
HETATM   21  N5  UNL     1     -62.318  13.551  59.493  1.00  0.00    -0.345 N 
ATOM     22  H52 UNL     1     -62.973  12.931  59.017  1.00  0.00     0.176 HD
ATOM     23  H51 UNL     1     -62.616  14.096  60.302  1.00  0.00     0.176 HD
ENDBRANCH  19  21
ENDBRANCH  15  18
ENDBRANCH   4  12
BRANCH   1  24
HETATM   24  N1  UNL     1     -64.647  20.228  53.633  1.00  0.00    -0.232 N 
ATOM     25  H12 UNL     1     -63.872  20.705  53.173  1.00  0.00     0.174 HD
ATOM     26  H11 UNL     1     -65.530  20.730  53.725  1.00  0.00     0.174 HD
ENDBRANCH   1  24
BRANCH  11  27
HETATM   27  O3  UNL     1     -65.601  18.203  52.167  1.00  0.00    -0.256 OA
ATOM     28  H3  UNL     1     -65.209  17.940  51.343  1.00  0.00     0.246 HD
ENDBRANCH  11  27
TORSDOF 5
ENDMDL
MODEL 2
REMARK VINA RESULT: -7.103624107      2.013      2.295
REMARK  5 active torsions:
REMARK  status: ('A' for Active; 'I' for Inactive)
REMARK    1  A    between atoms: N1_1  and  C1_4 
REMARK    2  A    between atoms: C2_7  and  C3_8 
REMARK       I    between atoms: C3_8  and  N3_10 
REMARK       I    between atoms: N3_10  and  C4_12 
REMARK    3  A    between atoms: C4_12  and  C5_14 
REMARK    4  A    between atoms: N4_15  and  N5_17 
REMARK    5  A    between atoms: N8_26  and  O3_27 
ROOT
HETATM    1  C1  UNL     1     -63.779  19.065  55.313  1.00  0.00     0.719 A 
HETATM    2  N2  UNL     1     -63.623  17.851  55.869  1.00  0.00    -0.168 N 
ATOM      3  H2  UNL     1     -63.165  17.801  56.779  1.00  0.00     0.186 HD
HETATM    4  C2  UNL     1     -64.026  16.704  55.311  1.00  0.00     0.211 A 
HETATM    5  N6  UNL     1     -64.634  16.829  54.091  1.00  0.00    -0.133 N 
HETATM    6  C6  UNL     1     -65.156  15.942  53.247  1.00  0.00     0.135 A 
HETATM    7  C7  UNL     1     -65.671  16.574  52.104  1.00  0.00     0.124 A 
HETATM    8  N7  UNL     1     -65.438  17.869  52.295  1.00  0.00    -0.197 N 
ATOM      9  H7  UNL     1     -65.686  18.619  51.651  1.00  0.00     0.183 HD
HETATM   10  C8  UNL     1     -64.815  18.025  53.489  1.00  0.00     0.732 A 
HETATM   11  N8  UNL     1     -64.381  19.134  54.113  1.00  0.00     0.127 N 
ENDROOT
BRANCH   4  12
HETATM   12  C3  UNL     1     -63.838  15.411  55.946  1.00  0.00     0.294 C 
HETATM   13  O1  UNL     1     -64.636  14.457  55.802  1.00  0.00    -0.264 OA
HETATM   14  N3  UNL     1     -62.720  15.173  56.773  1.00  0.00    -0.286 N 
HETATM   15  C4  UNL     1     -62.527  13.892  57.406  1.00  0.00     0.265 C 
ATOM     16  H3  UNL     1     -62.040  15.917  56.925  1.00  0.00     0.172 HD
HETATM   17  O2  UNL     1     -63.386  13.013  57.192  1.00  0.00    -0.267 OA
BRANCH  15  18
HETATM   18  C5  UNL     1     -61.358  13.678  58.256  1.00  0.00     0.180 C 
HETATM   19  N4  UNL     1     -61.498  13.252  59.466  1.00  0.00    -0.313 N 
ATOM     20  H4  UNL     1     -60.671  13.108  60.046  1.00  0.00     0.185 HD
BRANCH  19  21
HETATM   21  N5  UNL     1     -62.756  12.986  59.994  1.00  0.00    -0.345 N 
ATOM     22  H52 UNL     1     -63.577  13.230  59.439  1.00  0.00     0.176 HD
ATOM     23  H51 UNL     1     -62.862  12.558  60.913  1.00  0.00     0.176 HD
ENDBRANCH  19  21
ENDBRANCH  15  18
ENDBRANCH   4  12
BRANCH   1  24
HETATM   24  N1  UNL     1     -63.377  20.151  55.879  1.00  0.00    -0.232 N 
ATOM     25  H12 UNL     1     -62.410  20.449  55.757  1.00  0.00     0.174 HD
ATOM     26  H11 UNL     1     -63.987  20.735  56.451  1.00  0.00     0.174 HD
ENDBRANCH   1  24
BRANCH  11  27
HETATM   27  O3  UNL     1     -64.571  20.344  53.492  1.00  0.00    -0.256 OA
ATOM     28  H3  UNL     1     -63.892  20.718  52.943  1.00  0.00     0.246 HD
ENDBRANCH  11  27
TORSDOF 5
ENDMDL
MODEL 3
REMARK VINA RESULT: -7.060684247      1.492      1.678
REMARK  5 active torsions:
REMARK  status: ('A' for Active; 'I' for Inactive)
REMARK    1  A    between atoms: N1_1  and  C1_4 
REMARK    2  A    between atoms: C2_7  and  C3_8 
REMARK       I    between atoms: C3_8  and  N3_10 
REMARK       I    between atoms: N3_10  and  C4_12 
REMARK    3  A    between atoms: C4_12  and  C5_14 
REMARK    4  A    between atoms: N4_15  and  N5_17 
REMARK    5  A    between atoms: N8_26  and  O3_27 
ROOT
HETATM    1  C1  UNL     1     -64.594  18.950  53.763  1.00  0.00     0.719 A 
HETATM    2  N2  UNL     1     -64.224  18.251  54.850  1.00  0.00    -0.168 N 
ATOM      3  H2  UNL     1     -63.940  18.776  55.677  1.00  0.00     0.186 HD
HETATM    4  C2  UNL     1     -64.203  16.915  54.922  1.00  0.00     0.211 A 
HETATM    5  N6  UNL     1     -64.594  16.262  53.785  1.00  0.00    -0.133 N 
HETATM    6  C6  UNL     1     -64.703  14.972  53.477  1.00  0.00     0.135 A 
HETATM    7  C7  UNL     1     -65.155  14.804  52.158  1.00  0.00     0.124 A 
HETATM    8  N7  UNL     1     -65.310  16.038  51.690  1.00  0.00    -0.197 N 
ATOM      9  H7  UNL     1     -65.630  16.283  50.753  1.00  0.00     0.183 HD
HETATM   10  C8  UNL     1     -64.975  16.917  52.666  1.00  0.00     0.732 A 
HETATM   11  N8  UNL     1     -64.969  18.261  52.670  1.00  0.00     0.127 N 
ENDROOT
BRANCH   4  12
HETATM   12  C3  UNL     1     -63.796  16.198  56.118  1.00  0.00     0.294 C 
HETATM   13  O1  UNL     1     -64.350  15.144  56.503  1.00  0.00    -0.264 OA
HETATM   14  N3  UNL     1     -62.734  16.675  56.914  1.00  0.00    -0.286 N 
HETATM   15  C4  UNL     1     -62.324  15.968  58.102  1.00  0.00     0.265 C 
ATOM     16  H3  UNL     1     -62.249  17.531  56.647  1.00  0.00     0.172 HD
HETATM   17  O2  UNL     1     -62.947  14.926  58.391  1.00  0.00    -0.267 OA
BRANCH  15  18
HETATM   18  C5  UNL     1     -61.220  16.488  58.905  1.00  0.00     0.180 C 
HETATM   19  N4  UNL     1     -60.164  15.774  59.108  1.00  0.00    -0.313 N 
ATOM     20  H4  UNL     1     -59.403  16.153  59.671  1.00  0.00     0.185 HD
BRANCH  19  21
HETATM   21  N5  UNL     1     -60.047  14.496  58.573  1.00  0.00    -0.345 N 
ATOM     22  H52 UNL     1     -59.688  14.398  57.623  1.00  0.00     0.176 HD
ATOM     23  H51 UNL     1     -60.314  13.672  59.112  1.00  0.00     0.176 HD
ENDBRANCH  19  21
ENDBRANCH  15  18
ENDBRANCH   4  12
BRANCH   1  24
HETATM   24  N1  UNL     1     -64.602  20.239  53.728  1.00  0.00    -0.232 N 
ATOM     25  H12 UNL     1     -63.747  20.736  53.481  1.00  0.00     0.174 HD
ATOM     26  H11 UNL     1     -65.432  20.793  53.939  1.00  0.00     0.174 HD
ENDBRANCH   1  24
BRANCH  11  27
HETATM   27  O3  UNL     1     -65.358  18.916  51.529  1.00  0.00    -0.256 OA
ATOM     28  H3  UNL     1     -65.309  18.486  50.683  1.00  0.00     0.246 HD
ENDBRANCH  11  27
TORSDOF 5
ENDMDL
MODEL 4
REMARK VINA RESULT: -7.041420627      4.135      5.539
REMARK  5 active torsions:
REMARK  status: ('A' for Active; 'I' for Inactive)
REMARK    1  A    between atoms: N1_1  and  C1_4 
REMARK    2  A    between atoms: C2_7  and  C3_8 
REMARK       I    between atoms: C3_8  and  N3_10 
REMARK       I    between atoms: N3_10  and  C4_12 
REMARK    3  A    between atoms: C4_12  and  C5_14 
REMARK    4  A    between atoms: N4_15  and  N5_17 
REMARK    5  A    between atoms: N8_26  and  O3_27 
ROOT
HETATM    1  C1  UNL     1     -67.332  15.886  50.222  1.00  0.00     0.719 A 
HETATM    2  N2  UNL     1     -66.640  16.899  50.771  1.00  0.00    -0.168 N 
ATOM      3  H2  UNL     1     -66.695  17.812  50.318  1.00  0.00     0.186 HD
HETATM    4  C2  UNL     1     -65.885  16.794  51.871  1.00  0.00     0.211 A 
HETATM    5  N6  UNL     1     -65.848  15.549  52.438  1.00  0.00    -0.133 N 
HETATM    6  C6  UNL     1     -65.226  15.063  53.509  1.00  0.00     0.135 A 
HETATM    7  C7  UNL     1     -65.507  13.697  53.680  1.00  0.00     0.124 A 
HETATM    8  N7  UNL     1     -66.317  13.387  52.674  1.00  0.00    -0.197 N 
ATOM      9  H7  UNL     1     -66.717  12.465  52.495  1.00  0.00     0.183 HD
HETATM   10  C8  UNL     1     -66.525  14.498  51.925  1.00  0.00     0.732 A 
HETATM   11  N8  UNL     1     -67.262  14.682  50.817  1.00  0.00     0.127 N 
ENDROOT
BRANCH   4  12
HETATM   12  C3  UNL     1     -65.153  17.916  52.432  1.00  0.00     0.294 C 
HETATM   13  O1  UNL     1     -64.539  18.751  51.731  1.00  0.00    -0.264 OA
HETATM   14  N3  UNL     1     -65.102  18.113  53.828  1.00  0.00    -0.286 N 
HETATM   15  C4  UNL     1     -64.378  19.225  54.393  1.00  0.00     0.265 C 
ATOM     16  H3  UNL     1     -65.584  17.461  54.446  1.00  0.00     0.172 HD
HETATM   17  O2  UNL     1     -63.803  19.996  53.598  1.00  0.00    -0.267 OA
BRANCH  15  18
HETATM   18  C5  UNL     1     -64.345  19.401  55.843  1.00  0.00     0.180 C 
HETATM   19  N4  UNL     1     -65.277  20.062  56.444  1.00  0.00    -0.313 N 
ATOM     20  H4  UNL     1     -65.238  20.175  57.457  1.00  0.00     0.185 HD
BRANCH  19  21
HETATM   21  N5  UNL     1     -66.332  20.622  55.734  1.00  0.00    -0.345 N 
ATOM     22  H52 UNL     1     -66.163  20.935  54.778  1.00  0.00     0.176 HD
ATOM     23  H51 UNL     1     -67.256  20.723  56.155  1.00  0.00     0.176 HD
ENDBRANCH  19  21
ENDBRANCH  15  18
ENDBRANCH   4  12
BRANCH   1  24
HETATM   24  N1  UNL     1     -68.051  16.023  49.160  1.00  0.00    -0.232 N 
ATOM     25  H12 UNL     1     -68.525  16.910  48.992  1.00  0.00     0.174 HD
ATOM     26  H11 UNL     1     -68.169  15.280  48.472  1.00  0.00     0.174 HD
ENDBRANCH   1  24
BRANCH  11  27
HETATM   27  O3  UNL     1     -67.946  13.607  50.305  1.00  0.00    -0.256 OA
ATOM     28  H3  UNL     1     -68.894  13.615  50.254  1.00  0.00     0.246 HD
ENDBRANCH  11  27
TORSDOF 5
ENDMDL
MODEL 5
REMARK VINA RESULT: -7.004441757      2.277      5.765
REMARK  5 active torsions:
REMARK  status: ('A' for Active; 'I' for Inactive)
REMARK    1  A    between atoms: N1_1  and  C1_4 
REMARK    2  A    between atoms: C2_7  and  C3_8 
REMARK       I    between atoms: C3_8  and  N3_10 
REMARK       I    between atoms: N3_10  and  C4_12 
REMARK    3  A    between atoms: C4_12  and  C5_14 
REMARK    4  A    between atoms: N4_15  and  N5_17 
REMARK    5  A    between atoms: N8_26  and  O3_27 
ROOT
HETATM    1  C1  UNL     1     -62.388  13.795  58.677  1.00  0.00     0.719 A 
HETATM    2  N2  UNL     1     -62.481  15.103  58.383  1.00  0.00    -0.168 N 
ATOM      3  H2  UNL     1     -62.312  15.772  59.134  1.00  0.00     0.186 HD
HETATM    4  C2  UNL     1     -62.780  15.589  57.172  1.00  0.00     0.211 A 
HETATM    5  N6  UNL     1     -62.996  14.648  56.201  1.00  0.00    -0.133 N 
HETATM    6  C6  UNL     1     -63.308  14.738  54.911  1.00  0.00     0.135 A 
HETATM    7  C7  UNL     1     -63.426  13.465  54.330  1.00  0.00     0.124 A 
HETATM    8  N7  UNL     1     -63.175  12.613  55.319  1.00  0.00    -0.197 N 
ATOM      9  H7  UNL     1     -63.177  11.596  55.243  1.00  0.00     0.183 HD
HETATM   10  C8  UNL     1     -62.916  13.322  56.446  1.00  0.00     0.732 A 
HETATM   11  N8  UNL     1     -62.611  12.911  57.689  1.00  0.00     0.127 N 
ENDROOT
BRANCH   4  12
HETATM   12  C3  UNL     1     -62.870  17.012  56.896  1.00  0.00     0.294 C 
HETATM   13  O1  UNL     1     -61.868  17.759  56.830  1.00  0.00    -0.264 OA
HETATM   14  N3  UNL     1     -64.123  17.625  56.685  1.00  0.00    -0.286 N 
HETATM   15  C4  UNL     1     -64.219  19.037  56.409  1.00  0.00     0.265 C 
ATOM     16  H3  UNL     1     -64.972  17.062  56.729  1.00  0.00     0.172 HD
HETATM   17  O2  UNL     1     -63.154  19.685  56.367  1.00  0.00    -0.267 OA
BRANCH  15  18
HETATM   18  C5  UNL     1     -65.533  19.641  56.196  1.00  0.00     0.180 C 
HETATM   19  N4  UNL     1     -65.813  20.222  55.078  1.00  0.00    -0.313 N 
ATOM     20  H4  UNL     1     -66.734  20.638  54.946  1.00  0.00     0.185 HD
BRANCH  19  21
HETATM   21  N5  UNL     1     -64.879  20.290  54.050  1.00  0.00    -0.345 N 
ATOM     22  H52 UNL     1     -64.619  19.427  53.572  1.00  0.00     0.176 HD
ATOM     23  H51 UNL     1     -64.461  21.179  53.777  1.00  0.00     0.176 HD
ENDBRANCH  19  21
ENDBRANCH  15  18
ENDBRANCH   4  12
BRANCH   1  24
HETATM   24  N1  UNL     1     -62.098  13.362  59.856  1.00  0.00    -0.232 N 
ATOM     25  H12 UNL     1     -62.803  13.410  60.592  1.00  0.00     0.174 HD
ATOM     26  H11 UNL     1     -61.187  12.969  60.093  1.00  0.00     0.174 HD
ENDBRANCH   1  24
BRANCH  11  27
HETATM   27  O3  UNL     1     -62.532  11.561  57.925  1.00  0.00    -0.256 OA
ATOM     28  H3  UNL     1     -62.381  10.952  57.212  1.00  0.00     0.246 HD
ENDBRANCH  11  27
TORSDOF 5
ENDMDL
