MODEL 1
REMARK VINA RESULT: -6.461405144      0.000      0.000
REMARK  4 active torsions:
REMARK  status: ('A' for Active; 'I' for Inactive)
REMARK    1  A    between atoms: C2_3  and  C3_4 
REMARK    2  A    between atoms: C3_4  and  N2_5 
REMARK    3  A    between atoms: C3_4  and  C4_9 
REMARK       I    between atoms: C4_9  and  N3_11 
REMARK    4  A    between atoms: N3_11  and  C5_13 
ROOT
HETATM    1  N1  UNL     1     -62.576  20.988  48.195  1.00  0.00    -0.197 NA
HETATM    2  C1  UNL     1     -63.095  20.531  49.106  1.00  0.00     0.061 C 
HETATM    3  C2  UNL     1     -63.735  19.936  50.256  1.00  0.00     0.166 C 
ENDROOT
BRANCH   3   4
HETATM    4  C3  UNL     1     -63.928  18.420  50.085  1.00  0.00     0.287 C 
BRANCH   4   5
HETATM    5  N2  UNL     1     -64.227  18.188  48.711  1.00  0.00    -0.066 N 
ATOM      6  H23 UNL     1     -65.059  18.685  48.393  1.00  0.00     0.275 HD
ATOM      7  H22 UNL     1     -63.561  18.629  48.076  1.00  0.00     0.275 HD
ATOM      8  H21 UNL     1     -64.290  17.178  48.584  1.00  0.00     0.275 HD
ENDBRANCH   4   5
BRANCH   4   9
HETATM    9  C4  UNL     1     -65.099  18.065  50.916  1.00  0.00     0.255 C 
HETATM   10  O1  UNL     1     -65.882  17.185  50.479  1.00  0.00    -0.271 OA
HETATM   11  N3  UNL     1     -65.329  18.710  52.182  1.00  0.00    -0.307 N 
ATOM     12  H3  UNL     1     -65.856  19.580  52.254  1.00  0.00     0.170 HD
BRANCH  11  13
HETATM   13  C5  UNL     1     -64.835  18.132  53.213  1.00  0.00     0.181 C 
HETATM   14  N4  UNL     1     -64.966  16.804  53.363  1.00  0.00    -0.300 N 
HETATM   15  C6  UNL     1     -64.510  15.993  54.352  1.00  0.00     0.316 C 
ATOM     16  H4  UNL     1     -65.488  16.333  52.623  1.00  0.00     0.171 HD
HETATM   17  O2  UNL     1     -64.760  14.778  54.215  1.00  0.00    -0.262 OA
HETATM   18  C7  UNL     1     -63.810  16.315  55.488  1.00  0.00     0.328 C 
HETATM   19  O3  UNL     1     -63.460  15.413  56.269  1.00  0.00    -0.261 OA
HETATM   20  N5  UNL     1     -63.423  17.557  55.903  1.00  0.00    -0.259 N 
HETATM   21  N6  UNL     1     -63.481  18.695  55.222  1.00  0.00    -0.260 N 
ATOM     22  H5  UNL     1     -63.045  17.618  56.849  1.00  0.00     0.190 HD
HETATM   23  C8  UNL     1     -64.191  18.967  54.100  1.00  0.00     0.304 C 
ATOM     24  H6  UNL     1     -62.919  19.463  55.589  1.00  0.00     0.190 HD
HETATM   25  O4  UNL     1     -64.264  20.182  53.843  1.00  0.00    -0.263 OA
ENDBRANCH  11  13
ENDBRANCH   4   9
ENDBRANCH   3   4
TORSDOF 4
ENDMDL
MODEL 2
REMARK VINA RESULT: -6.429536869      2.844      4.692
REMARK  4 active torsions:
REMARK  status: ('A' for Active; 'I' for Inactive)
REMARK    1  A    between atoms: C2_3  and  C3_4 
REMARK    2  A    between atoms: C3_4  and  N2_5 
REMARK    3  A    between atoms: C3_4  and  C4_9 
REMARK       I    between atoms: C4_9  and  N3_11 
REMARK    4  A    between atoms: N3_11  and  C5_13 
ROOT
HETATM    1  N1  UNL     1     -64.818  18.331  52.100  1.00  0.00    -0.197 NA
HETATM    2  C1  UNL     1     -64.576  18.880  53.073  1.00  0.00     0.061 C 
HETATM    3  C2  UNL     1     -64.275  19.554  54.316  1.00  0.00     0.166 C 
ENDROOT
BRANCH   3   4
HETATM    4  C3  UNL     1     -65.339  19.276  55.391  1.00  0.00     0.287 C 
BRANCH   4   5
HETATM    5  N2  UNL     1     -66.132  20.454  55.510  1.00  0.00    -0.066 N 
ATOM      6  H23 UNL     1     -67.104  20.312  55.231  1.00  0.00     0.275 HD
ATOM      7  H22 UNL     1     -66.312  20.720  56.478  1.00  0.00     0.275 HD
ATOM      8  H21 UNL     1     -65.666  21.186  54.974  1.00  0.00     0.275 HD
ENDBRANCH   4   5
BRANCH   4   9
HETATM    9  C4  UNL     1     -64.593  19.049  56.648  1.00  0.00     0.255 C 
HETATM   10  O1  UNL     1     -65.170  19.327  57.729  1.00  0.00    -0.271 OA
HETATM   11  N3  UNL     1     -63.252  18.528  56.627  1.00  0.00    -0.307 N 
ATOM     12  H3  UNL     1     -62.439  19.138  56.549  1.00  0.00     0.170 HD
BRANCH  11  13
HETATM   13  C5  UNL     1     -63.136  17.255  56.712  1.00  0.00     0.181 C 
HETATM   14  N4  UNL     1     -63.617  16.472  55.733  1.00  0.00    -0.300 N 
HETATM   15  C6  UNL     1     -63.585  15.120  55.608  1.00  0.00     0.316 C 
ATOM     16  H4  UNL     1     -64.076  16.966  54.968  1.00  0.00     0.171 HD
HETATM   17  O2  UNL     1     -64.092  14.660  54.565  1.00  0.00    -0.262 OA
HETATM   18  C7  UNL     1     -63.074  14.178  56.466  1.00  0.00     0.328 C 
HETATM   19  O3  UNL     1     -63.122  12.975  56.156  1.00  0.00    -0.261 OA
HETATM   20  N5  UNL     1     -62.487  14.391  57.681  1.00  0.00    -0.259 N 
HETATM   21  N6  UNL     1     -62.124  15.551  58.215  1.00  0.00    -0.260 N 
ATOM     22  H5  UNL     1     -62.305  13.560  58.245  1.00  0.00     0.190 HD
HETATM   23  C8  UNL     1     -62.502  16.800  57.848  1.00  0.00     0.304 C 
ATOM     24  H6  UNL     1     -61.478  15.496  59.002  1.00  0.00     0.190 HD
HETATM   25  O4  UNL     1     -62.220  17.670  58.691  1.00  0.00    -0.263 OA
ENDBRANCH  11  13
ENDBRANCH   4   9
ENDBRANCH   3   4
TORSDOF 4
ENDMDL
MODEL 3
REMARK VINA RESULT: -6.384584170      1.534      1.840
REMARK  4 active torsions:
REMARK  status: ('A' for Active; 'I' for Inactive)
REMARK    1  A    between atoms: C2_3  and  C3_4 
REMARK    2  A    between atoms: C3_4  and  N2_5 
REMARK    3  A    between atoms: C3_4  and  C4_9 
REMARK       I    between atoms: C4_9  and  N3_11 
REMARK    4  A    between atoms: N3_11  and  C5_13 
ROOT
HETATM    1  N1  UNL     1     -63.485  20.237  49.887  1.00  0.00    -0.197 NA
HETATM    2  C1  UNL     1     -64.102  19.275  49.900  1.00  0.00     0.061 C 
HETATM    3  C2  UNL     1     -64.880  18.057  49.939  1.00  0.00     0.166 C 
ENDROOT
BRANCH   3   4
HETATM    4  C3  UNL     1     -64.233  16.992  50.840  1.00  0.00     0.287 C 
BRANCH   4   5
HETATM    5  N2  UNL     1     -64.193  15.779  50.094  1.00  0.00    -0.066 N 
ATOM      6  H23 UNL     1     -64.917  15.726  49.377  1.00  0.00     0.275 HD
ATOM      7  H22 UNL     1     -63.388  15.718  49.471  1.00  0.00     0.275 HD
ATOM      8  H21 UNL     1     -64.239  15.012  50.765  1.00  0.00     0.275 HD
ENDBRANCH   4   5
BRANCH   4   9
HETATM    9  C4  UNL     1     -65.142  16.836  51.998  1.00  0.00     0.255 C 
HETATM   10  O1  UNL     1     -65.661  15.708  52.186  1.00  0.00    -0.271 OA
HETATM   11  N3  UNL     1     -65.418  17.943  52.874  1.00  0.00    -0.307 N 
ATOM     12  H3  UNL     1     -66.175  18.601  52.688  1.00  0.00     0.170 HD
BRANCH  11  13
HETATM   13  C5  UNL     1     -64.661  18.058  53.901  1.00  0.00     0.181 C 
HETATM   14  N4  UNL     1     -64.468  17.005  54.712  1.00  0.00    -0.300 N 
HETATM   15  C6  UNL     1     -63.702  16.897  55.827  1.00  0.00     0.316 C 
ATOM     16  H4  UNL     1     -64.974  16.158  54.450  1.00  0.00     0.171 HD
HETATM   17  O2  UNL     1     -63.691  15.774  56.370  1.00  0.00    -0.262 OA
HETATM   18  C7  UNL     1     -62.934  17.849  56.451  1.00  0.00     0.328 C 
HETATM   19  O3  UNL     1     -62.279  17.542  57.463  1.00  0.00    -0.261 OA
HETATM   20  N5  UNL     1     -62.779  19.158  56.094  1.00  0.00    -0.259 N 
HETATM   21  N6  UNL     1     -63.190  19.749  54.978  1.00  0.00    -0.260 N 
ATOM     22  H5  UNL     1     -62.289  19.752  56.764  1.00  0.00     0.190 HD
HETATM   23  C8  UNL     1     -64.099  19.303  54.078  1.00  0.00     0.304 C 
ATOM     24  H6  UNL     1     -62.767  20.654  54.773  1.00  0.00     0.190 HD
HETATM   25  O4  UNL     1     -64.479  20.182  53.283  1.00  0.00    -0.263 OA
ENDBRANCH  11  13
ENDBRANCH   4   9
ENDBRANCH   3   4
TORSDOF 4
ENDMDL
MODEL 4
REMARK VINA RESULT: -6.358357277      3.832      5.524
REMARK  4 active torsions:
REMARK  status: ('A' for Active; 'I' for Inactive)
REMARK    1  A    between atoms: C2_3  and  C3_4 
REMARK    2  A    between atoms: C3_4  and  N2_5 
REMARK    3  A    between atoms: C3_4  and  C4_9 
REMARK       I    between atoms: C4_9  and  N3_11 
REMARK    4  A    between atoms: N3_11  and  C5_13 
ROOT
HETATM    1  N1  UNL     1     -66.632  19.879  56.218  1.00  0.00    -0.197 NA
HETATM    2  C1  UNL     1     -65.512  19.696  56.360  1.00  0.00     0.061 C 
HETATM    3  C2  UNL     1     -64.093  19.470  56.516  1.00  0.00     0.166 C 
ENDROOT
BRANCH   3   4
HETATM    4  C3  UNL     1     -63.512  18.649  55.354  1.00  0.00     0.287 C 
BRANCH   4   5
HETATM    5  N2  UNL     1     -64.141  19.108  54.160  1.00  0.00    -0.066 N 
ATOM      6  H23 UNL     1     -65.151  19.211  54.254  1.00  0.00     0.275 HD
ATOM      7  H22 UNL     1     -63.929  20.082  53.945  1.00  0.00     0.275 HD
ATOM      8  H21 UNL     1     -63.872  18.467  53.414  1.00  0.00     0.275 HD
ENDBRANCH   4   5
BRANCH   4   9
HETATM    9  C4  UNL     1     -63.903  17.245  55.615  1.00  0.00     0.255 C 
HETATM   10  O1  UNL     1     -64.308  16.560  54.643  1.00  0.00    -0.271 OA
HETATM   11  N3  UNL     1     -63.821  16.690  56.940  1.00  0.00    -0.307 N 
ATOM     12  H3  UNL     1     -64.592  16.765  57.603  1.00  0.00     0.170 HD
BRANCH  11  13
HETATM   13  C5  UNL     1     -62.726  16.097  57.241  1.00  0.00     0.181 C 
HETATM   14  N4  UNL     1     -62.373  14.975  56.592  1.00  0.00    -0.300 N 
HETATM   15  C6  UNL     1     -61.263  14.205  56.732  1.00  0.00     0.316 C 
ATOM     16  H4  UNL     1     -63.038  14.653  55.889  1.00  0.00     0.171 HD
HETATM   17  O2  UNL     1     -61.186  13.223  55.966  1.00  0.00    -0.262 OA
HETATM   18  C7  UNL     1     -60.208  14.347  57.598  1.00  0.00     0.328 C 
HETATM   19  O3  UNL     1     -59.265  13.539  57.554  1.00  0.00    -0.261 OA
HETATM   20  N5  UNL     1     -60.041  15.308  58.555  1.00  0.00    -0.259 N 
HETATM   21  N6  UNL     1     -60.765  16.406  58.738  1.00  0.00    -0.260 N 
ATOM     22  H5  UNL     1     -59.268  15.165  59.205  1.00  0.00     0.190 HD
HETATM   23  C8  UNL     1     -61.992  16.695  58.242  1.00  0.00     0.304 C 
ATOM     24  H6  UNL     1     -60.343  17.123  59.328  1.00  0.00     0.190 HD
HETATM   25  O4  UNL     1     -62.533  17.668  58.796  1.00  0.00    -0.263 OA
ENDBRANCH  11  13
ENDBRANCH   4   9
ENDBRANCH   3   4
TORSDOF 4
ENDMDL
MODEL 5
REMARK VINA RESULT: -6.290168259      3.574      7.147
REMARK  4 active torsions:
REMARK  status: ('A' for Active; 'I' for Inactive)
REMARK    1  A    between atoms: C2_3  and  C3_4 
REMARK    2  A    between atoms: C3_4  and  N2_5 
REMARK    3  A    between atoms: C3_4  and  C4_9 
REMARK       I    between atoms: C4_9  and  N3_11 
REMARK    4  A    between atoms: N3_11  and  C5_13 
ROOT
HETATM    1  N1  UNL     1     -59.366  14.988  60.289  1.00  0.00    -0.197 NA
HETATM    2  C1  UNL     1     -59.824  14.874  59.248  1.00  0.00     0.061 C 
HETATM    3  C2  UNL     1     -60.397  14.751  57.926  1.00  0.00     0.166 C 
ENDROOT
BRANCH   3   4
HETATM    4  C3  UNL     1     -61.207  15.997  57.535  1.00  0.00     0.287 C 
BRANCH   4   5
HETATM    5  N2  UNL     1     -61.148  16.899  58.636  1.00  0.00    -0.066 N 
ATOM      6  H23 UNL     1     -61.947  16.814  59.266  1.00  0.00     0.275 HD
ATOM      7  H22 UNL     1     -60.423  16.659  59.312  1.00  0.00     0.275 HD
ATOM      8  H21 UNL     1     -61.041  17.837  58.251  1.00  0.00     0.275 HD
ENDBRANCH   4   5
BRANCH   4   9
HETATM    9  C4  UNL     1     -62.599  15.530  57.347  1.00  0.00     0.255 C 
HETATM   10  O1  UNL     1     -63.213  15.101  58.355  1.00  0.00    -0.271 OA
HETATM   11  N3  UNL     1     -63.222  15.571  56.051  1.00  0.00    -0.307 N 
ATOM     12  H3  UNL     1     -63.140  14.798  55.390  1.00  0.00     0.170 HD
BRANCH  11  13
HETATM   13  C5  UNL     1     -63.886  16.630  55.771  1.00  0.00     0.181 C 
HETATM   14  N4  UNL     1     -64.166  17.519  56.738  1.00  0.00    -0.300 N 
HETATM   15  C6  UNL     1     -64.829  18.702  56.664  1.00  0.00     0.316 C 
ATOM     16  H4  UNL     1     -63.832  17.268  57.669  1.00  0.00     0.171 HD
HETATM   17  O2  UNL     1     -64.917  19.341  57.732  1.00  0.00    -0.262 OA
HETATM   18  C7  UNL     1     -65.421  19.302  55.580  1.00  0.00     0.328 C 
HETATM   19  O3  UNL     1     -65.965  20.411  55.714  1.00  0.00    -0.261 OA
HETATM   20  N5  UNL     1     -65.498  18.822  54.303  1.00  0.00    -0.259 N 
HETATM   21  N6  UNL     1     -64.873  17.768  53.793  1.00  0.00    -0.260 N 
ATOM     22  H5  UNL     1     -66.108  19.336  53.667  1.00  0.00     0.190 HD
HETATM   23  C8  UNL     1     -64.262  16.754  54.452  1.00  0.00     0.304 C 
ATOM     24  H6  UNL     1     -64.850  17.715  52.775  1.00  0.00     0.190 HD
HETATM   25  O4  UNL     1     -64.003  15.777  53.725  1.00  0.00    -0.263 OA
ENDBRANCH  11  13
ENDBRANCH   4   9
ENDBRANCH   3   4
TORSDOF 4
ENDMDL
