MODEL 1
REMARK VINA RESULT: -7.844071191      0.000      0.000
REMARK  2 active torsions:
REMARK  status: ('A' for Active; 'I' for Inactive)
REMARK    1  A    between atoms: C1_4  and  N2_5 
REMARK    2  A    between atoms: N2_5  and  C2_7 
REMARK       I    between atoms: N4_12  and  C4_13 
ROOT
HETATM    1  C2  UNL     1     -64.664  19.088  52.993  1.00  0.00     0.141 A 
HETATM    2  N3  UNL     1     -64.068  19.723  54.000  1.00  0.00    -0.292 N 
ATOM      3  H3  UNL     1     -63.860  20.719  53.921  1.00  0.00     0.172 HD
HETATM    4  C3  UNL     1     -63.747  19.067  55.098  1.00  0.00     0.337 A 
HETATM    5  O1  UNL     1     -63.191  19.701  56.017  1.00  0.00    -0.246 OA
HETATM    6  N4  UNL     1     -63.977  17.733  55.313  1.00  0.00    -0.200 N 
HETATM    7  C4  UNL     1     -63.573  17.202  56.528  1.00  0.00     0.344 C 
HETATM    8  N5  UNL     1     -62.931  18.035  57.531  1.00  0.00    -0.039 NA
HETATM    9  O2  UNL     1     -63.689  16.026  56.915  1.00  0.00    -0.250 OA
HETATM   10  C5  UNL     1     -64.574  17.076  54.313  1.00  0.00     0.154 A 
HETATM   11  N6  UNL     1     -64.835  15.766  54.443  1.00  0.00    -0.302 N 
ATOM     12  H6  UNL     1     -64.585  15.262  55.293  1.00  0.00     0.171 HD
HETATM   13  C6  UNL     1     -65.439  15.136  53.414  1.00  0.00     0.315 A 
HETATM   14  O3  UNL     1     -65.705  13.904  53.489  1.00  0.00    -0.262 OA
HETATM   15  C7  UNL     1     -65.783  15.787  52.269  1.00  0.00     0.314 A 
HETATM   16  O4  UNL     1     -66.346  15.197  51.310  1.00  0.00    -0.262 OA
HETATM   17  N7  UNL     1     -65.525  17.092  52.131  1.00  0.00    -0.313 N 
ATOM     18  H7  UNL     1     -65.781  17.581  51.273  1.00  0.00     0.169 HD
HETATM   19  C8  UNL     1     -64.927  17.752  53.133  1.00  0.00     0.125 A 
ENDROOT
BRANCH   1  20
HETATM   20  N2  UNL     1     -64.975  19.751  51.916  1.00  0.00    -0.337 N 
ATOM     21  H2  UNL     1     -65.907  20.153  51.821  1.00  0.00     0.168 HD
BRANCH  20  22
HETATM   22  C1  UNL     1     -64.024  19.916  50.874  1.00  0.00     0.175 C 
HETATM   23  N1  UNL     1     -64.158  19.338  49.724  1.00  0.00    -0.395 N 
ATOM     24  H12 UNL     1     -64.978  18.748  49.578  1.00  0.00     0.156 HD
ATOM     25  H11 UNL     1     -63.475  19.457  48.976  1.00  0.00     0.156 HD
ENDBRANCH  20  22
ENDBRANCH   1  20
TORSDOF 2
ENDMDL
MODEL 2
REMARK VINA RESULT: -7.610836009      1.940      2.549
REMARK  2 active torsions:
REMARK  status: ('A' for Active; 'I' for Inactive)
REMARK    1  A    between atoms: C1_4  and  N2_5 
REMARK    2  A    between atoms: N2_5  and  C2_7 
REMARK       I    between atoms: N4_12  and  C4_13 
ROOT
HETATM    1  C2  UNL     1     -65.557  17.164  52.601  1.00  0.00     0.141 A 
HETATM    2  N3  UNL     1     -65.171  18.436  52.667  1.00  0.00    -0.292 N 
ATOM      3  H3  UNL     1     -65.474  19.098  51.952  1.00  0.00     0.172 HD
HETATM    4  C3  UNL     1     -64.397  18.841  53.655  1.00  0.00     0.337 A 
HETATM    5  O1  UNL     1     -64.059  20.041  53.679  1.00  0.00    -0.246 OA
HETATM    6  N4  UNL     1     -63.929  18.043  54.667  1.00  0.00    -0.200 N 
HETATM    7  C4  UNL     1     -63.123  18.634  55.627  1.00  0.00     0.344 C 
HETATM    8  N5  UNL     1     -62.791  20.047  55.557  1.00  0.00    -0.039 NA
HETATM    9  O2  UNL     1     -62.603  18.089  56.616  1.00  0.00    -0.250 OA
HETATM   10  C5  UNL     1     -64.306  16.761  54.618  1.00  0.00     0.154 A 
HETATM   11  N6  UNL     1     -63.891  15.911  55.572  1.00  0.00    -0.302 N 
ATOM     12  H6  UNL     1     -63.292  16.228  56.333  1.00  0.00     0.171 HD
HETATM   13  C6  UNL     1     -64.292  14.625  55.491  1.00  0.00     0.315 A 
HETATM   14  O3  UNL     1     -63.928  13.789  56.364  1.00  0.00    -0.262 OA
HETATM   15  C7  UNL     1     -65.091  14.178  54.484  1.00  0.00     0.314 A 
HETATM   16  O4  UNL     1     -65.462  12.978  54.411  1.00  0.00    -0.262 OA
HETATM   17  N7  UNL     1     -65.508  15.018  53.529  1.00  0.00    -0.313 N 
ATOM     18  H7  UNL     1     -66.105  14.684  52.773  1.00  0.00     0.169 HD
HETATM   19  C8  UNL     1     -65.131  16.303  53.577  1.00  0.00     0.125 A 
ENDROOT
BRANCH   1  20
HETATM   20  N2  UNL     1     -66.322  16.780  51.620  1.00  0.00    -0.337 N 
ATOM     21  H2  UNL     1     -67.161  16.233  51.815  1.00  0.00     0.168 HD
BRANCH  20  22
HETATM   22  C1  UNL     1     -65.997  17.119  50.279  1.00  0.00     0.175 C 
HETATM   23  N1  UNL     1     -66.606  16.588  49.269  1.00  0.00    -0.395 N 
ATOM     24  H12 UNL     1     -67.341  15.906  49.458  1.00  0.00     0.156 HD
ATOM     25  H11 UNL     1     -66.371  16.831  48.307  1.00  0.00     0.156 HD
ENDBRANCH  20  22
ENDBRANCH   1  20
TORSDOF 2
ENDMDL
MODEL 3
REMARK VINA RESULT: -7.404276094      1.257      4.057
REMARK  2 active torsions:
REMARK  status: ('A' for Active; 'I' for Inactive)
REMARK    1  A    between atoms: C1_4  and  N2_5 
REMARK    2  A    between atoms: N2_5  and  C2_7 
REMARK       I    between atoms: N4_12  and  C4_13 
ROOT
HETATM    1  C2  UNL     1     -65.182  17.756  52.613  1.00  0.00     0.141 A 
HETATM    2  N3  UNL     1     -65.698  16.585  52.246  1.00  0.00    -0.292 N 
ATOM      3  H3  UNL     1     -66.210  16.507  51.367  1.00  0.00     0.172 HD
HETATM    4  C3  UNL     1     -65.550  15.526  53.019  1.00  0.00     0.337 A 
HETATM    5  O1  UNL     1     -66.049  14.450  52.638  1.00  0.00    -0.246 OA
HETATM    6  N4  UNL     1     -64.885  15.514  54.218  1.00  0.00    -0.200 N 
HETATM    7  C4  UNL     1     -64.825  14.311  54.903  1.00  0.00     0.344 C 
HETATM    8  N5  UNL     1     -65.444  13.112  54.364  1.00  0.00    -0.039 NA
HETATM    9  O2  UNL     1     -64.275  14.092  55.996  1.00  0.00    -0.250 OA
HETATM   10  C5  UNL     1     -64.360  16.681  54.604  1.00  0.00     0.154 A 
HETATM   11  N6  UNL     1     -63.693  16.756  55.767  1.00  0.00    -0.302 N 
ATOM     12  H6  UNL     1     -63.581  15.936  56.362  1.00  0.00     0.171 HD
HETATM   13  C6  UNL     1     -63.176  17.950  56.124  1.00  0.00     0.315 A 
HETATM   14  O3  UNL     1     -62.540  18.070  57.209  1.00  0.00    -0.262 OA
HETATM   15  C7  UNL     1     -63.312  19.060  55.347  1.00  0.00     0.314 A 
HETATM   16  O4  UNL     1     -62.829  20.172  55.684  1.00  0.00    -0.262 OA
HETATM   17  N7  UNL     1     -63.976  18.994  54.188  1.00  0.00    -0.313 N 
ATOM     18  H7  UNL     1     -64.080  19.825  53.606  1.00  0.00     0.169 HD
HETATM   19  C8  UNL     1     -64.503  17.825  53.800  1.00  0.00     0.125 A 
ENDROOT
BRANCH   1  20
HETATM   20  N2  UNL     1     -65.337  18.792  51.838  1.00  0.00    -0.337 N 
ATOM     21  H2  UNL     1     -66.018  19.510  52.083  1.00  0.00     0.168 HD
BRANCH  20  22
HETATM   22  C1  UNL     1     -64.563  18.926  50.655  1.00  0.00     0.175 C 
HETATM   23  N1  UNL     1     -63.887  19.998  50.395  1.00  0.00    -0.395 N 
ATOM     24  H12 UNL     1     -63.921  20.761  51.071  1.00  0.00     0.156 HD
ATOM     25  H11 UNL     1     -63.332  20.094  49.545  1.00  0.00     0.156 HD
ENDBRANCH  20  22
ENDBRANCH   1  20
TORSDOF 2
ENDMDL
MODEL 4
REMARK VINA RESULT: -7.257435259      0.953      1.004
REMARK  2 active torsions:
REMARK  status: ('A' for Active; 'I' for Inactive)
REMARK    1  A    between atoms: C1_4  and  N2_5 
REMARK    2  A    between atoms: N2_5  and  C2_7 
REMARK       I    between atoms: N4_12  and  C4_13 
ROOT
HETATM    1  C2  UNL     1     -64.799  18.185  53.252  1.00  0.00     0.141 A 
HETATM    2  N3  UNL     1     -64.190  18.990  54.119  1.00  0.00    -0.292 N 
ATOM      3  H3  UNL     1     -64.078  19.980  53.902  1.00  0.00     0.172 HD
HETATM    4  C3  UNL     1     -63.731  18.509  55.259  1.00  0.00     0.337 A 
HETATM    5  O1  UNL     1     -63.168  19.298  56.042  1.00  0.00    -0.246 OA
HETATM    6  N4  UNL     1     -63.824  17.199  55.654  1.00  0.00    -0.200 N 
HETATM    7  C4  UNL     1     -63.286  16.864  56.887  1.00  0.00     0.344 C 
HETATM    8  N5  UNL     1     -62.649  17.868  57.722  1.00  0.00    -0.039 NA
HETATM    9  O2  UNL     1     -63.268  15.743  57.423  1.00  0.00    -0.250 OA
HETATM   10  C5  UNL     1     -64.432  16.374  54.797  1.00  0.00     0.154 A 
HETATM   11  N6  UNL     1     -64.565  15.074  55.107  1.00  0.00    -0.302 N 
ATOM     12  H6  UNL     1     -64.208  14.706  55.988  1.00  0.00     0.171 HD
HETATM   13  C6  UNL     1     -65.185  14.271  54.217  1.00  0.00     0.315 A 
HETATM   14  O3  UNL     1     -65.333  13.042  54.466  1.00  0.00    -0.262 OA
HETATM   15  C7  UNL     1     -65.669  14.739  53.035  1.00  0.00     0.314 A 
HETATM   16  O4  UNL     1     -66.246  13.987  52.207  1.00  0.00    -0.262 OA
HETATM   17  N7  UNL     1     -65.540  16.032  52.717  1.00  0.00    -0.313 N 
ATOM     18  H7  UNL     1     -65.901  16.384  51.830  1.00  0.00     0.169 HD
HETATM   19  C8  UNL     1     -64.931  16.861  53.576  1.00  0.00     0.125 A 
ENDROOT
BRANCH   1  20
HETATM   20  N2  UNL     1     -65.247  18.676  52.132  1.00  0.00    -0.337 N 
ATOM     21  H2  UNL     1     -66.252  18.777  51.989  1.00  0.00     0.168 HD
BRANCH  20  22
HETATM   22  C1  UNL     1     -64.345  19.071  51.109  1.00  0.00     0.175 C 
HETATM   23  N1  UNL     1     -64.136  20.315  50.820  1.00  0.00    -0.395 N 
ATOM     24  H12 UNL     1     -64.643  21.021  51.354  1.00  0.00     0.156 HD
ATOM     25  H11 UNL     1     -63.489  20.598  50.085  1.00  0.00     0.156 HD
ENDBRANCH  20  22
ENDBRANCH   1  20
TORSDOF 2
ENDMDL
MODEL 5
REMARK VINA RESULT: -7.255962780      1.979      3.427
REMARK  2 active torsions:
REMARK  status: ('A' for Active; 'I' for Inactive)
REMARK    1  A    between atoms: C1_4  and  N2_5 
REMARK    2  A    between atoms: N2_5  and  C2_7 
REMARK       I    between atoms: N4_12  and  C4_13 
ROOT
HETATM    1  C2  UNL     1     -64.240  18.163  55.501  1.00  0.00     0.141 A 
HETATM    2  N3  UNL     1     -63.850  17.450  56.555  1.00  0.00    -0.292 N 
ATOM      3  H3  UNL     1     -63.613  17.921  57.429  1.00  0.00     0.172 HD
HETATM    4  C3  UNL     1     -63.768  16.136  56.471  1.00  0.00     0.337 A 
HETATM    5  O1  UNL     1     -63.398  15.507  57.482  1.00  0.00    -0.246 OA
HETATM    6  N4  UNL     1     -64.058  15.400  55.352  1.00  0.00    -0.200 N 
HETATM    7  C4  UNL     1     -63.917  14.024  55.438  1.00  0.00     0.344 C 
HETATM    8  N5  UNL     1     -63.478  13.393  56.671  1.00  0.00    -0.039 NA
HETATM    9  O2  UNL     1     -64.129  13.186  54.544  1.00  0.00    -0.250 OA
HETATM   10  C5  UNL     1     -64.452  16.098  54.282  1.00  0.00     0.154 A 
HETATM   11  N6  UNL     1     -64.756  15.453  53.144  1.00  0.00    -0.302 N 
ATOM     12  H6  UNL     1     -64.691  14.437  53.082  1.00  0.00     0.171 HD
HETATM   13  C6  UNL     1     -65.150  16.190  52.085  1.00  0.00     0.315 A 
HETATM   14  O3  UNL     1     -65.446  15.628  50.994  1.00  0.00    -0.262 OA
HETATM   15  C7  UNL     1     -65.245  17.546  52.142  1.00  0.00     0.314 A 
HETATM   16  O4  UNL     1     -65.612  18.231  51.152  1.00  0.00    -0.262 OA
HETATM   17  N7  UNL     1     -64.943  18.197  53.271  1.00  0.00    -0.313 N 
ATOM     18  H7  UNL     1     -65.012  19.214  53.315  1.00  0.00     0.169 HD
HETATM   19  C8  UNL     1     -64.549  17.498  54.345  1.00  0.00     0.125 A 
ENDROOT
BRANCH   1  20
HETATM   20  N2  UNL     1     -64.316  19.459  55.601  1.00  0.00    -0.337 N 
ATOM     21  H2  UNL     1     -63.600  20.044  55.170  1.00  0.00     0.168 HD
BRANCH  20  22
HETATM   22  C1  UNL     1     -65.390  20.064  56.307  1.00  0.00     0.175 C 
HETATM   23  N1  UNL     1     -66.407  20.583  55.698  1.00  0.00    -0.395 N 
ATOM     24  H12 UNL     1     -66.422  20.549  54.678  1.00  0.00     0.156 HD
ATOM     25  H11 UNL     1     -67.177  21.018  56.205  1.00  0.00     0.156 HD
ENDBRANCH  20  22
ENDBRANCH   1  20
TORSDOF 2
ENDMDL
