MODEL 1
REMARK VINA RESULT: -7.100017441      0.000      0.000
REMARK  5 active torsions:
REMARK  status: ('A' for Active; 'I' for Inactive)
REMARK    1  A    between atoms: N1_2  and  C2_4 
REMARK    2  A    between atoms: C3_9  and  N4_10 
REMARK    3  A    between atoms: C5_13  and  N5_14 
REMARK       I    between atoms: N5_14  and  C6_16 
REMARK    4  A    between atoms: C6_16  and  C7_18 
REMARK    5  A    between atoms: C7_18  and  N6_19 
ROOT
HETATM    1  C2  UNL     1     -65.816  16.667  52.324  1.00  0.00     0.694 A 
HETATM    2  N2  UNL     1     -66.599  15.585  52.325  1.00  0.00    -0.131 N 
ATOM      3  H2  UNL     1     -67.373  15.535  51.664  1.00  0.00     0.205 HD
HETATM    4  N3  UNL     1     -66.403  14.582  53.155  1.00  0.00    -0.268 N 
ATOM      5  H3  UNL     1     -67.027  13.776  53.117  1.00  0.00     0.189 HD
HETATM    6  C3  UNL     1     -65.384  14.592  54.068  1.00  0.00     0.161 A 
HETATM    7  C5  UNL     1     -64.587  15.698  54.062  1.00  0.00     0.169 A 
HETATM    8  N10 UNL     1     -64.815  16.721  53.190  1.00  0.00    -0.172 N 
ATOM      9  H10 UNL     1     -64.206  17.539  53.205  1.00  0.00     0.186 HD
ENDROOT
BRANCH   7  10
HETATM   10  N5  UNL     1     -63.608  15.820  54.864  1.00  0.00    -0.308 N 
HETATM   11  C6  UNL     1     -63.721  16.569  56.051  1.00  0.00     0.243 C 
HETATM   12  O1  UNL     1     -64.304  16.083  57.043  1.00  0.00    -0.271 OA
ATOM     13  H5  UNL     1     -62.722  15.366  54.643  1.00  0.00     0.170 HD
BRANCH  11  14
HETATM   14  C7  UNL     1     -63.157  17.928  56.132  1.00  0.00     0.254 C 
BRANCH  14  15
HETATM   15  N6  UNL     1     -64.113  18.882  55.610  1.00  0.00    -0.262 N 
HETATM   16  C8  UNL     1     -65.280  19.262  56.167  1.00  0.00     0.220 A 
HETATM   17  N7  UNL     1     -65.848  20.170  55.338  1.00  0.00    -0.279 N 
HETATM   18  N8  UNL     1     -65.055  20.346  54.298  1.00  0.00    -0.227 N 
ATOM     19  H7  UNL     1     -66.741  20.639  55.492  1.00  0.00     0.189 HD
HETATM   20  N9  UNL     1     -64.024  19.566  54.482  1.00  0.00    -0.225 N 
ATOM     21  H8  UNL     1     -65.216  20.969  53.506  1.00  0.00     0.210 HD
ATOM     22  H9  UNL     1     -63.241  19.492  53.832  1.00  0.00     0.210 HD
ENDBRANCH  14  15
ENDBRANCH  11  14
ENDBRANCH   7  10
BRANCH   6  23
HETATM   23  N4  UNL     1     -65.239  13.621  54.830  1.00  0.00    -0.377 N 
HETATM   24  C4  UNL     1     -64.888  12.283  54.499  1.00  0.00     0.148 C 
ATOM     25  H4  UNL     1     -65.392  13.807  55.821  1.00  0.00     0.160 HD
ENDBRANCH   6  23
BRANCH   1  26
HETATM   26  N1  UNL     1     -66.045  17.642  51.481  1.00  0.00    -0.229 N 
HETATM   27  C1  UNL     1     -64.922  18.439  51.051  1.00  0.00     0.165 C 
ATOM     28  H1  UNL     1     -66.987  17.831  51.140  1.00  0.00     0.177 HD
ENDBRANCH   1  26
TORSDOF 5
ENDMDL
MODEL 2
REMARK VINA RESULT: -6.943326414      2.180      4.941
REMARK  5 active torsions:
REMARK  status: ('A' for Active; 'I' for Inactive)
REMARK    1  A    between atoms: N1_2  and  C2_4 
REMARK    2  A    between atoms: C3_9  and  N4_10 
REMARK    3  A    between atoms: C5_13  and  N5_14 
REMARK       I    between atoms: N5_14  and  C6_16 
REMARK    4  A    between atoms: C6_16  and  C7_18 
REMARK    5  A    between atoms: C7_18  and  N6_19 
ROOT
HETATM    1  C2  UNL     1     -64.730  19.454  52.597  1.00  0.00     0.694 A 
HETATM    2  N2  UNL     1     -64.505  20.162  53.707  1.00  0.00    -0.131 N 
ATOM      3  H2  UNL     1     -64.473  21.179  53.646  1.00  0.00     0.205 HD
HETATM    4  N3  UNL     1     -64.324  19.587  54.877  1.00  0.00    -0.268 N 
ATOM      5  H3  UNL     1     -64.157  20.170  55.697  1.00  0.00     0.189 HD
HETATM    6  C3  UNL     1     -64.353  18.227  55.023  1.00  0.00     0.161 A 
HETATM    7  C5  UNL     1     -64.582  17.509  53.887  1.00  0.00     0.169 A 
HETATM    8  N10 UNL     1     -64.767  18.133  52.689  1.00  0.00    -0.172 N 
ATOM      9  H10 UNL     1     -64.937  17.575  51.852  1.00  0.00     0.186 HD
ENDROOT
BRANCH   7  10
HETATM   10  N5  UNL     1     -64.632  16.238  53.898  1.00  0.00    -0.308 N 
HETATM   11  C6  UNL     1     -65.013  15.509  52.755  1.00  0.00     0.243 C 
HETATM   12  O1  UNL     1     -64.200  15.339  51.822  1.00  0.00    -0.271 OA
ATOM     13  H5  UNL     1     -64.390  15.737  54.752  1.00  0.00     0.170 HD
BRANCH  11  14
HETATM   14  C7  UNL     1     -66.371  14.945  52.650  1.00  0.00     0.254 C 
BRANCH  14  15
HETATM   15  N6  UNL     1     -66.973  15.360  51.400  1.00  0.00    -0.262 N 
HETATM   16  C8  UNL     1     -67.526  14.575  50.455  1.00  0.00     0.220 A 
HETATM   17  N7  UNL     1     -67.962  15.385  49.461  1.00  0.00    -0.279 N 
HETATM   18  N8  UNL     1     -67.689  16.635  49.783  1.00  0.00    -0.227 N 
ATOM     19  H7  UNL     1     -68.426  15.078  48.605  1.00  0.00     0.189 HD
HETATM   20  N9  UNL     1     -67.097  16.596  50.946  1.00  0.00    -0.225 N 
ATOM     21  H8  UNL     1     -67.897  17.468  49.231  1.00  0.00     0.210 HD
ATOM     22  H9  UNL     1     -66.768  17.422  51.446  1.00  0.00     0.210 HD
ENDBRANCH  14  15
ENDBRANCH  11  14
ENDBRANCH   7  10
BRANCH   6  23
HETATM   23  N4  UNL     1     -64.175  17.730  56.148  1.00  0.00    -0.377 N 
HETATM   24  C4  UNL     1     -62.956  17.582  56.865  1.00  0.00     0.148 C 
ATOM     25  H4  UNL     1     -65.011  17.384  56.619  1.00  0.00     0.160 HD
ENDBRANCH   6  23
BRANCH   1  26
HETATM   26  N1  UNL     1     -64.906  20.066  51.453  1.00  0.00    -0.229 N 
HETATM   27  C1  UNL     1     -63.918  19.864  50.422  1.00  0.00     0.165 C 
ATOM     28  H1  UNL     1     -65.716  20.665  51.297  1.00  0.00     0.177 HD
ENDBRANCH   1  26
TORSDOF 5
ENDMDL
MODEL 3
REMARK VINA RESULT: -6.853660164      2.162      5.073
REMARK  5 active torsions:
REMARK  status: ('A' for Active; 'I' for Inactive)
REMARK    1  A    between atoms: N1_2  and  C2_4 
REMARK    2  A    between atoms: C3_9  and  N4_10 
REMARK    3  A    between atoms: C5_13  and  N5_14 
REMARK       I    between atoms: N5_14  and  C6_16 
REMARK    4  A    between atoms: C6_16  and  C7_18 
REMARK    5  A    between atoms: C7_18  and  N6_19 
ROOT
HETATM    1  C2  UNL     1     -64.567  19.071  51.449  1.00  0.00     0.694 A 
HETATM    2  N2  UNL     1     -64.542  20.092  52.310  1.00  0.00    -0.131 N 
ATOM      3  H2  UNL     1     -64.432  21.040  51.950  1.00  0.00     0.205 HD
HETATM    4  N3  UNL     1     -64.655  19.912  53.609  1.00  0.00    -0.268 N 
ATOM      5  H3  UNL     1     -64.633  20.723  54.227  1.00  0.00     0.189 HD
HETATM    6  C3  UNL     1     -64.803  18.665  54.153  1.00  0.00     0.161 A 
HETATM    7  C5  UNL     1     -64.827  17.627  53.269  1.00  0.00     0.169 A 
HETATM    8  N10 UNL     1     -64.708  17.845  51.929  1.00  0.00    -0.172 N 
ATOM      9  H10 UNL     1     -64.728  17.053  51.287  1.00  0.00     0.186 HD
ENDROOT
BRANCH   7  10
HETATM   10  N5  UNL     1     -64.960  16.423  53.656  1.00  0.00    -0.308 N 
HETATM   11  C6  UNL     1     -64.900  15.350  52.747  1.00  0.00     0.243 C 
HETATM   12  O1  UNL     1     -63.796  14.953  52.319  1.00  0.00    -0.271 OA
ATOM     13  H5  UNL     1     -65.112  16.231  54.646  1.00  0.00     0.170 HD
BRANCH  11  14
HETATM   14  C7  UNL     1     -66.137  14.689  52.292  1.00  0.00     0.254 C 
BRANCH  14  15
HETATM   15  N6  UNL     1     -66.647  15.369  51.120  1.00  0.00    -0.262 N 
HETATM   16  C8  UNL     1     -66.168  15.307  49.862  1.00  0.00     0.220 A 
HETATM   17  N7  UNL     1     -66.951  16.098  49.091  1.00  0.00    -0.279 N 
HETATM   18  N8  UNL     1     -67.888  16.635  49.850  1.00  0.00    -0.227 N 
ATOM     19  H7  UNL     1     -66.835  16.254  48.090  1.00  0.00     0.189 HD
HETATM   20  N9  UNL     1     -67.686  16.184  51.060  1.00  0.00    -0.225 N 
ATOM     21  H8  UNL     1     -68.624  17.275  49.552  1.00  0.00     0.210 HD
ATOM     22  H9  UNL     1     -68.262  16.433  51.864  1.00  0.00     0.210 HD
ENDBRANCH  14  15
ENDBRANCH  11  14
ENDBRANCH   7  10
BRANCH   6  23
HETATM   23  N4  UNL     1     -64.905  18.546  55.386  1.00  0.00    -0.377 N 
HETATM   24  C4  UNL     1     -65.267  19.536  56.340  1.00  0.00     0.148 C 
ATOM     25  H4  UNL     1     -64.704  17.620  55.762  1.00  0.00     0.160 HD
ENDBRANCH   6  23
BRANCH   1  26
HETATM   26  N1  UNL     1     -64.452  19.295  50.164  1.00  0.00    -0.229 N 
HETATM   27  C1  UNL     1     -63.442  20.229  49.730  1.00  0.00     0.165 C 
ATOM     28  H1  UNL     1     -65.057  18.824  49.492  1.00  0.00     0.177 HD
ENDBRANCH   1  26
TORSDOF 5
ENDMDL
MODEL 4
REMARK VINA RESULT: -6.844677271      2.952      4.293
REMARK  5 active torsions:
REMARK  status: ('A' for Active; 'I' for Inactive)
REMARK    1  A    between atoms: N1_2  and  C2_4 
REMARK    2  A    between atoms: C3_9  and  N4_10 
REMARK    3  A    between atoms: C5_13  and  N5_14 
REMARK       I    between atoms: N5_14  and  C6_16 
REMARK    4  A    between atoms: C6_16  and  C7_18 
REMARK    5  A    between atoms: C7_18  and  N6_19 
ROOT
HETATM    1  C2  UNL     1     -63.809  18.577  48.683  1.00  0.00     0.694 A 
HETATM    2  N2  UNL     1     -64.374  17.494  48.143  1.00  0.00    -0.131 N 
ATOM      3  H2  UNL     1     -64.039  17.159  47.240  1.00  0.00     0.205 HD
HETATM    4  N3  UNL     1     -65.352  16.846  48.741  1.00  0.00    -0.268 N 
ATOM      5  H3  UNL     1     -65.751  16.022  48.289  1.00  0.00     0.189 HD
HETATM    6  C3  UNL     1     -65.847  17.247  49.951  1.00  0.00     0.161 A 
HETATM    7  C5  UNL     1     -65.266  18.353  50.498  1.00  0.00     0.169 A 
HETATM    8  N10 UNL     1     -64.254  19.003  49.855  1.00  0.00    -0.172 N 
ATOM      9  H10 UNL     1     -63.835  19.828  50.283  1.00  0.00     0.186 HD
ENDROOT
BRANCH   7  10
HETATM   10  N5  UNL     1     -65.641  18.819  51.619  1.00  0.00    -0.308 N 
HETATM   11  C6  UNL     1     -64.729  19.013  52.675  1.00  0.00     0.243 C 
HETATM   12  O1  UNL     1     -63.965  20.000  52.668  1.00  0.00    -0.271 OA
ATOM     13  H5  UNL     1     -66.623  19.059  51.757  1.00  0.00     0.170 HD
BRANCH  11  14
HETATM   14  C7  UNL     1     -64.669  18.053  53.793  1.00  0.00     0.254 C 
BRANCH  14  15
HETATM   15  N6  UNL     1     -64.868  18.754  55.044  1.00  0.00    -0.262 N 
HETATM   16  C8  UNL     1     -64.426  18.395  56.265  1.00  0.00     0.220 A 
HETATM   17  N7  UNL     1     -64.843  19.339  57.141  1.00  0.00    -0.279 N 
HETATM   18  N8  UNL     1     -65.523  20.258  56.481  1.00  0.00    -0.227 N 
ATOM     19  H7  UNL     1     -64.661  19.341  58.145  1.00  0.00     0.189 HD
HETATM   20  N9  UNL     1     -65.525  19.887  55.229  1.00  0.00    -0.225 N 
ATOM     21  H8  UNL     1     -65.961  21.092  56.871  1.00  0.00     0.210 HD
ATOM     22  H9  UNL     1     -65.981  20.409  54.480  1.00  0.00     0.210 HD
ENDBRANCH  14  15
ENDBRANCH  11  14
ENDBRANCH   7  10
BRANCH   6  23
HETATM   23  N4  UNL     1     -66.772  16.602  50.476  1.00  0.00    -0.377 N 
HETATM   24  C4  UNL     1     -67.911  16.026  49.850  1.00  0.00     0.148 C 
ATOM     25  H4  UNL     1     -66.705  16.470  51.485  1.00  0.00     0.160 HD
ENDBRANCH   6  23
BRANCH   1  26
HETATM   26  N1  UNL     1     -62.838  19.191  48.055  1.00  0.00    -0.229 N 
HETATM   27  C1  UNL     1     -62.661  20.601  48.303  1.00  0.00     0.165 C 
ATOM     28  H1  UNL     1     -62.226  18.688  47.412  1.00  0.00     0.177 HD
ENDBRANCH   1  26
TORSDOF 5
ENDMDL
MODEL 5
REMARK VINA RESULT: -6.535924598      3.079      4.859
REMARK  5 active torsions:
REMARK  status: ('A' for Active; 'I' for Inactive)
REMARK    1  A    between atoms: N1_2  and  C2_4 
REMARK    2  A    between atoms: C3_9  and  N4_10 
REMARK    3  A    between atoms: C5_13  and  N5_14 
REMARK       I    between atoms: N5_14  and  C6_16 
REMARK    4  A    between atoms: C6_16  and  C7_18 
REMARK    5  A    between atoms: C7_18  and  N6_19 
ROOT
HETATM    1  C2  UNL     1     -61.838  13.919  55.907  1.00  0.00     0.694 A 
HETATM    2  N2  UNL     1     -60.861  13.306  56.580  1.00  0.00    -0.131 N 
ATOM      3  H2  UNL     1     -60.543  12.390  56.265  1.00  0.00     0.205 HD
HETATM    4  N3  UNL     1     -60.296  13.849  57.638  1.00  0.00    -0.268 N 
ATOM      5  H3  UNL     1     -59.551  13.343  58.118  1.00  0.00     0.189 HD
HETATM    6  C3  UNL     1     -60.680  15.074  58.110  1.00  0.00     0.161 A 
HETATM    7  C5  UNL     1     -61.678  15.695  57.419  1.00  0.00     0.169 A 
HETATM    8  N10 UNL     1     -62.244  15.108  56.327  1.00  0.00    -0.172 N 
ATOM      9  H10 UNL     1     -62.989  15.591  55.826  1.00  0.00     0.186 HD
ENDROOT
BRANCH   7  10
HETATM   10  N5  UNL     1     -62.119  16.837  57.763  1.00  0.00    -0.308 N 
HETATM   11  C6  UNL     1     -63.048  17.534  56.968  1.00  0.00     0.243 C 
HETATM   12  O1  UNL     1     -64.253  17.209  56.984  1.00  0.00    -0.271 OA
ATOM     13  H5  UNL     1     -61.793  17.256  58.634  1.00  0.00     0.170 HD
BRANCH  11  14
HETATM   14  C7  UNL     1     -62.605  18.649  56.111  1.00  0.00     0.254 C 
BRANCH  14  15
HETATM   15  N6  UNL     1     -63.761  19.332  55.568  1.00  0.00    -0.262 N 
HETATM   16  C8  UNL     1     -64.043  19.562  54.271  1.00  0.00     0.220 A 
HETATM   17  N7  UNL     1     -65.221  20.230  54.225  1.00  0.00    -0.279 N 
HETATM   18  N8  UNL     1     -65.655  20.406  55.459  1.00  0.00    -0.227 N 
ATOM     19  H7  UNL     1     -65.693  20.544  53.377  1.00  0.00     0.189 HD
HETATM   20  N9  UNL     1     -64.766  19.861  56.245  1.00  0.00    -0.225 N 
ATOM     21  H8  UNL     1     -66.515  20.876  55.742  1.00  0.00     0.210 HD
ATOM     22  H9  UNL     1     -64.837  19.846  57.262  1.00  0.00     0.210 HD
ENDBRANCH  14  15
ENDBRANCH  11  14
ENDBRANCH   7  10
BRANCH   6  23
HETATM   23  N4  UNL     1     -60.116  15.545  59.113  1.00  0.00    -0.377 N 
HETATM   24  C4  UNL     1     -59.079  14.966  59.895  1.00  0.00     0.148 C 
ATOM     25  H4  UNL     1     -60.439  16.464  59.415  1.00  0.00     0.160 HD
ENDBRANCH   6  23
BRANCH   1  26
HETATM   26  N1  UNL     1     -62.372  13.344  54.859  1.00  0.00    -0.229 N 
HETATM   27  C1  UNL     1     -63.287  14.120  54.057  1.00  0.00     0.165 C 
ATOM     28  H1  UNL     1     -62.149  12.379  54.617  1.00  0.00     0.177 HD
ENDBRANCH   1  26
TORSDOF 5
ENDMDL
