MODEL 1
REMARK VINA RESULT: -7.762534886      0.000      0.000
REMARK  4 active torsions:
REMARK  status: ('A' for Active; 'I' for Inactive)
REMARK    1  A    between atoms: N1_1  and  C1_4 
REMARK    2  A    between atoms: C4_13  and  C5_14 
REMARK    3  A    between atoms: C6_17  and  O3_18 
REMARK    4  A    between atoms: C9_26  and  N8_27 
ROOT
HETATM    1  C1  UNL     1      17.170  68.637  34.387  1.00  0.00     0.679 A 
HETATM    2  N2  UNL     1      16.523  67.954  35.358  1.00  0.00    -0.174 N 
ATOM      3  H2  UNL     1      15.505  67.975  35.405  1.00  0.00     0.186 HD
HETATM    4  C2  UNL     1      17.221  67.249  36.260  1.00  0.00     0.165 A 
HETATM    5  N3  UNL     1      16.589  66.565  37.232  1.00  0.00    -0.228 N 
HETATM    6  C3  UNL     1      15.252  66.547  37.356  1.00  0.00     0.334 A 
HETATM    7  O1  UNL     1      14.534  67.186  36.546  1.00  0.00    -0.246 OA
HETATM    8  N4  UNL     1      14.645  65.864  38.326  1.00  0.00    -0.301 N 
ATOM      9  H4  UNL     1      13.627  65.862  38.404  1.00  0.00     0.171 HD
HETATM   10  C4  UNL     1      15.408  65.169  39.209  1.00  0.00     0.139 A 
HETATM   11  C6  UNL     1      16.781  65.157  39.123  1.00  0.00     0.144 A 
HETATM   12  C7  UNL     1      17.381  65.897  38.078  1.00  0.00     0.168 A 
HETATM   13  N6  UNL     1      18.706  65.880  38.000  1.00  0.00    -0.282 N 
ATOM     14  H6  UNL     1      19.234  65.342  38.688  1.00  0.00     0.188 HD
HETATM   15  N7  UNL     1      19.376  66.550  37.044  1.00  0.00    -0.292 N 
ATOM     16  H7  UNL     1      20.396  66.521  37.008  1.00  0.00     0.187 HD
HETATM   17  C8  UNL     1      18.686  67.253  36.145  1.00  0.00     0.138 A 
HETATM   18  C9  UNL     1      19.310  67.961  35.141  1.00  0.00     0.146 A 
HETATM   19  N9  UNL     1      18.515  68.634  34.290  1.00  0.00    -0.175 N 
ATOM     20  H9  UNL     1      18.950  69.166  33.536  1.00  0.00     0.186 HD
ENDROOT
BRANCH   1  21
HETATM   21  N1  UNL     1      16.499  69.330  33.499  1.00  0.00    -0.234 N 
ATOM     22  H12 UNL     1      15.907  70.087  33.841  1.00  0.00     0.174 HD
ATOM     23  H11 UNL     1      16.575  69.114  32.505  1.00  0.00     0.174 HD
ENDBRANCH   1  21
BRANCH  18  24
HETATM   24  N8  UNL     1      20.586  67.993  35.002  1.00  0.00    -0.383 N 
ATOM     25  H82 UNL     1      21.150  68.638  35.556  1.00  0.00     0.157 HD
ATOM     26  H81 UNL     1      21.085  67.392  34.346  1.00  0.00     0.157 HD
ENDBRANCH  18  24
BRANCH  11  27
HETATM   27  O3  UNL     1      17.608  64.486  39.969  1.00  0.00    -0.355 OA
ATOM     28  H3  UNL     1      18.263  64.892  40.525  1.00  0.00     0.218 HD
ENDBRANCH  11  27
BRANCH  10  29
HETATM   29  C5  UNL     1      14.677  64.445  40.243  1.00  0.00     0.284 C 
HETATM   30  N5  UNL     1      15.002  63.173  40.742  1.00  0.00    -0.056 NA
HETATM   31  O2  UNL     1      13.634  64.966  40.781  1.00  0.00    -0.269 OA
ENDBRANCH  10  29
TORSDOF 4
ENDMDL
MODEL 2
REMARK VINA RESULT: -7.740188899      2.706      4.654
REMARK  4 active torsions:
REMARK  status: ('A' for Active; 'I' for Inactive)
REMARK    1  A    between atoms: N1_1  and  C1_4 
REMARK    2  A    between atoms: C4_13  and  C5_14 
REMARK    3  A    between atoms: C6_17  and  O3_18 
REMARK    4  A    between atoms: C9_26  and  N8_27 
ROOT
HETATM    1  C1  UNL     1      13.970  70.405  33.107  1.00  0.00     0.679 A 
HETATM    2  N2  UNL     1      14.605  69.631  34.016  1.00  0.00    -0.174 N 
ATOM      3  H2  UNL     1      14.101  69.282  34.830  1.00  0.00     0.186 HD
HETATM    4  C2  UNL     1      15.899  69.320  33.845  1.00  0.00     0.165 A 
HETATM    5  N3  UNL     1      16.541  68.551  34.743  1.00  0.00    -0.228 N 
HETATM    6  C3  UNL     1      15.942  68.058  35.839  1.00  0.00     0.334 A 
HETATM    7  O1  UNL     1      14.732  68.309  36.063  1.00  0.00    -0.246 OA
HETATM    8  N4  UNL     1      16.597  67.298  36.717  1.00  0.00    -0.301 N 
ATOM      9  H4  UNL     1      16.124  66.933  37.544  1.00  0.00     0.171 HD
HETATM   10  C4  UNL     1      17.907  67.019  36.487  1.00  0.00     0.139 A 
HETATM   11  C6  UNL     1      18.564  67.501  35.379  1.00  0.00     0.144 A 
HETATM   12  C7  UNL     1      17.828  68.304  34.476  1.00  0.00     0.168 A 
HETATM   13  N6  UNL     1      18.469  68.764  33.408  1.00  0.00    -0.282 N 
ATOM     14  H6  UNL     1      19.452  68.525  33.282  1.00  0.00     0.188 HD
HETATM   15  N7  UNL     1      17.861  69.537  32.487  1.00  0.00    -0.292 N 
ATOM     16  H7  UNL     1      18.377  69.879  31.676  1.00  0.00     0.187 HD
HETATM   17  C8  UNL     1      16.576  69.848  32.653  1.00  0.00     0.138 A 
HETATM   18  C9  UNL     1      15.895  70.634  31.748  1.00  0.00     0.146 A 
HETATM   19  N9  UNL     1      14.602  70.883  32.015  1.00  0.00    -0.175 N 
ATOM     20  H9  UNL     1      14.073  71.462  31.363  1.00  0.00     0.186 HD
ENDROOT
BRANCH   1  21
HETATM   21  N1  UNL     1      12.706  70.715  33.262  1.00  0.00    -0.234 N 
ATOM     22  H12 UNL     1      12.033  70.283  32.629  1.00  0.00     0.174 HD
ATOM     23  H11 UNL     1      12.416  71.365  33.993  1.00  0.00     0.174 HD
ENDBRANCH   1  21
BRANCH  18  24
HETATM   24  N8  UNL     1      16.446  71.115  30.693  1.00  0.00    -0.383 N 
ATOM     25  H82 UNL     1      16.264  70.700  29.779  1.00  0.00     0.157 HD
ATOM     26  H81 UNL     1      17.078  71.916  30.717  1.00  0.00     0.157 HD
ENDBRANCH  18  24
BRANCH  11  27
HETATM   27  O3  UNL     1      19.870  67.264  35.084  1.00  0.00    -0.355 OA
ATOM     28  H3  UNL     1      20.319  67.584  34.310  1.00  0.00     0.218 HD
ENDBRANCH  11  27
BRANCH  10  29
HETATM   29  C5  UNL     1      18.559  66.183  37.488  1.00  0.00     0.284 C 
HETATM   30  N5  UNL     1      18.250  66.147  38.858  1.00  0.00    -0.056 NA
HETATM   31  O2  UNL     1      19.508  65.387  37.147  1.00  0.00    -0.269 OA
ENDBRANCH  10  29
TORSDOF 4
ENDMDL
MODEL 3
REMARK VINA RESULT: -7.474823483      1.383      2.975
REMARK  4 active torsions:
REMARK  status: ('A' for Active; 'I' for Inactive)
REMARK    1  A    between atoms: N1_1  and  C1_4 
REMARK    2  A    between atoms: C4_13  and  C5_14 
REMARK    3  A    between atoms: C6_17  and  O3_18 
REMARK    4  A    between atoms: C9_26  and  N8_27 
ROOT
HETATM    1  C1  UNL     1      19.229  67.950  35.124  1.00  0.00     0.679 A 
HETATM    2  N2  UNL     1      18.626  67.274  36.129  1.00  0.00    -0.174 N 
ATOM      3  H2  UNL     1      19.189  66.789  36.826  1.00  0.00     0.186 HD
HETATM    4  C2  UNL     1      17.288  67.242  36.207  1.00  0.00     0.165 A 
HETATM    5  N3  UNL     1      16.677  66.573  37.202  1.00  0.00    -0.228 N 
HETATM    6  C3  UNL     1      17.353  65.910  38.154  1.00  0.00     0.334 A 
HETATM    7  O1  UNL     1      18.609  65.897  38.143  1.00  0.00    -0.246 OA
HETATM    8  N4  UNL     1      16.728  65.253  39.131  1.00  0.00    -0.301 N 
ATOM      9  H4  UNL     1      17.259  64.755  39.846  1.00  0.00     0.171 HD
HETATM   10  C4  UNL     1      15.370  65.258  39.155  1.00  0.00     0.139 A 
HETATM   11  C6  UNL     1      14.634  65.922  38.202  1.00  0.00     0.144 A 
HETATM   12  C7  UNL     1      15.340  66.606  37.185  1.00  0.00     0.168 A 
HETATM   13  N6  UNL     1      14.623  67.245  36.268  1.00  0.00    -0.282 N 
ATOM     14  H6  UNL     1      13.605  67.220  36.332  1.00  0.00     0.188 HD
HETATM   15  N7  UNL     1      15.196  67.926  35.258  1.00  0.00    -0.292 N 
ATOM     16  H7  UNL     1      14.622  68.408  34.565  1.00  0.00     0.187 HD
HETATM   17  C8  UNL     1      16.527  67.961  35.176  1.00  0.00     0.138 A 
HETATM   18  C9  UNL     1      17.176  68.639  34.167  1.00  0.00     0.146 A 
HETATM   19  N9  UNL     1      18.520  68.606  34.183  1.00  0.00    -0.175 N 
ATOM     20  H9  UNL     1      19.027  69.100  33.449  1.00  0.00     0.186 HD
ENDROOT
BRANCH   1  21
HETATM   21  N1  UNL     1      20.537  67.988  35.036  1.00  0.00    -0.234 N 
ATOM     22  H12 UNL     1      20.947  68.688  34.418  1.00  0.00     0.174 HD
ATOM     23  H11 UNL     1      21.113  67.339  35.572  1.00  0.00     0.174 HD
ENDBRANCH   1  21
BRANCH  18  24
HETATM   24  N8  UNL     1      16.552  69.279  33.246  1.00  0.00    -0.383 N 
ATOM     25  H82 UNL     1      16.925  69.313  32.297  1.00  0.00     0.157 HD
ATOM     26  H81 UNL     1      15.676  69.774  33.414  1.00  0.00     0.157 HD
ENDBRANCH  18  24
BRANCH  11  27
HETATM   27  O3  UNL     1      13.275  65.972  38.162  1.00  0.00    -0.355 OA
ATOM     28  H3  UNL     1      12.744  66.649  38.567  1.00  0.00     0.218 HD
ENDBRANCH  11  27
BRANCH  10  29
HETATM   29  C5  UNL     1      14.755  64.519  40.252  1.00  0.00     0.284 C 
HETATM   30  N5  UNL     1      13.516  64.809  40.846  1.00  0.00    -0.056 NA
HETATM   31  O2  UNL     1      15.353  63.503  40.762  1.00  0.00    -0.269 OA
ENDBRANCH  10  29
TORSDOF 4
ENDMDL
MODEL 4
REMARK VINA RESULT: -7.364114823      2.615      6.308
REMARK  4 active torsions:
REMARK  status: ('A' for Active; 'I' for Inactive)
REMARK    1  A    between atoms: N1_1  and  C1_4 
REMARK    2  A    between atoms: C4_13  and  C5_14 
REMARK    3  A    between atoms: C6_17  and  O3_18 
REMARK    4  A    between atoms: C9_26  and  N8_27 
ROOT
HETATM    1  C1  UNL     1      16.529  66.462  37.698  1.00  0.00     0.679 A 
HETATM    2  N2  UNL     1      16.014  67.234  36.716  1.00  0.00    -0.174 N 
ATOM      3  H2  UNL     1      15.015  67.440  36.700  1.00  0.00     0.186 HD
HETATM    4  C2  UNL     1      16.815  67.728  35.761  1.00  0.00     0.165 A 
HETATM    5  N3  UNL     1      16.313  68.497  34.778  1.00  0.00    -0.228 N 
HETATM    6  C3  UNL     1      15.009  68.810  34.693  1.00  0.00     0.334 A 
HETATM    7  O1  UNL     1      14.200  68.381  35.553  1.00  0.00    -0.246 OA
HETATM    8  N4  UNL     1      14.532  69.574  33.710  1.00  0.00    -0.301 N 
ATOM      9  H4  UNL     1      13.538  69.800  33.663  1.00  0.00     0.171 HD
HETATM   10  C4  UNL     1      15.396  70.044  32.772  1.00  0.00     0.139 A 
HETATM   11  C6  UNL     1      16.739  69.751  32.817  1.00  0.00     0.144 A 
HETATM   12  C7  UNL     1      17.199  68.937  33.878  1.00  0.00     0.168 A 
HETATM   13  N6  UNL     1      18.497  68.660  33.915  1.00  0.00    -0.282 N 
ATOM     14  H6  UNL     1      19.104  69.039  33.188  1.00  0.00     0.188 HD
HETATM   15  N7  UNL     1      19.038  67.894  34.882  1.00  0.00    -0.292 N 
ATOM     16  H7  UNL     1      20.039  67.695  34.886  1.00  0.00     0.187 HD
HETATM   17  C8  UNL     1      18.245  67.400  35.833  1.00  0.00     0.138 A 
HETATM   18  C9  UNL     1      18.735  66.610  36.850  1.00  0.00     0.146 A 
HETATM   19  N9  UNL     1      17.845  66.167  37.755  1.00  0.00    -0.175 N 
ATOM     20  H9  UNL     1      18.179  65.581  38.520  1.00  0.00     0.186 HD
ENDROOT
BRANCH   1  21
HETATM   21  N1  UNL     1      15.757  65.972  38.638  1.00  0.00    -0.234 N 
ATOM     22  H12 UNL     1      15.787  64.965  38.796  1.00  0.00     0.174 HD
ATOM     23  H11 UNL     1      15.153  66.585  39.186  1.00  0.00     0.174 HD
ENDBRANCH   1  21
BRANCH  18  24
HETATM   24  N8  UNL     1      19.976  66.299  36.953  1.00  0.00    -0.383 N 
ATOM     25  H82 UNL     1      20.694  67.024  36.937  1.00  0.00     0.157 HD
ATOM     26  H81 UNL     1      20.297  65.335  37.051  1.00  0.00     0.157 HD
ENDBRANCH  18  24
BRANCH  11  27
HETATM   27  O3  UNL     1      17.661  70.186  31.917  1.00  0.00    -0.355 OA
ATOM     28  H3  UNL     1      18.455  70.659  32.137  1.00  0.00     0.218 HD
ENDBRANCH  11  27
BRANCH  10  29
HETATM   29  C5  UNL     1      14.804  70.872  31.728  1.00  0.00     0.284 C 
HETATM   30  N5  UNL     1      15.458  71.892  31.018  1.00  0.00    -0.056 NA
HETATM   31  O2  UNL     1      13.578  70.701  31.385  1.00  0.00    -0.269 OA
ENDBRANCH  10  29
TORSDOF 4
ENDMDL
MODEL 5
REMARK VINA RESULT: -7.350317063      3.214      6.807
REMARK  4 active torsions:
REMARK  status: ('A' for Active; 'I' for Inactive)
REMARK    1  A    between atoms: N1_1  and  C1_4 
REMARK    2  A    between atoms: C4_13  and  C5_14 
REMARK    3  A    between atoms: C6_17  and  O3_18 
REMARK    4  A    between atoms: C9_26  and  N8_27 
ROOT
HETATM    1  C1  UNL     1      18.609  66.386  36.836  1.00  0.00     0.679 A 
HETATM    2  N2  UNL     1      18.314  67.226  35.819  1.00  0.00    -0.174 N 
ATOM      3  H2  UNL     1      19.033  67.480  35.142  1.00  0.00     0.186 HD
HETATM    4  C2  UNL     1      17.075  67.727  35.701  1.00  0.00     0.165 A 
HETATM    5  N3  UNL     1      16.770  68.565  34.694  1.00  0.00    -0.228 N 
HETATM    6  C3  UNL     1      17.664  68.944  33.766  1.00  0.00     0.334 A 
HETATM    7  O1  UNL     1      18.844  68.515  33.815  1.00  0.00    -0.246 OA
HETATM    8  N4  UNL     1      17.341  69.776  32.776  1.00  0.00    -0.301 N 
ATOM      9  H4  UNL     1      18.035  70.052  32.081  1.00  0.00     0.171 HD
HETATM   10  C4  UNL     1      16.068  70.249  32.712  1.00  0.00     0.139 A 
HETATM   11  C6  UNL     1      15.117  69.889  33.638  1.00  0.00     0.144 A 
HETATM   12  C7  UNL     1      15.507  69.005  34.671  1.00  0.00     0.168 A 
HETATM   13  N6  UNL     1      14.583  68.662  35.561  1.00  0.00    -0.282 N 
ATOM     14  H6  UNL     1      13.642  69.044  35.467  1.00  0.00     0.188 HD
HETATM   15  N7  UNL     1      14.849  67.826  36.583  1.00  0.00    -0.292 N 
ATOM     16  H7  UNL     1      14.121  67.580  37.254  1.00  0.00     0.187 HD
HETATM   17  C8  UNL     1      16.079  67.326  36.704  1.00  0.00     0.138 A 
HETATM   18  C9  UNL     1      16.417  66.467  37.726  1.00  0.00     0.146 A 
HETATM   19  N9  UNL     1      17.686  66.024  37.751  1.00  0.00    -0.175 N 
ATOM     20  H9  UNL     1      17.965  65.386  38.496  1.00  0.00     0.186 HD
ENDROOT
BRANCH   1  21
HETATM   21  N1  UNL     1      19.816  65.889  36.962  1.00  0.00    -0.234 N 
ATOM     22  H12 UNL     1      20.199  65.372  36.171  1.00  0.00     0.174 HD
ATOM     23  H11 UNL     1      20.346  66.024  37.824  1.00  0.00     0.174 HD
ENDBRANCH   1  21
BRANCH  18  24
HETATM   24  N8  UNL     1      15.580  66.090  38.624  1.00  0.00    -0.383 N 
ATOM     25  H82 UNL     1      15.827  65.352  39.283  1.00  0.00     0.157 HD
ATOM     26  H81 UNL     1      14.650  66.499  38.718  1.00  0.00     0.157 HD
ENDBRANCH  18  24
BRANCH  11  27
HETATM   27  O3  UNL     1      13.828  70.321  33.637  1.00  0.00    -0.355 OA
ATOM     28  H3  UNL     1      13.332  70.555  34.413  1.00  0.00     0.218 HD
ENDBRANCH  11  27
BRANCH  10  29
HETATM   29  C5  UNL     1      15.787  71.153  31.603  1.00  0.00     0.284 C 
HETATM   30  N5  UNL     1      16.645  71.424  30.525  1.00  0.00    -0.056 NA
HETATM   31  O2  UNL     1      14.671  71.787  31.554  1.00  0.00    -0.269 OA
ENDBRANCH  10  29
TORSDOF 4
ENDMDL
