MODEL 1
REMARK VINA RESULT: -7.419087619      0.000      0.000
REMARK  9 active torsions:
REMARK  status: ('A' for Active; 'I' for Inactive)
REMARK    1  A    between atoms: N1_1  and  C1_4 
REMARK    2  A    between atoms: N3_9  and  O1_10 
REMARK    3  A    between atoms: O1_10  and  C4_11 
REMARK    4  A    between atoms: C5_14  and  C6_15 
REMARK    5  A    between atoms: C6_15  and  O3_16 
REMARK    6  A    between atoms: C6_15  and  N5_18 
REMARK    7  A    between atoms: N5_18  and  N6_20 
REMARK    8  A    between atoms: C7_23  and  O4_24 
REMARK    9  A    between atoms: C8_27  and  N8_28 
ROOT
HETATM    1  C1  UNL     1      13.459  68.766  35.128  1.00  0.00     0.692 A 
HETATM    2  N2  UNL     1      14.334  68.093  35.887  1.00  0.00    -0.174 N 
ATOM      3  H2  UNL     1      14.032  67.576  36.712  1.00  0.00     0.186 HD
HETATM    4  C2  UNL     1      15.631  68.126  35.516  1.00  0.00     0.164 A 
HETATM    5  C3  UNL     1      16.522  67.449  36.283  1.00  0.00     0.174 A 
HETATM    6  N3  UNL     1      17.822  67.428  35.995  1.00  0.00    -0.211 N 
HETATM    7  C5  UNL     1      18.275  68.113  34.890  1.00  0.00     0.166 A 
HETATM    8  C7  UNL     1      17.393  68.800  34.105  1.00  0.00     0.199 A 
HETATM    9  N7  UNL     1      16.070  68.803  34.426  1.00  0.00    -0.107 N 
HETATM   10  C8  UNL     1      15.191  69.477  33.668  1.00  0.00     0.700 A 
HETATM   11  N9  UNL     1      13.888  69.440  34.046  1.00  0.00    -0.022 N 
ATOM     12  H9  UNL     1      13.203  69.945  33.483  1.00  0.00     0.203 HD
ENDROOT
BRANCH   7  13
HETATM   13  C6  UNL     1      19.696  68.061  34.651  1.00  0.00     0.188 C 
BRANCH  13  14
HETATM   14  O3  UNL     1      20.110  67.796  33.444  1.00  0.00    -0.343 OA
ATOM     15  H3  UNL     1      19.575  67.232  32.898  1.00  0.00     0.219 HD
ENDBRANCH  13  14
BRANCH  13  16
HETATM   16  N5  UNL     1      20.706  68.260  35.570  1.00  0.00    -0.285 N 
ATOM     17  H5  UNL     1      21.466  67.582  35.611  1.00  0.00     0.188 HD
BRANCH  16  18
HETATM   18  N6  UNL     1      20.736  69.367  36.462  1.00  0.00    -0.343 N 
ATOM     19  H62 UNL     1      20.079  70.126  36.289  1.00  0.00     0.176 HD
ATOM     20  H61 UNL     1      21.378  69.428  37.253  1.00  0.00     0.176 HD
ENDBRANCH  16  18
ENDBRANCH  13  16
ENDBRANCH   7  13
BRANCH   6  21
HETATM   21  O1  UNL     1      18.673  66.722  36.814  1.00  0.00    -0.176 OA
BRANCH  21  22
HETATM   22  C4  UNL     1      18.756  66.982  38.165  1.00  0.00     0.395 C 
HETATM   23  N4  UNL     1      19.326  68.141  38.723  1.00  0.00    -0.031 NA
HETATM   24  O2  UNL     1      18.274  66.094  38.942  1.00  0.00    -0.240 OA
ENDBRANCH  21  22
ENDBRANCH   6  21
BRANCH   8  25
HETATM   25  O4  UNL     1      17.752  69.511  32.980  1.00  0.00    -0.343 OA
ATOM     26  H4  UNL     1      17.184  70.132  32.538  1.00  0.00     0.219 HD
ENDBRANCH   8  25
BRANCH  10  27
HETATM   27  N8  UNL     1      15.538  70.145  32.623  1.00  0.00    -0.233 N 
ATOM     28  H82 UNL     1      16.400  69.908  32.131  1.00  0.00     0.174 HD
ATOM     29  H81 UNL     1      14.983  70.914  32.250  1.00  0.00     0.174 HD
ENDBRANCH  10  27
BRANCH   1  30
HETATM   30  N1  UNL     1      12.194  68.808  35.382  1.00  0.00    -0.234 N 
ATOM     31  H12 UNL     1      11.922  68.986  36.349  1.00  0.00     0.174 HD
ATOM     32  H11 UNL     1      11.478  68.674  34.668  1.00  0.00     0.174 HD
ENDBRANCH   1  30
TORSDOF 9
ENDMDL
MODEL 2
REMARK VINA RESULT: -7.063283886      2.697      5.139
REMARK  9 active torsions:
REMARK  status: ('A' for Active; 'I' for Inactive)
REMARK    1  A    between atoms: N1_1  and  C1_4 
REMARK    2  A    between atoms: N3_9  and  O1_10 
REMARK    3  A    between atoms: O1_10  and  C4_11 
REMARK    4  A    between atoms: C5_14  and  C6_15 
REMARK    5  A    between atoms: C6_15  and  O3_16 
REMARK    6  A    between atoms: C6_15  and  N5_18 
REMARK    7  A    between atoms: N5_18  and  N6_20 
REMARK    8  A    between atoms: C7_23  and  O4_24 
REMARK    9  A    between atoms: C8_27  and  N8_28 
ROOT
HETATM    1  C1  UNL     1      17.481  68.831  34.054  1.00  0.00     0.692 A 
HETATM    2  N2  UNL     1      16.465  68.420  34.825  1.00  0.00    -0.174 N 
ATOM      3  H2  UNL     1      15.502  68.686  34.619  1.00  0.00     0.186 HD
HETATM    4  C2  UNL     1      16.766  67.641  35.884  1.00  0.00     0.164 A 
HETATM    5  C3  UNL     1      15.742  67.224  36.670  1.00  0.00     0.174 A 
HETATM    6  N3  UNL     1      15.945  66.456  37.738  1.00  0.00    -0.211 N 
HETATM    7  C5  UNL     1      17.229  66.073  38.054  1.00  0.00     0.166 A 
HETATM    8  C7  UNL     1      18.273  66.481  37.274  1.00  0.00     0.199 A 
HETATM    9  N7  UNL     1      18.034  67.268  36.189  1.00  0.00    -0.107 N 
HETATM   10  C8  UNL     1      19.050  67.682  35.415  1.00  0.00     0.700 A 
HETATM   11  N9  UNL     1      18.741  68.465  34.351  1.00  0.00    -0.022 N 
ATOM     12  H9  UNL     1      19.497  68.790  33.750  1.00  0.00     0.203 HD
ENDROOT
BRANCH   7  13
HETATM   13  C6  UNL     1      17.374  65.255  39.234  1.00  0.00     0.188 C 
BRANCH  13  14
HETATM   14  O3  UNL     1      18.000  65.757  40.260  1.00  0.00    -0.343 OA
ATOM     15  H3  UNL     1      18.071  65.229  41.047  1.00  0.00     0.219 HD
ENDBRANCH  13  14
BRANCH  13  16
HETATM   16  N5  UNL     1      16.921  63.965  39.416  1.00  0.00    -0.285 N 
ATOM     17  H5  UNL     1      17.345  63.219  38.866  1.00  0.00     0.188 HD
BRANCH  16  18
HETATM   18  N6  UNL     1      15.890  63.626  40.334  1.00  0.00    -0.343 N 
ATOM     19  H62 UNL     1      16.072  63.789  41.324  1.00  0.00     0.176 HD
ATOM     20  H61 UNL     1      14.993  63.235  40.046  1.00  0.00     0.176 HD
ENDBRANCH  16  18
ENDBRANCH  13  16
ENDBRANCH   7  13
BRANCH   6  21
HETATM   21  O1  UNL     1      14.862  66.068  38.494  1.00  0.00    -0.176 OA
BRANCH  21  22
HETATM   22  C4  UNL     1      13.875  65.258  37.977  1.00  0.00     0.395 C 
HETATM   23  N4  UNL     1      12.578  65.691  37.641  1.00  0.00    -0.031 NA
HETATM   24  O2  UNL     1      14.182  64.034  37.801  1.00  0.00    -0.240 OA
ENDBRANCH  21  22
ENDBRANCH   6  21
BRANCH   8  25
HETATM   25  O4  UNL     1      19.590  66.147  37.510  1.00  0.00    -0.343 OA
ATOM     26  H4  UNL     1      20.060  65.468  37.040  1.00  0.00     0.219 HD
ENDBRANCH   8  25
BRANCH  10  27
HETATM   27  N8  UNL     1      20.277  67.370  35.649  1.00  0.00    -0.233 N 
ATOM     28  H82 UNL     1      20.890  68.035  36.122  1.00  0.00     0.174 HD
ATOM     29  H81 UNL     1      20.679  66.472  35.383  1.00  0.00     0.174 HD
ENDBRANCH  10  27
BRANCH   1  30
HETATM   30  N1  UNL     1      17.318  69.579  33.014  1.00  0.00    -0.234 N 
ATOM     31  H12 UNL     1      16.531  69.359  32.404  1.00  0.00     0.174 HD
ATOM     32  H11 UNL     1      17.933  70.361  32.789  1.00  0.00     0.174 HD
ENDBRANCH   1  30
TORSDOF 9
ENDMDL
MODEL 3
REMARK VINA RESULT: -6.877661836      1.760      2.297
REMARK  9 active torsions:
REMARK  status: ('A' for Active; 'I' for Inactive)
REMARK    1  A    between atoms: N1_1  and  C1_4 
REMARK    2  A    between atoms: N3_9  and  O1_10 
REMARK    3  A    between atoms: O1_10  and  C4_11 
REMARK    4  A    between atoms: C5_14  and  C6_15 
REMARK    5  A    between atoms: C6_15  and  O3_16 
REMARK    6  A    between atoms: C6_15  and  N5_18 
REMARK    7  A    between atoms: N5_18  and  N6_20 
REMARK    8  A    between atoms: C7_23  and  O4_24 
REMARK    9  A    between atoms: C8_27  and  N8_28 
ROOT
HETATM    1  C1  UNL     1      14.382  68.263  33.665  1.00  0.00     0.692 A 
HETATM    2  N2  UNL     1      14.519  67.806  34.917  1.00  0.00    -0.174 N 
ATOM      3  H2  UNL     1      13.709  67.531  35.472  1.00  0.00     0.186 HD
HETATM    4  C2  UNL     1      15.770  67.724  35.415  1.00  0.00     0.164 A 
HETATM    5  C3  UNL     1      15.914  67.266  36.684  1.00  0.00     0.174 A 
HETATM    6  N3  UNL     1      17.110  67.155  37.258  1.00  0.00    -0.211 N 
HETATM    7  C5  UNL     1      18.231  67.515  36.546  1.00  0.00     0.166 A 
HETATM    8  C7  UNL     1      18.107  67.978  35.267  1.00  0.00     0.199 A 
HETATM    9  N7  UNL     1      16.871  68.082  34.707  1.00  0.00    -0.107 N 
HETATM   10  C8  UNL     1      16.731  68.539  33.453  1.00  0.00     0.700 A 
HETATM   11  N9  UNL     1      15.470  68.618  32.958  1.00  0.00    -0.022 N 
ATOM     12  H9  UNL     1      15.341  68.963  32.007  1.00  0.00     0.203 HD
ENDROOT
BRANCH   7  13
HETATM   13  C6  UNL     1      19.491  67.384  37.238  1.00  0.00     0.188 C 
BRANCH  13  14
HETATM   14  O3  UNL     1      19.910  66.188  37.537  1.00  0.00    -0.343 OA
ATOM     15  H3  UNL     1      20.801  66.088  37.851  1.00  0.00     0.219 HD
ENDBRANCH  13  14
BRANCH  13  16
HETATM   16  N5  UNL     1      20.333  68.402  37.637  1.00  0.00    -0.285 N 
ATOM     17  H5  UNL     1      20.660  68.411  38.603  1.00  0.00     0.188 HD
BRANCH  16  18
HETATM   18  N6  UNL     1      20.768  69.438  36.766  1.00  0.00    -0.343 N 
ATOM     19  H62 UNL     1      21.636  69.286  36.254  1.00  0.00     0.176 HD
ATOM     20  H61 UNL     1      20.254  70.309  36.636  1.00  0.00     0.176 HD
ENDBRANCH  16  18
ENDBRANCH  13  16
ENDBRANCH   7  13
BRANCH   6  21
HETATM   21  O1  UNL     1      17.187  66.683  38.549  1.00  0.00    -0.176 OA
BRANCH  21  22
HETATM   22  C4  UNL     1      16.793  65.403  38.873  1.00  0.00     0.395 C 
HETATM   23  N4  UNL     1      15.568  65.072  39.479  1.00  0.00    -0.031 NA
HETATM   24  O2  UNL     1      17.617  64.470  38.594  1.00  0.00    -0.240 OA
ENDBRANCH  21  22
ENDBRANCH   6  21
BRANCH   8  25
HETATM   25  O4  UNL     1      19.171  68.359  34.476  1.00  0.00    -0.343 OA
ATOM     26  H4  UNL     1      19.106  68.537  33.545  1.00  0.00     0.219 HD
ENDBRANCH   8  25
BRANCH  10  27
HETATM   27  N8  UNL     1      17.730  68.900  32.726  1.00  0.00    -0.233 N 
ATOM     28  H82 UNL     1      18.604  68.375  32.766  1.00  0.00     0.174 HD
ATOM     29  H81 UNL     1      17.694  69.700  32.095  1.00  0.00     0.174 HD
ENDBRANCH  10  27
BRANCH   1  30
HETATM   30  N1  UNL     1      13.238  68.386  33.081  1.00  0.00    -0.234 N 
ATOM     31  H12 UNL     1      12.524  67.693  33.311  1.00  0.00     0.174 HD
ATOM     32  H11 UNL     1      13.029  69.130  32.416  1.00  0.00     0.174 HD
ENDBRANCH   1  30
TORSDOF 9
ENDMDL
MODEL 4
REMARK VINA RESULT: -6.708274566      1.455      1.554
REMARK  9 active torsions:
REMARK  status: ('A' for Active; 'I' for Inactive)
REMARK    1  A    between atoms: N1_1  and  C1_4 
REMARK    2  A    between atoms: N3_9  and  O1_10 
REMARK    3  A    between atoms: O1_10  and  C4_11 
REMARK    4  A    between atoms: C5_14  and  C6_15 
REMARK    5  A    between atoms: C6_15  and  O3_16 
REMARK    6  A    between atoms: C6_15  and  N5_18 
REMARK    7  A    between atoms: N5_18  and  N6_20 
REMARK    8  A    between atoms: C7_23  and  O4_24 
REMARK    9  A    between atoms: C8_27  and  N8_28 
ROOT
HETATM    1  C1  UNL     1      13.751  68.449  33.671  1.00  0.00     0.692 A 
HETATM    2  N2  UNL     1      14.246  68.118  34.871  1.00  0.00    -0.174 N 
ATOM      3  H2  UNL     1      13.634  67.948  35.668  1.00  0.00     0.186 HD
HETATM    4  C2  UNL     1      15.586  68.017  34.983  1.00  0.00     0.164 A 
HETATM    5  C3  UNL     1      16.094  67.685  36.196  1.00  0.00     0.174 A 
HETATM    6  N3  UNL     1      17.404  67.566  36.400  1.00  0.00    -0.211 N 
HETATM    7  C5  UNL     1      18.269  67.787  35.352  1.00  0.00     0.166 A 
HETATM    8  C7  UNL     1      17.778  68.122  34.123  1.00  0.00     0.199 A 
HETATM    9  N7  UNL     1      16.433  68.236  33.945  1.00  0.00    -0.107 N 
HETATM   10  C8  UNL     1      15.934  68.569  32.744  1.00  0.00     0.700 A 
HETATM   11  N9  UNL     1      14.584  68.668  32.638  1.00  0.00    -0.022 N 
ATOM     12  H9  UNL     1      14.184  68.919  31.734  1.00  0.00     0.203 HD
ENDROOT
BRANCH   7  13
HETATM   13  C6  UNL     1      19.674  67.657  35.652  1.00  0.00     0.188 C 
BRANCH  13  14
HETATM   14  O3  UNL     1      20.127  66.486  35.999  1.00  0.00    -0.343 OA
ATOM     15  H3  UNL     1      20.141  66.264  36.923  1.00  0.00     0.219 HD
ENDBRANCH  13  14
BRANCH  13  16
HETATM   16  N5  UNL     1      20.630  68.652  35.618  1.00  0.00    -0.285 N 
ATOM     17  H5  UNL     1      21.179  68.769  34.766  1.00  0.00     0.188 HD
BRANCH  16  18
HETATM   18  N6  UNL     1      20.886  69.521  36.713  1.00  0.00    -0.343 N 
ATOM     19  H62 UNL     1      20.715  70.517  36.571  1.00  0.00     0.176 HD
ATOM     20  H61 UNL     1      21.227  69.194  37.616  1.00  0.00     0.176 HD
ENDBRANCH  16  18
ENDBRANCH  13  16
ENDBRANCH   7  13
BRANCH   6  21
HETATM   21  O1  UNL     1      17.853  67.227  37.656  1.00  0.00    -0.176 OA
BRANCH  21  22
HETATM   22  C4  UNL     1      17.533  66.018  38.235  1.00  0.00     0.395 C 
HETATM   23  N4  UNL     1      16.454  65.813  39.114  1.00  0.00    -0.031 NA
HETATM   24  O2  UNL     1      18.282  65.031  37.935  1.00  0.00    -0.240 OA
ENDBRANCH  21  22
ENDBRANCH   6  21
BRANCH   8  25
HETATM   25  O4  UNL     1      18.564  68.358  33.014  1.00  0.00    -0.343 OA
ATOM     26  H4  UNL     1      18.979  69.191  32.824  1.00  0.00     0.219 HD
ENDBRANCH   8  25
BRANCH  10  27
HETATM   27  N8  UNL     1      16.677  68.796  31.718  1.00  0.00    -0.233 N 
ATOM     28  H82 UNL     1      17.575  69.267  31.834  1.00  0.00     0.174 HD
ATOM     29  H81 UNL     1      16.413  68.521  30.772  1.00  0.00     0.174 HD
ENDBRANCH  10  27
BRANCH   1  30
HETATM   30  N1  UNL     1      12.487  68.576  33.441  1.00  0.00    -0.234 N 
ATOM     31  H12 UNL     1      11.976  69.241  34.021  1.00  0.00     0.174 HD
ATOM     32  H11 UNL     1      11.997  68.047  32.719  1.00  0.00     0.174 HD
ENDBRANCH   1  30
TORSDOF 9
ENDMDL
MODEL 5
REMARK VINA RESULT: -6.659061636      2.443      4.614
REMARK  9 active torsions:
REMARK  status: ('A' for Active; 'I' for Inactive)
REMARK    1  A    between atoms: N1_1  and  C1_4 
REMARK    2  A    between atoms: N3_9  and  O1_10 
REMARK    3  A    between atoms: O1_10  and  C4_11 
REMARK    4  A    between atoms: C5_14  and  C6_15 
REMARK    5  A    between atoms: C6_15  and  O3_16 
REMARK    6  A    between atoms: C6_15  and  N5_18 
REMARK    7  A    between atoms: N5_18  and  N6_20 
REMARK    8  A    between atoms: C7_23  and  O4_24 
REMARK    9  A    between atoms: C8_27  and  N8_28 
ROOT
HETATM    1  C1  UNL     1      13.271  66.231  38.295  1.00  0.00     0.692 A 
HETATM    2  N2  UNL     1      13.865  66.832  37.256  1.00  0.00    -0.174 N 
ATOM      3  H2  UNL     1      13.319  67.277  36.518  1.00  0.00     0.186 HD
HETATM    4  C2  UNL     1      15.213  66.825  37.222  1.00  0.00     0.164 A 
HETATM    5  C3  UNL     1      15.821  67.429  36.170  1.00  0.00     0.174 A 
HETATM    6  N3  UNL     1      17.146  67.468  36.053  1.00  0.00    -0.211 N 
HETATM    7  C5  UNL     1      17.923  66.879  37.024  1.00  0.00     0.166 A 
HETATM    8  C7  UNL     1      17.331  66.267  38.092  1.00  0.00     0.199 A 
HETATM    9  N7  UNL     1      15.972  66.242  38.184  1.00  0.00    -0.107 N 
HETATM   10  C8  UNL     1      15.375  65.640  39.224  1.00  0.00     0.700 A 
HETATM   11  N9  UNL     1      14.018  65.651  39.252  1.00  0.00    -0.022 N 
ATOM     12  H9  UNL     1      13.543  65.200  40.034  1.00  0.00     0.203 HD
ENDROOT
BRANCH   7  13
HETATM   13  C6  UNL     1      19.350  66.946  36.822  1.00  0.00     0.188 C 
BRANCH  13  14
HETATM   14  O3  UNL     1      20.036  65.841  36.899  1.00  0.00    -0.343 OA
ATOM     15  H3  UNL     1      20.436  65.616  37.732  1.00  0.00     0.219 HD
ENDBRANCH  13  14
BRANCH  13  16
HETATM   16  N5  UNL     1      20.103  68.069  36.551  1.00  0.00    -0.285 N 
ATOM     17  H5  UNL     1      20.261  68.741  37.301  1.00  0.00     0.188 HD
BRANCH  16  18
HETATM   18  N6  UNL     1      20.670  68.335  35.274  1.00  0.00    -0.343 N 
ATOM     19  H62 UNL     1      20.182  68.999  34.674  1.00  0.00     0.176 HD
ATOM     20  H61 UNL     1      21.528  67.895  34.943  1.00  0.00     0.176 HD
ENDBRANCH  16  18
ENDBRANCH  13  16
ENDBRANCH   7  13
BRANCH   6  21
HETATM   21  O1  UNL     1      17.698  68.097  34.960  1.00  0.00    -0.176 OA
BRANCH  21  22
HETATM   22  C4  UNL     1      16.934  68.458  33.872  1.00  0.00     0.395 C 
HETATM   23  N4  UNL     1      16.267  69.689  33.735  1.00  0.00    -0.031 NA
HETATM   24  O2  UNL     1      16.839  67.596  32.937  1.00  0.00    -0.240 OA
ENDBRANCH  21  22
ENDBRANCH   6  21
BRANCH   8  25
HETATM   25  O4  UNL     1      18.025  65.653  39.114  1.00  0.00    -0.343 OA
ATOM     26  H4  UNL     1      18.354  64.764  39.075  1.00  0.00     0.219 HD
ENDBRANCH   8  25
BRANCH  10  27
HETATM   27  N8  UNL     1      16.032  65.063  40.169  1.00  0.00    -0.233 N 
ATOM     28  H82 UNL     1      15.947  65.402  41.128  1.00  0.00     0.174 HD
ATOM     29  H81 UNL     1      16.646  64.265  40.008  1.00  0.00     0.174 HD
ENDBRANCH  10  27
BRANCH   1  30
HETATM   30  N1  UNL     1      11.989  66.173  38.437  1.00  0.00    -0.234 N 
ATOM     31  H12 UNL     1      11.605  66.513  39.319  1.00  0.00     0.174 HD
ATOM     32  H11 UNL     1      11.366  65.808  37.717  1.00  0.00     0.174 HD
ENDBRANCH   1  30
TORSDOF 9
ENDMDL
