MODEL 1
REMARK VINA RESULT: -6.495957301      0.000      0.000
REMARK  3 active torsions:
REMARK  status: ('A' for Active; 'I' for Inactive)
REMARK    1  A    between atoms: N2_5  and  C2_6 
REMARK       I    between atoms: N6_12  and  C4_13 
REMARK       I    between atoms: C4_13  and  N7_14 
REMARK       I    between atoms: C4_13  and  N8_18 
REMARK    2  A    between atoms: C5_24  and  C6_25 
REMARK    3  A    between atoms: C6_25  and  O1_26 
ROOT
HETATM    1  N1  UNL     1      16.486  68.138  31.187  1.00  0.00    -0.384 N 
ATOM      2  H11 UNL     1      16.794  67.196  30.949  1.00  0.00     0.157 HD
ATOM      3  H12 UNL     1      16.232  68.232  30.204  1.00  0.00     0.157 HD
HETATM    4  C1  UNL     1      16.430  68.899  32.248  1.00  0.00     0.149 C 
HETATM    5  N2  UNL     1      16.001  70.214  32.580  1.00  0.00    -0.218 N 
HETATM    6  N4  UNL     1      16.866  70.190  33.652  1.00  0.00    -0.084 NA
HETATM    7  C3  UNL     1      16.797  68.763  33.670  1.00  0.00     0.266 C 
HETATM    8  N5  UNL     1      18.050  68.070  33.879  1.00  0.00    -0.073 NA
HETATM    9  N6  UNL     1      18.235  67.662  35.186  1.00  0.00    -0.178 N 
HETATM   10  C4  UNL     1      19.621  67.393  35.602  1.00  0.00     0.514 C 
HETATM   11  N7  UNL     1      19.617  66.985  36.973  1.00  0.00    -0.030 N 
ATOM     12  H71 UNL     1      20.577  66.799  37.261  1.00  0.00     0.279 HD
ATOM     13  H72 UNL     1      18.997  66.193  37.143  1.00  0.00     0.279 HD
ATOM     14  H73 UNL     1      19.151  67.660  37.580  1.00  0.00     0.279 HD
HETATM   15  N8  UNL     1      20.442  68.573  35.441  1.00  0.00    -0.030 N 
ATOM     16  H81 UNL     1      21.402  68.386  35.730  1.00  0.00     0.279 HD
ATOM     17  H82 UNL     1      20.050  69.376  35.933  1.00  0.00     0.279 HD
ATOM     18  H83 UNL     1      20.397  68.938  34.490  1.00  0.00     0.279 HD
HETATM   19  N9  UNL     1      17.180  67.500  36.102  1.00  0.00    -0.282 N 
ATOM     20  H9  UNL     1      17.398  67.173  37.043  1.00  0.00     0.188 HD
HETATM   21  C5  UNL     1      15.950  67.746  35.804  1.00  0.00     0.100 C 
HETATM   22  C7  UNL     1      15.682  68.209  34.447  1.00  0.00     0.227 C 
HETATM   23  O2  UNL     1      14.499  68.124  33.970  1.00  0.00    -0.286 OA
ENDROOT
BRANCH   5  24
HETATM   24  C2  UNL     1      15.051  71.092  31.970  1.00  0.00     0.205 C 
HETATM   25  N3  UNL     1      15.369  71.906  30.862  1.00  0.00    -0.068 NA
HETATM   26  S1  UNL     1      13.559  71.131  32.602  1.00  0.00    -0.043 SA
ENDBRANCH   5  24
BRANCH  21  27
HETATM   27  C6  UNL     1      14.823  67.579  36.760  1.00  0.00     0.226 C 
BRANCH  27  28
HETATM   28  O1  UNL     1      14.151  68.785  36.928  1.00  0.00    -0.395 OA
ATOM     29  H1  UNL     1      13.295  68.746  36.516  1.00  0.00     0.209 HD
ENDBRANCH  27  28
ENDBRANCH  21  27
TORSDOF 3
ENDMDL
MODEL 2
REMARK VINA RESULT: -6.230195081      6.648      8.496
REMARK  3 active torsions:
REMARK  status: ('A' for Active; 'I' for Inactive)
REMARK    1  A    between atoms: N2_5  and  C2_6 
REMARK       I    between atoms: N6_12  and  C4_13 
REMARK       I    between atoms: C4_13  and  N7_14 
REMARK       I    between atoms: C4_13  and  N8_18 
REMARK    2  A    between atoms: C5_24  and  C6_25 
REMARK    3  A    between atoms: C6_25  and  O1_26 
ROOT
HETATM    1  N1  UNL     1      12.474  66.316  41.972  1.00  0.00    -0.384 N 
ATOM      2  H11 UNL     1      12.760  66.192  42.942  1.00  0.00     0.157 HD
ATOM      3  H12 UNL     1      11.907  67.094  42.307  1.00  0.00     0.157 HD
HETATM    4  C1  UNL     1      12.707  65.754  40.814  1.00  0.00     0.149 C 
HETATM    5  N2  UNL     1      12.307  65.926  39.460  1.00  0.00    -0.218 N 
HETATM    6  N4  UNL     1      12.604  64.599  39.239  1.00  0.00    -0.084 NA
HETATM    7  C3  UNL     1      13.527  64.628  40.329  1.00  0.00     0.266 C 
HETATM    8  N5  UNL     1      13.507  63.479  41.208  1.00  0.00    -0.073 NA
HETATM    9  N6  UNL     1      14.506  62.565  40.932  1.00  0.00    -0.178 N 
HETATM   10  C4  UNL     1      14.295  61.192  41.418  1.00  0.00     0.514 C 
HETATM   11  N7  UNL     1      15.422  60.395  41.043  1.00  0.00    -0.030 N 
ATOM     12  H71 UNL     1      15.276  59.443  41.380  1.00  0.00     0.279 HD
ATOM     13  H72 UNL     1      16.305  60.791  41.364  1.00  0.00     0.279 HD
ATOM     14  H73 UNL     1      15.608  60.429  40.041  1.00  0.00     0.279 HD
HETATM   15  N8  UNL     1      13.086  60.630  40.858  1.00  0.00    -0.030 N 
ATOM     16  H81 UNL     1      12.940  59.679  41.195  1.00  0.00     0.279 HD
ATOM     17  H82 UNL     1      13.086  60.674  39.839  1.00  0.00     0.279 HD
ATOM     18  H83 UNL     1      12.275  61.223  41.037  1.00  0.00     0.279 HD
HETATM   19  N9  UNL     1      15.678  62.890  40.226  1.00  0.00    -0.282 N 
ATOM     20  H9  UNL     1      16.378  62.163  40.082  1.00  0.00     0.188 HD
HETATM   21  C5  UNL     1      15.906  64.068  39.753  1.00  0.00     0.100 C 
HETATM   22  C7  UNL     1      14.880  65.079  39.982  1.00  0.00     0.227 C 
HETATM   23  O2  UNL     1      15.176  66.318  39.875  1.00  0.00    -0.286 OA
ENDROOT
BRANCH   5  24
HETATM   24  C2  UNL     1      11.817  67.063  38.746  1.00  0.00     0.205 C 
HETATM   25  N3  UNL     1      12.607  67.782  37.824  1.00  0.00    -0.068 NA
HETATM   26  S1  UNL     1      10.287  67.518  39.030  1.00  0.00    -0.043 SA
ENDBRANCH   5  24
BRANCH  21  27
HETATM   27  C6  UNL     1      17.139  64.428  39.004  1.00  0.00     0.226 C 
BRANCH  27  28
HETATM   28  O1  UNL     1      17.855  65.401  39.694  1.00  0.00    -0.395 OA
ATOM     29  H1  UNL     1      17.585  66.268  39.416  1.00  0.00     0.209 HD
ENDBRANCH  27  28
ENDBRANCH  21  27
TORSDOF 3
ENDMDL
MODEL 3
REMARK VINA RESULT: -6.009398470      3.184      4.386
REMARK  3 active torsions:
REMARK  status: ('A' for Active; 'I' for Inactive)
REMARK    1  A    between atoms: N2_5  and  C2_6 
REMARK       I    between atoms: N6_12  and  C4_13 
REMARK       I    between atoms: C4_13  and  N7_14 
REMARK       I    between atoms: C4_13  and  N8_18 
REMARK    2  A    between atoms: C5_24  and  C6_25 
REMARK    3  A    between atoms: C6_25  and  O1_26 
ROOT
HETATM    1  N1  UNL     1      17.087  70.368  30.995  1.00  0.00    -0.384 N 
ATOM      2  H11 UNL     1      16.896  71.267  31.438  1.00  0.00     0.157 HD
ATOM      3  H12 UNL     1      17.171  70.892  30.124  1.00  0.00     0.157 HD
HETATM    4  C1  UNL     1      17.185  69.114  31.350  1.00  0.00     0.149 C 
HETATM    5  N2  UNL     1      17.450  67.861  30.732  1.00  0.00    -0.218 N 
HETATM    6  N4  UNL     1      16.772  67.246  31.762  1.00  0.00    -0.084 NA
HETATM    7  C3  UNL     1      17.063  68.358  32.611  1.00  0.00     0.266 C 
HETATM    8  N5  UNL     1      15.979  68.813  33.454  1.00  0.00    -0.073 NA
HETATM    9  N6  UNL     1      16.060  68.336  34.749  1.00  0.00    -0.178 N 
HETATM   10  C4  UNL     1      14.812  68.334  35.528  1.00  0.00     0.514 C 
HETATM   11  N7  UNL     1      15.086  67.812  36.832  1.00  0.00    -0.030 N 
ATOM     12  H71 UNL     1      14.221  67.810  37.372  1.00  0.00     0.279 HD
ATOM     13  H72 UNL     1      15.840  68.314  37.302  1.00  0.00     0.279 HD
ATOM     14  H73 UNL     1      15.528  66.893  36.799  1.00  0.00     0.279 HD
HETATM   15  N8  UNL     1      13.803  67.527  34.878  1.00  0.00    -0.030 N 
ATOM     16  H81 UNL     1      12.938  67.525  35.418  1.00  0.00     0.279 HD
ATOM     17  H82 UNL     1      14.136  66.580  34.695  1.00  0.00     0.279 HD
ATOM     18  H83 UNL     1      13.646  67.822  33.915  1.00  0.00     0.279 HD
HETATM   19  N9  UNL     1      17.253  67.870  35.328  1.00  0.00    -0.282 N 
ATOM     20  H9  UNL     1      17.234  67.555  36.298  1.00  0.00     0.188 HD
HETATM   21  C5  UNL     1      18.371  67.823  34.687  1.00  0.00     0.100 C 
HETATM   22  C7  UNL     1      18.355  68.285  33.303  1.00  0.00     0.227 C 
HETATM   23  O2  UNL     1      19.451  68.609  32.730  1.00  0.00    -0.286 OA
ENDROOT
BRANCH   5  24
HETATM   24  C2  UNL     1      18.149  67.517  29.533  1.00  0.00     0.205 C 
HETATM   25  N3  UNL     1      17.760  67.991  28.262  1.00  0.00    -0.068 NA
HETATM   26  S1  UNL     1      19.434  66.538  29.674  1.00  0.00    -0.043 SA
ENDBRANCH   5  24
BRANCH  21  27
HETATM   27  C6  UNL     1      19.642  67.333  35.284  1.00  0.00     0.226 C 
BRANCH  27  28
HETATM   28  O1  UNL     1      20.598  68.343  35.279  1.00  0.00    -0.395 OA
ATOM     29  H1  UNL     1      20.221  69.153  34.957  1.00  0.00     0.209 HD
ENDBRANCH  27  28
ENDBRANCH  21  27
TORSDOF 3
ENDMDL
MODEL 4
REMARK VINA RESULT: -5.887319409      3.242      4.275
REMARK  3 active torsions:
REMARK  status: ('A' for Active; 'I' for Inactive)
REMARK    1  A    between atoms: N2_5  and  C2_6 
REMARK       I    between atoms: N6_12  and  C4_13 
REMARK       I    between atoms: C4_13  and  N7_14 
REMARK       I    between atoms: C4_13  and  N8_18 
REMARK    2  A    between atoms: C5_24  and  C6_25 
REMARK    3  A    between atoms: C6_25  and  O1_26 
ROOT
HETATM    1  N1  UNL     1      13.126  66.305  34.702  1.00  0.00    -0.384 N 
ATOM      2  H11 UNL     1      13.371  65.543  34.070  1.00  0.00     0.157 HD
ATOM      3  H12 UNL     1      12.165  65.971  34.625  1.00  0.00     0.157 HD
HETATM    4  C1  UNL     1      13.736  67.275  35.332  1.00  0.00     0.149 C 
HETATM    5  N2  UNL     1      13.394  68.338  36.212  1.00  0.00    -0.218 N 
HETATM    6  N4  UNL     1      14.523  69.006  35.791  1.00  0.00    -0.084 NA
HETATM    7  C3  UNL     1      15.125  67.758  35.442  1.00  0.00     0.266 C 
HETATM    8  N5  UNL     1      15.846  67.731  34.188  1.00  0.00    -0.073 NA
HETATM    9  N6  UNL     1      17.212  67.870  34.343  1.00  0.00    -0.178 N 
HETATM   10  C4  UNL     1      17.965  68.327  33.163  1.00  0.00     0.514 C 
HETATM   11  N7  UNL     1      19.350  68.412  33.508  1.00  0.00    -0.030 N 
ATOM     12  H71 UNL     1      19.873  68.728  32.691  1.00  0.00     0.279 HD
ATOM     13  H72 UNL     1      19.712  67.537  33.888  1.00  0.00     0.279 HD
ATOM     14  H73 UNL     1      19.514  68.998  34.327  1.00  0.00     0.279 HD
HETATM   15  N8  UNL     1      17.488  69.618  32.720  1.00  0.00    -0.030 N 
ATOM     16  H81 UNL     1      18.010  69.935  31.902  1.00  0.00     0.279 HD
ATOM     17  H82 UNL     1      17.510  70.308  33.471  1.00  0.00     0.279 HD
ATOM     18  H83 UNL     1      16.483  69.611  32.547  1.00  0.00     0.279 HD
HETATM   19  N9  UNL     1      17.886  67.600  35.547  1.00  0.00    -0.282 N 
ATOM     20  H9  UNL     1      18.899  67.706  35.573  1.00  0.00     0.188 HD
HETATM   21  C5  UNL     1      17.277  67.224  36.619  1.00  0.00     0.100 C 
HETATM   22  C7  UNL     1      15.828  67.082  36.539  1.00  0.00     0.227 C 
HETATM   23  O2  UNL     1      15.209  66.384  37.413  1.00  0.00    -0.286 OA
ENDROOT
BRANCH   5  24
HETATM   24  C2  UNL     1      12.298  68.518  37.114  1.00  0.00     0.205 C 
HETATM   25  N3  UNL     1      11.504  69.684  37.124  1.00  0.00    -0.068 NA
HETATM   26  S1  UNL     1      11.984  67.314  38.153  1.00  0.00    -0.043 SA
ENDBRANCH   5  24
BRANCH  21  27
HETATM   27  C6  UNL     1      17.974  66.934  37.901  1.00  0.00     0.226 C 
BRANCH  27  28
HETATM   28  O1  UNL     1      18.096  65.561  38.084  1.00  0.00    -0.395 OA
ATOM     29  H1  UNL     1      18.889  65.241  37.669  1.00  0.00     0.209 HD
ENDBRANCH  27  28
ENDBRANCH  21  27
TORSDOF 3
ENDMDL
MODEL 5
REMARK VINA RESULT: -5.866426394      3.893      4.505
REMARK  3 active torsions:
REMARK  status: ('A' for Active; 'I' for Inactive)
REMARK    1  A    between atoms: N2_5  and  C2_6 
REMARK       I    between atoms: N6_12  and  C4_13 
REMARK       I    between atoms: C4_13  and  N7_14 
REMARK       I    between atoms: C4_13  and  N8_18 
REMARK    2  A    between atoms: C5_24  and  C6_25 
REMARK    3  A    between atoms: C6_25  and  O1_26 
ROOT
HETATM    1  N1  UNL     1      13.848  66.438  34.809  1.00  0.00    -0.384 N 
ATOM      2  H11 UNL     1      14.250  65.774  34.148  1.00  0.00     0.157 HD
ATOM      3  H12 UNL     1      13.030  66.447  34.201  1.00  0.00     0.157 HD
HETATM    4  C1  UNL     1      14.196  67.025  35.924  1.00  0.00     0.149 C 
HETATM    5  N2  UNL     1      13.636  67.952  36.846  1.00  0.00    -0.218 N 
HETATM    6  N4  UNL     1      14.914  68.295  37.228  1.00  0.00    -0.084 NA
HETATM    7  C3  UNL     1      15.380  67.013  36.804  1.00  0.00     0.266 C 
HETATM    8  N5  UNL     1      16.634  67.000  36.082  1.00  0.00    -0.073 NA
HETATM    9  N6  UNL     1      17.715  66.667  36.876  1.00  0.00    -0.178 N 
HETATM   10  C4  UNL     1      19.041  67.079  36.388  1.00  0.00     0.514 C 
HETATM   11  N7  UNL     1      20.029  66.653  37.331  1.00  0.00    -0.030 N 
ATOM     12  H71 UNL     1      20.948  66.939  36.994  1.00  0.00     0.279 HD
ATOM     13  H72 UNL     1      19.978  65.653  37.525  1.00  0.00     0.279 HD
ATOM     14  H73 UNL     1      19.838  66.989  38.275  1.00  0.00     0.279 HD
HETATM   15  N8  UNL     1      19.104  68.515  36.225  1.00  0.00    -0.030 N 
ATOM     16  H81 UNL     1      20.023  68.800  35.888  1.00  0.00     0.279 HD
ATOM     17  H82 UNL     1      18.848  69.004  37.083  1.00  0.00     0.279 HD
ATOM     18  H83 UNL     1      18.356  68.860  35.624  1.00  0.00     0.279 HD
HETATM   19  N9  UNL     1      17.597  65.972  38.093  1.00  0.00    -0.282 N 
ATOM     20  H9  UNL     1      18.446  65.745  38.609  1.00  0.00     0.188 HD
HETATM   21  C5  UNL     1      16.461  65.609  38.583  1.00  0.00     0.100 C 
HETATM   22  C7  UNL     1      15.271  65.952  37.812  1.00  0.00     0.227 C 
HETATM   23  O2  UNL     1      14.174  65.331  38.028  1.00  0.00    -0.286 OA
ENDROOT
BRANCH   5  24
HETATM   24  C2  UNL     1      12.282  68.293  37.155  1.00  0.00     0.205 C 
HETATM   25  N3  UNL     1      11.588  69.329  36.496  1.00  0.00    -0.068 NA
HETATM   26  S1  UNL     1      11.544  67.434  38.315  1.00  0.00    -0.043 SA
ENDBRANCH   5  24
BRANCH  21  27
HETATM   27  C6  UNL     1      16.317  64.873  39.867  1.00  0.00     0.226 C 
BRANCH  27  28
HETATM   28  O1  UNL     1      17.205  65.375  40.813  1.00  0.00    -0.395 OA
ATOM     29  H1  UNL     1      16.747  65.928  41.435  1.00  0.00     0.209 HD
ENDBRANCH  27  28
ENDBRANCH  21  27
TORSDOF 3
ENDMDL
