MODEL 1
REMARK VINA RESULT: -6.831647169      0.000      0.000
REMARK  7 active torsions:
REMARK  status: ('A' for Active; 'I' for Inactive)
REMARK    1  A    between atoms: C3_7  and  N3_8 
REMARK    2  A    between atoms: N3_8  and  C4_10 
REMARK    3  A    between atoms: C5_13  and  O2_14 
REMARK    4  A    between atoms: N5_18  and  C7_19 
REMARK    5  A    between atoms: C7_19  and  N6_20 
REMARK    6  A    between atoms: N6_20  and  N7_21 
REMARK    7  A    between atoms: N8_25  and  N9_27 
ROOT
HETATM    1  C1  UNL     1      14.954  66.184  37.860  1.00  0.00     0.180 C 
HETATM    2  N1  UNL     1      15.836  66.828  36.909  1.00  0.00    -0.134 N 
HETATM    3  C2  UNL     1      15.239  67.460  35.856  1.00  0.00     0.354 A 
HETATM    4  O1  UNL     1      13.982  67.476  35.733  1.00  0.00    -0.245 OA
HETATM    5  N2  UNL     1      15.942  68.091  34.911  1.00  0.00    -0.140 N 
ATOM      6  H2  UNL     1      15.482  68.558  34.130  1.00  0.00     0.189 HD
HETATM    7  C3  UNL     1      17.280  68.083  35.029  1.00  0.00     0.706 A 
HETATM    8  N5  UNL     1      17.889  67.468  36.053  1.00  0.00     0.004 N 
HETATM    9  C8  UNL     1      17.172  66.819  37.027  1.00  0.00     0.720 A 
HETATM   10  N8  UNL     1      17.773  66.243  37.989  1.00  0.00    -0.138 N 
ATOM     11  H8  UNL     1      18.790  66.313  37.958  1.00  0.00     0.205 HD
ENDROOT
BRANCH   7  12
HETATM   12  N3  UNL     1      18.103  68.730  34.067  1.00  0.00    -0.169 N 
ATOM     13  H3  UNL     1      19.059  68.991  34.310  1.00  0.00     0.186 HD
BRANCH  12  14
HETATM   14  C4  UNL     1      17.636  68.993  32.865  1.00  0.00     0.165 A 
HETATM   15  N4  UNL     1      17.384  70.184  32.323  1.00  0.00    -0.317 N 
HETATM   16  C5  UNL     1      16.918  70.223  31.105  1.00  0.00     0.148 A 
ATOM     17  H4  UNL     1      17.551  71.043  32.847  1.00  0.00     0.170 HD
HETATM   18  C6  UNL     1      16.715  69.041  30.453  1.00  0.00     0.109 A 
HETATM   19  S1  UNL     1      17.205  67.904  31.628  1.00  0.00    -0.061 SA
BRANCH  16  20
HETATM   20  O2  UNL     1      16.623  71.450  30.452  1.00  0.00    -0.346 OA
ATOM     21  H2  UNL     1      15.743  71.669  30.167  1.00  0.00     0.219 HD
ENDBRANCH  16  20
ENDBRANCH  12  14
ENDBRANCH   7  12
BRANCH   8  22
HETATM   22  C7  UNL     1      19.324  67.444  36.205  1.00  0.00     0.301 C 
BRANCH  22  23
HETATM   23  N6  UNL     1      19.805  68.580  36.985  1.00  0.00    -0.127 NA
BRANCH  23  24
HETATM   24  N7  UNL     1      20.838  69.175  36.229  1.00  0.00    -0.347 N 
ATOM     25  H72 UNL     1      21.803  68.849  36.169  1.00  0.00     0.172 HD
ATOM     26  H71 UNL     1      20.425  69.984  35.764  1.00  0.00     0.172 HD
ENDBRANCH  23  24
ENDBRANCH  22  23
ENDBRANCH   8  22
BRANCH  10  27
HETATM   27  N9  UNL     1      17.280  65.549  39.055  1.00  0.00    -0.331 N 
ATOM     28  H92 UNL     1      17.286  64.538  38.919  1.00  0.00     0.177 HD
ATOM     29  H91 UNL     1      16.913  65.876  39.949  1.00  0.00     0.177 HD
ENDBRANCH  10  27
TORSDOF 7
ENDMDL
MODEL 2
REMARK VINA RESULT: -6.767008234      1.909      2.069
REMARK  7 active torsions:
REMARK  status: ('A' for Active; 'I' for Inactive)
REMARK    1  A    between atoms: C3_7  and  N3_8 
REMARK    2  A    between atoms: N3_8  and  C4_10 
REMARK    3  A    between atoms: C5_13  and  O2_14 
REMARK    4  A    between atoms: N5_18  and  C7_19 
REMARK    5  A    between atoms: C7_19  and  N6_20 
REMARK    6  A    between atoms: N6_20  and  N7_21 
REMARK    7  A    between atoms: N8_25  and  N9_27 
ROOT
HETATM    1  C1  UNL     1      14.876  66.330  37.469  1.00  0.00     0.180 C 
HETATM    2  N1  UNL     1      15.823  66.964  36.576  1.00  0.00    -0.134 N 
HETATM    3  C2  UNL     1      15.302  67.599  35.487  1.00  0.00     0.354 A 
HETATM    4  O1  UNL     1      14.056  67.625  35.281  1.00  0.00    -0.245 OA
HETATM    5  N2  UNL     1      16.071  68.222  34.588  1.00  0.00    -0.140 N 
ATOM      6  H2  UNL     1      15.667  68.692  33.779  1.00  0.00     0.189 HD
HETATM    7  C3  UNL     1      17.398  68.204  34.794  1.00  0.00     0.706 A 
HETATM    8  N5  UNL     1      17.933  67.586  35.857  1.00  0.00     0.004 N 
HETATM    9  C8  UNL     1      17.148  66.945  36.782  1.00  0.00     0.720 A 
HETATM   10  N8  UNL     1      17.680  66.366  37.782  1.00  0.00    -0.138 N 
ATOM     11  H8  UNL     1      18.698  66.427  37.819  1.00  0.00     0.205 HD
ENDROOT
BRANCH   7  12
HETATM   12  N3  UNL     1      18.288  68.842  33.888  1.00  0.00    -0.169 N 
ATOM     13  H3  UNL     1      18.685  69.752  34.121  1.00  0.00     0.186 HD
BRANCH  12  14
HETATM   14  C4  UNL     1      18.601  68.263  32.748  1.00  0.00     0.165 A 
HETATM   15  N4  UNL     1      19.724  67.616  32.436  1.00  0.00    -0.317 N 
HETATM   16  C5  UNL     1      19.833  67.112  31.237  1.00  0.00     0.148 A 
ATOM     17  H4  UNL     1      20.478  67.517  33.116  1.00  0.00     0.170 HD
HETATM   18  C6  UNL     1      18.793  67.275  30.370  1.00  0.00     0.109 A 
HETATM   19  S1  UNL     1      17.681  68.158  31.318  1.00  0.00    -0.061 SA
BRANCH  16  20
HETATM   20  O2  UNL     1      20.995  66.407  30.822  1.00  0.00    -0.346 OA
ATOM     21  H2  UNL     1      21.170  65.516  31.102  1.00  0.00     0.219 HD
ENDBRANCH  16  20
ENDBRANCH  12  14
ENDBRANCH   7  12
BRANCH   8  22
HETATM   22  C7  UNL     1      19.355  67.550  36.103  1.00  0.00     0.301 C 
BRANCH  22  23
HETATM   23  N6  UNL     1      19.792  68.681  36.915  1.00  0.00    -0.127 NA
BRANCH  23  24
HETATM   24  N7  UNL     1      20.890  69.258  36.238  1.00  0.00    -0.347 N 
ATOM     25  H72 UNL     1      20.859  70.084  35.641  1.00  0.00     0.172 HD
ATOM     26  H71 UNL     1      21.703  68.685  36.468  1.00  0.00     0.172 HD
ENDBRANCH  23  24
ENDBRANCH  22  23
ENDBRANCH   8  22
BRANCH  10  27
HETATM   27  N9  UNL     1      17.113  65.677  38.815  1.00  0.00    -0.331 N 
ATOM     28  H92 UNL     1      16.851  64.722  38.570  1.00  0.00     0.177 HD
ATOM     29  H91 UNL     1      16.913  65.963  39.774  1.00  0.00     0.177 HD
ENDBRANCH  10  27
TORSDOF 7
ENDMDL
MODEL 3
REMARK VINA RESULT: -6.590646407      3.563      6.415
REMARK  7 active torsions:
REMARK  status: ('A' for Active; 'I' for Inactive)
REMARK    1  A    between atoms: C3_7  and  N3_8 
REMARK    2  A    between atoms: N3_8  and  C4_10 
REMARK    3  A    between atoms: C5_13  and  O2_14 
REMARK    4  A    between atoms: N5_18  and  C7_19 
REMARK    5  A    between atoms: C7_19  and  N6_20 
REMARK    6  A    between atoms: N6_20  and  N7_21 
REMARK    7  A    between atoms: N8_25  and  N9_27 
ROOT
HETATM    1  C1  UNL     1      16.431  69.155  29.735  1.00  0.00     0.180 C 
HETATM    2  N1  UNL     1      17.387  68.635  30.691  1.00  0.00    -0.134 N 
HETATM    3  C2  UNL     1      17.459  69.278  31.892  1.00  0.00     0.354 A 
HETATM    4  O1  UNL     1      16.722  70.273  32.145  1.00  0.00    -0.245 OA
HETATM    5  N2  UNL     1      18.301  68.896  32.858  1.00  0.00    -0.140 N 
ATOM      6  H2  UNL     1      18.343  69.386  33.750  1.00  0.00     0.189 HD
HETATM    7  C3  UNL     1      19.090  67.839  32.604  1.00  0.00     0.706 A 
HETATM    8  N5  UNL     1      19.038  67.192  31.431  1.00  0.00     0.004 N 
HETATM    9  C8  UNL     1      18.175  67.580  30.437  1.00  0.00     0.720 A 
HETATM   10  N8  UNL     1      18.145  66.950  29.332  1.00  0.00    -0.138 N 
ATOM     11  H8  UNL     1      18.796  66.167  29.271  1.00  0.00     0.205 HD
ENDROOT
BRANCH   7  12
HETATM   12  N3  UNL     1      20.013  67.366  33.576  1.00  0.00    -0.169 N 
ATOM     13  H3  UNL     1      20.784  66.761  33.292  1.00  0.00     0.186 HD
BRANCH  12  14
HETATM   14  C4  UNL     1      19.877  67.706  34.840  1.00  0.00     0.165 A 
HETATM   15  N4  UNL     1      20.518  68.665  35.507  1.00  0.00    -0.317 N 
HETATM   16  C5  UNL     1      20.232  68.837  36.769  1.00  0.00     0.148 A 
ATOM     17  H4  UNL     1      21.214  69.249  35.044  1.00  0.00     0.170 HD
HETATM   18  C6  UNL     1      19.293  68.025  37.335  1.00  0.00     0.109 A 
HETATM   19  S1  UNL     1      18.849  67.032  36.020  1.00  0.00    -0.061 SA
BRANCH  16  20
HETATM   20  O2  UNL     1      20.868  69.837  37.554  1.00  0.00    -0.346 OA
ATOM     21  H2  UNL     1      21.575  69.631  38.154  1.00  0.00     0.219 HD
ENDBRANCH  16  20
ENDBRANCH  12  14
ENDBRANCH   7  12
BRANCH   8  22
HETATM   22  C7  UNL     1      19.874  66.053  31.132  1.00  0.00     0.301 C 
BRANCH  22  23
HETATM   23  N6  UNL     1      21.166  66.459  30.588  1.00  0.00    -0.127 NA
BRANCH  23  24
HETATM   24  N7  UNL     1      21.344  65.725  29.395  1.00  0.00    -0.347 N 
ATOM     25  H72 UNL     1      21.446  64.712  29.323  1.00  0.00     0.172 HD
ATOM     26  H71 UNL     1      21.350  66.406  28.635  1.00  0.00     0.172 HD
ENDBRANCH  23  24
ENDBRANCH  22  23
ENDBRANCH   8  22
BRANCH  10  27
HETATM   27  N9  UNL     1      17.384  67.148  28.217  1.00  0.00    -0.331 N 
ATOM     28  H92 UNL     1      16.386  67.017  28.379  1.00  0.00     0.177 HD
ATOM     29  H91 UNL     1      17.653  67.402  27.266  1.00  0.00     0.177 HD
ENDBRANCH  10  27
TORSDOF 7
ENDMDL
MODEL 4
REMARK VINA RESULT: -6.563708605      2.970      5.763
REMARK  7 active torsions:
REMARK  status: ('A' for Active; 'I' for Inactive)
REMARK    1  A    between atoms: C3_7  and  N3_8 
REMARK    2  A    between atoms: N3_8  and  C4_10 
REMARK    3  A    between atoms: C5_13  and  O2_14 
REMARK    4  A    between atoms: N5_18  and  C7_19 
REMARK    5  A    between atoms: C7_19  and  N6_20 
REMARK    6  A    between atoms: N6_20  and  N7_21 
REMARK    7  A    between atoms: N8_25  and  N9_27 
ROOT
HETATM    1  C1  UNL     1      14.557  71.076  31.919  1.00  0.00     0.180 C 
HETATM    2  N1  UNL     1      15.456  70.138  32.559  1.00  0.00    -0.134 N 
HETATM    3  C2  UNL     1      15.071  69.662  33.779  1.00  0.00     0.354 A 
HETATM    4  O1  UNL     1      13.985  70.029  34.310  1.00  0.00    -0.245 OA
HETATM    5  N2  UNL     1      15.813  68.793  34.472  1.00  0.00    -0.140 N 
ATOM      6  H2  UNL     1      15.512  68.446  35.383  1.00  0.00     0.189 HD
HETATM    7  C3  UNL     1      16.971  68.393  33.921  1.00  0.00     0.706 A 
HETATM    8  N5  UNL     1      17.370  68.847  32.724  1.00  0.00     0.004 N 
HETATM    9  C8  UNL     1      16.612  69.740  32.008  1.00  0.00     0.720 A 
HETATM   10  N8  UNL     1      17.012  70.156  30.875  1.00  0.00    -0.138 N 
ATOM     11  H8  UNL     1      17.908  69.774  30.573  1.00  0.00     0.205 HD
ENDROOT
BRANCH   7  12
HETATM   12  N3  UNL     1      17.819  67.470  34.590  1.00  0.00    -0.169 N 
ATOM     13  H3  UNL     1      17.856  66.499  34.283  1.00  0.00     0.186 HD
BRANCH  12  14
HETATM   14  C4  UNL     1      18.558  67.865  35.605  1.00  0.00     0.165 A 
HETATM   15  N4  UNL     1      19.568  68.735  35.598  1.00  0.00    -0.317 N 
HETATM   16  C5  UNL     1      20.174  68.987  36.726  1.00  0.00     0.148 A 
ATOM     17  H4  UNL     1      19.859  69.192  34.734  1.00  0.00     0.170 HD
HETATM   18  C6  UNL     1      19.742  68.346  37.850  1.00  0.00     0.109 A 
HETATM   19  S1  UNL     1      18.464  67.392  37.239  1.00  0.00    -0.061 SA
BRANCH  16  20
HETATM   20  O2  UNL     1      21.259  69.901  36.808  1.00  0.00    -0.346 OA
ATOM     21  H2  UNL     1      21.266  70.620  37.430  1.00  0.00     0.219 HD
ENDBRANCH  16  20
ENDBRANCH  12  14
ENDBRANCH   7  12
BRANCH   8  22
HETATM   22  C7  UNL     1      18.608  68.435  32.108  1.00  0.00     0.301 C 
BRANCH  22  23
HETATM   23  N6  UNL     1      18.428  67.258  31.266  1.00  0.00    -0.127 NA
BRANCH  23  24
HETATM   24  N7  UNL     1      19.580  67.167  30.454  1.00  0.00    -0.347 N 
ATOM     25  H72 UNL     1      20.366  67.818  30.453  1.00  0.00     0.172 HD
ATOM     26  H71 UNL     1      19.464  66.331  29.880  1.00  0.00     0.172 HD
ENDBRANCH  23  24
ENDBRANCH  22  23
ENDBRANCH   8  22
BRANCH  10  27
HETATM   27  N9  UNL     1      16.439  71.029  29.997  1.00  0.00    -0.331 N 
ATOM     28  H92 UNL     1      15.445  71.181  30.166  1.00  0.00     0.177 HD
ATOM     29  H91 UNL     1      16.842  71.542  29.212  1.00  0.00     0.177 HD
ENDBRANCH  10  27
TORSDOF 7
ENDMDL
MODEL 5
REMARK VINA RESULT: -6.532514851      2.649      5.778
REMARK  7 active torsions:
REMARK  status: ('A' for Active; 'I' for Inactive)
REMARK    1  A    between atoms: C3_7  and  N3_8 
REMARK    2  A    between atoms: N3_8  and  C4_10 
REMARK    3  A    between atoms: C5_13  and  O2_14 
REMARK    4  A    between atoms: N5_18  and  C7_19 
REMARK    5  A    between atoms: C7_19  and  N6_20 
REMARK    6  A    between atoms: N6_20  and  N7_21 
REMARK    7  A    between atoms: N8_25  and  N9_27 
ROOT
HETATM    1  C1  UNL     1      17.999  68.169  32.023  1.00  0.00     0.180 C 
HETATM    2  N1  UNL     1      17.785  68.023  33.447  1.00  0.00    -0.134 N 
HETATM    3  C2  UNL     1      16.488  68.043  33.873  1.00  0.00     0.354 A 
HETATM    4  O1  UNL     1      15.535  68.180  33.055  1.00  0.00    -0.245 OA
HETATM    5  N2  UNL     1      16.158  67.918  35.162  1.00  0.00    -0.140 N 
ATOM      6  H2  UNL     1      15.185  67.935  35.465  1.00  0.00     0.189 HD
HETATM    7  C3  UNL     1      17.161  67.771  36.044  1.00  0.00     0.706 A 
HETATM    8  N5  UNL     1      18.442  67.750  35.650  1.00  0.00     0.004 N 
HETATM    9  C8  UNL     1      18.786  67.877  34.327  1.00  0.00     0.720 A 
HETATM   10  N8  UNL     1      20.009  67.853  33.978  1.00  0.00    -0.138 N 
ATOM     11  H8  UNL     1      20.669  67.736  34.747  1.00  0.00     0.205 HD
ENDROOT
BRANCH   7  12
HETATM   12  N3  UNL     1      16.898  67.632  37.434  1.00  0.00    -0.169 N 
ATOM     13  H3  UNL     1      16.998  68.436  38.052  1.00  0.00     0.186 HD
BRANCH  12  14
HETATM   14  C4  UNL     1      16.526  66.469  37.925  1.00  0.00     0.165 A 
HETATM   15  N4  UNL     1      17.271  65.575  38.575  1.00  0.00    -0.317 N 
HETATM   16  C5  UNL     1      16.700  64.473  38.980  1.00  0.00     0.148 A 
ATOM     17  H4  UNL     1      18.261  65.746  38.751  1.00  0.00     0.170 HD
HETATM   18  C6  UNL     1      15.373  64.297  38.715  1.00  0.00     0.109 A 
HETATM   19  S1  UNL     1      14.988  65.737  37.884  1.00  0.00    -0.061 SA
BRANCH  16  20
HETATM   20  O2  UNL     1      17.420  63.468  39.681  1.00  0.00    -0.346 OA
ATOM     21  H2  UNL     1      17.063  62.598  39.818  1.00  0.00     0.219 HD
ENDBRANCH  16  20
ENDBRANCH  12  14
ENDBRANCH   7  12
BRANCH   8  22
HETATM   22  C7  UNL     1      19.539  67.592  36.575  1.00  0.00     0.301 C 
BRANCH  22  23
HETATM   23  N6  UNL     1      19.785  68.813  37.335  1.00  0.00    -0.127 NA
BRANCH  23  24
HETATM   24  N7  UNL     1      20.883  69.453  36.719  1.00  0.00    -0.347 N 
ATOM     25  H72 UNL     1      21.829  69.079  36.642  1.00  0.00     0.172 HD
ATOM     26  H71 UNL     1      20.538  70.350  36.375  1.00  0.00     0.172 HD
ENDBRANCH  23  24
ENDBRANCH  22  23
ENDBRANCH   8  22
BRANCH  10  27
HETATM   27  N9  UNL     1      20.583  67.958  32.745  1.00  0.00    -0.331 N 
ATOM     28  H92 UNL     1      21.494  67.506  32.681  1.00  0.00     0.177 HD
ATOM     29  H91 UNL     1      20.248  68.411  31.893  1.00  0.00     0.177 HD
ENDBRANCH  10  27
TORSDOF 7
ENDMDL
