MODEL 1
REMARK VINA RESULT: -8.461719782      0.000      0.000
REMARK  4 active torsions:
REMARK  status: ('A' for Active; 'I' for Inactive)
REMARK    1  A    between atoms: N1_2  and  C2_4 
REMARK    2  A    between atoms: N4_12  and  C6_13 
REMARK    3  A    between atoms: C6_13  and  N5_14 
REMARK    4  A    between atoms: C9_24  and  N9_25 
ROOT
HETATM    1  N5  UNL     1     -64.169  19.476  52.971  1.00  0.00    -0.216 N 
HETATM    2  N6  UNL     1     -65.262  20.195  53.232  1.00  0.00    -0.233 N 
ATOM      3  H6  UNL     1     -65.792  20.724  52.539  1.00  0.00     0.209 HD
HETATM    4  N7  UNL     1     -65.553  20.123  54.496  1.00  0.00    -0.277 N 
ATOM      5  H7  UNL     1     -66.345  20.587  54.941  1.00  0.00     0.189 HD
HETATM    6  C7  UNL     1     -64.659  19.348  55.131  1.00  0.00     0.165 A 
HETATM    7  C8  UNL     1     -64.536  18.952  56.446  1.00  0.00     0.291 A 
HETATM    8  O2  UNL     1     -65.321  19.312  57.355  1.00  0.00    -0.265 OA
HETATM    9  N8  UNL     1     -63.519  18.138  56.757  1.00  0.00    -0.154 N 
ATOM     10  H8  UNL     1     -63.393  17.823  57.719  1.00  0.00     0.187 HD
HETATM   11  C9  UNL     1     -62.663  17.737  55.799  1.00  0.00     0.680 A 
HETATM   12  N10 UNL     1     -62.788  18.126  54.525  1.00  0.00    -0.172 N 
ATOM     13  H10 UNL     1     -62.112  17.793  53.839  1.00  0.00     0.186 HD
HETATM   14  C10 UNL     1     -63.775  18.942  54.119  1.00  0.00     0.178 A 
ENDROOT
BRANCH   1  15
HETATM   15  C6  UNL     1     -63.529  19.375  51.675  1.00  0.00     0.237 C 
BRANCH  15  16
HETATM   16  N4  UNL     1     -64.194  18.544  50.724  1.00  0.00    -0.231 N 
HETATM   17  C2  UNL     1     -63.871  18.543  49.433  1.00  0.00     0.125 A 
HETATM   18  C3  UNL     1     -64.588  17.731  48.540  1.00  0.00     0.082 A 
HETATM   19  C4  UNL     1     -65.618  16.944  49.006  1.00  0.00     0.119 A 
HETATM   20  N2  UNL     1     -66.345  16.122  48.105  1.00  0.00    -0.096 NA
HETATM   21  C5  UNL     1     -65.872  17.014  50.347  1.00  0.00     0.284 A 
HETATM   22  O1  UNL     1     -66.832  16.275  50.765  1.00  0.00    -0.265 OA
HETATM   23  N3  UNL     1     -65.200  17.779  51.199  1.00  0.00    -0.256 N 
ATOM     24  H3  UNL     1     -65.439  17.788  52.191  1.00  0.00     0.191 HD
BRANCH  17  25
HETATM   25  N1  UNL     1     -62.916  19.211  48.919  1.00  0.00    -0.379 N 
HETATM   26  C1  UNL     1     -63.155  20.396  48.151  1.00  0.00     0.147 C 
ATOM     27  H1  UNL     1     -61.956  18.893  49.057  1.00  0.00     0.160 HD
ENDBRANCH  17  25
ENDBRANCH  15  16
ENDBRANCH   1  15
BRANCH  11  28
HETATM   28  N9  UNL     1     -61.662  16.939  56.091  1.00  0.00    -0.234 N 
ATOM     29  H92 UNL     1     -61.784  16.303  56.879  1.00  0.00     0.174 HD
ATOM     30  H91 UNL     1     -60.803  16.965  55.543  1.00  0.00     0.174 HD
ENDBRANCH  11  28
TORSDOF 4
ENDMDL
MODEL 2
REMARK VINA RESULT: -8.226570041      1.581      1.775
REMARK  4 active torsions:
REMARK  status: ('A' for Active; 'I' for Inactive)
REMARK    1  A    between atoms: N1_2  and  C2_4 
REMARK    2  A    between atoms: N4_12  and  C6_13 
REMARK    3  A    between atoms: C6_13  and  N5_14 
REMARK    4  A    between atoms: C9_24  and  N9_25 
ROOT
HETATM    1  N5  UNL     1     -64.549  18.530  52.460  1.00  0.00    -0.216 N 
HETATM    2  N6  UNL     1     -65.111  19.740  52.474  1.00  0.00    -0.233 N 
ATOM      3  H6  UNL     1     -65.378  20.268  51.643  1.00  0.00     0.209 HD
HETATM    4  N7  UNL     1     -65.268  20.146  53.698  1.00  0.00    -0.277 N 
ATOM      5  H7  UNL     1     -65.677  21.040  53.969  1.00  0.00     0.189 HD
HETATM    6  C7  UNL     1     -64.814  19.217  54.554  1.00  0.00     0.165 A 
HETATM    7  C8  UNL     1     -64.769  19.160  55.931  1.00  0.00     0.291 A 
HETATM    8  O2  UNL     1     -65.176  20.082  56.676  1.00  0.00    -0.265 OA
HETATM    9  N8  UNL     1     -64.260  18.055  56.491  1.00  0.00    -0.154 N 
ATOM     10  H8  UNL     1     -64.208  17.974  57.506  1.00  0.00     0.187 HD
HETATM   11  C9  UNL     1     -63.818  17.050  55.712  1.00  0.00     0.680 A 
HETATM   12  N10 UNL     1     -63.864  17.113  54.376  1.00  0.00    -0.172 N 
ATOM     13  H10 UNL     1     -63.515  16.324  53.833  1.00  0.00     0.186 HD
HETATM   14  C10 UNL     1     -64.355  18.181  53.725  1.00  0.00     0.178 A 
ENDROOT
BRANCH   1  15
HETATM   15  C6  UNL     1     -64.179  17.797  51.267  1.00  0.00     0.237 C 
BRANCH  15  16
HETATM   16  N4  UNL     1     -65.242  17.094  50.623  1.00  0.00    -0.231 N 
HETATM   17  C2  UNL     1     -65.371  17.058  49.300  1.00  0.00     0.125 A 
HETATM   18  C3  UNL     1     -66.460  16.381  48.727  1.00  0.00     0.082 A 
HETATM   19  C4  UNL     1     -67.382  15.760  49.539  1.00  0.00     0.119 A 
HETATM   20  N2  UNL     1     -68.484  15.074  48.962  1.00  0.00    -0.096 NA
HETATM   21  C5  UNL     1     -67.162  15.851  50.884  1.00  0.00     0.284 A 
HETATM   22  O1  UNL     1     -68.029  15.267  51.626  1.00  0.00    -0.265 OA
HETATM   23  N3  UNL     1     -66.137  16.490  51.435  1.00  0.00    -0.256 N 
ATOM     24  H3  UNL     1     -66.027  16.523  52.449  1.00  0.00     0.191 HD
BRANCH  17  25
HETATM   25  N1  UNL     1     -64.551  17.574  48.472  1.00  0.00    -0.379 N 
HETATM   26  C1  UNL     1     -64.550  17.207  47.088  1.00  0.00     0.147 C 
ATOM     27  H1  UNL     1     -63.879  18.267  48.804  1.00  0.00     0.160 HD
ENDBRANCH  17  25
ENDBRANCH  15  16
ENDBRANCH   1  15
BRANCH  11  28
HETATM   28  N9  UNL     1     -63.317  15.962  56.248  1.00  0.00    -0.234 N 
ATOM     29  H92 UNL     1     -62.372  16.017  56.626  1.00  0.00     0.174 HD
ATOM     30  H91 UNL     1     -63.865  15.102  56.280  1.00  0.00     0.174 HD
ENDBRANCH  11  28
TORSDOF 4
ENDMDL
MODEL 3
REMARK VINA RESULT: -8.036420862      1.953      2.672
REMARK  4 active torsions:
REMARK  status: ('A' for Active; 'I' for Inactive)
REMARK    1  A    between atoms: N1_2  and  C2_4 
REMARK    2  A    between atoms: N4_12  and  C6_13 
REMARK    3  A    between atoms: C6_13  and  N5_14 
REMARK    4  A    between atoms: C9_24  and  N9_25 
ROOT
HETATM    1  N5  UNL     1     -64.601  18.477  52.416  1.00  0.00    -0.216 N 
HETATM    2  N6  UNL     1     -65.114  19.709  52.422  1.00  0.00    -0.233 N 
ATOM      3  H6  UNL     1     -65.368  20.239  51.589  1.00  0.00     0.209 HD
HETATM    4  N7  UNL     1     -65.242  20.134  53.643  1.00  0.00    -0.277 N 
ATOM      5  H7  UNL     1     -65.611  21.046  53.909  1.00  0.00     0.189 HD
HETATM    6  C7  UNL     1     -64.816  19.196  54.505  1.00  0.00     0.165 A 
HETATM    7  C8  UNL     1     -64.759  19.151  55.882  1.00  0.00     0.291 A 
HETATM    8  O2  UNL     1     -65.120  20.097  56.621  1.00  0.00    -0.265 OA
HETATM    9  N8  UNL     1     -64.289  18.032  56.448  1.00  0.00    -0.154 N 
ATOM     10  H8  UNL     1     -64.230  17.960  57.463  1.00  0.00     0.187 HD
HETATM   11  C9  UNL     1     -63.896  17.003  55.675  1.00  0.00     0.680 A 
HETATM   12  N10 UNL     1     -63.954  17.054  54.340  1.00  0.00    -0.172 N 
ATOM     13  H10 UNL     1     -63.643  16.245  53.801  1.00  0.00     0.186 HD
HETATM   14  C10 UNL     1     -64.408  18.134  53.682  1.00  0.00     0.178 A 
ENDROOT
BRANCH   1  15
HETATM   15  C6  UNL     1     -64.273  17.718  51.227  1.00  0.00     0.237 C 
BRANCH  15  16
HETATM   16  N4  UNL     1     -65.226  16.722  50.852  1.00  0.00    -0.231 N 
HETATM   17  C2  UNL     1     -65.039  15.430  51.105  1.00  0.00     0.125 A 
HETATM   18  C3  UNL     1     -65.994  14.494  50.676  1.00  0.00     0.082 A 
HETATM   19  C4  UNL     1     -67.115  14.922  49.999  1.00  0.00     0.119 A 
HETATM   20  N2  UNL     1     -68.083  13.978  49.565  1.00  0.00    -0.096 NA
HETATM   21  C5  UNL     1     -67.217  16.268  49.790  1.00  0.00     0.284 A 
HETATM   22  O1  UNL     1     -68.265  16.650  49.160  1.00  0.00    -0.265 OA
HETATM   23  N3  UNL     1     -66.319  17.160  50.190  1.00  0.00    -0.256 N 
ATOM     24  H3  UNL     1     -66.451  18.154  50.002  1.00  0.00     0.191 HD
BRANCH  17  25
HETATM   25  N1  UNL     1     -64.052  14.947  51.751  1.00  0.00    -0.379 N 
HETATM   26  C1  UNL     1     -63.044  14.161  51.106  1.00  0.00     0.147 C 
ATOM     27  H1  UNL     1     -63.979  15.125  52.753  1.00  0.00     0.160 HD
ENDBRANCH  17  25
ENDBRANCH  15  16
ENDBRANCH   1  15
BRANCH  11  28
HETATM   28  N9  UNL     1     -63.434  15.900  56.218  1.00  0.00    -0.234 N 
ATOM     29  H92 UNL     1     -63.014  15.211  55.595  1.00  0.00     0.174 HD
ATOM     30  H91 UNL     1     -63.499  15.753  57.225  1.00  0.00     0.174 HD
ENDBRANCH  11  28
TORSDOF 4
ENDMDL
MODEL 4
REMARK VINA RESULT: -7.992235333      2.749      6.213
REMARK  4 active torsions:
REMARK  status: ('A' for Active; 'I' for Inactive)
REMARK    1  A    between atoms: N1_2  and  C2_4 
REMARK    2  A    between atoms: N4_12  and  C6_13 
REMARK    3  A    between atoms: C6_13  and  N5_14 
REMARK    4  A    between atoms: C9_24  and  N9_25 
ROOT
HETATM    1  N5  UNL     1     -65.610  16.837  51.633  1.00  0.00    -0.216 N 
HETATM    2  N6  UNL     1     -66.668  17.248  50.931  1.00  0.00    -0.233 N 
ATOM      3  H6  UNL     1     -66.819  18.204  50.609  1.00  0.00     0.209 HD
HETATM    4  N7  UNL     1     -67.476  16.254  50.718  1.00  0.00    -0.277 N 
ATOM      5  H7  UNL     1     -68.355  16.315  50.204  1.00  0.00     0.189 HD
HETATM    6  C7  UNL     1     -66.987  15.134  51.273  1.00  0.00     0.165 A 
HETATM    7  C8  UNL     1     -67.448  13.835  51.316  1.00  0.00     0.291 A 
HETATM    8  O2  UNL     1     -68.527  13.466  50.797  1.00  0.00    -0.265 OA
HETATM    9  N8  UNL     1     -66.691  12.928  51.948  1.00  0.00    -0.154 N 
ATOM     10  H8  UNL     1     -66.998  11.957  52.001  1.00  0.00     0.187 HD
HETATM   11  C9  UNL     1     -65.527  13.300  52.512  1.00  0.00     0.680 A 
HETATM   12  N10 UNL     1     -65.087  14.562  52.467  1.00  0.00    -0.172 N 
ATOM     13  H10 UNL     1     -64.198  14.790  52.912  1.00  0.00     0.186 HD
HETATM   14  C10 UNL     1     -65.777  15.541  51.858  1.00  0.00     0.178 A 
ENDROOT
BRANCH   1  15
HETATM   15  C6  UNL     1     -64.536  17.691  52.096  1.00  0.00     0.237 C 
BRANCH  15  16
HETATM   16  N4  UNL     1     -64.633  18.121  53.454  1.00  0.00    -0.231 N 
HETATM   17  C2  UNL     1     -63.902  17.580  54.425  1.00  0.00     0.125 A 
HETATM   18  C3  UNL     1     -64.071  18.020  55.747  1.00  0.00     0.082 A 
HETATM   19  C4  UNL     1     -64.990  19.006  56.028  1.00  0.00     0.119 A 
HETATM   20  N2  UNL     1     -65.163  19.453  57.365  1.00  0.00    -0.096 NA
HETATM   21  C5  UNL     1     -65.691  19.500  54.964  1.00  0.00     0.284 A 
HETATM   22  O1  UNL     1     -66.541  20.418  55.241  1.00  0.00    -0.265 OA
HETATM   23  N3  UNL     1     -65.539  19.090  53.711  1.00  0.00    -0.256 N 
ATOM     24  H3  UNL     1     -66.094  19.498  52.958  1.00  0.00     0.191 HD
BRANCH  17  25
HETATM   25  N1  UNL     1     -63.008  16.689  54.255  1.00  0.00    -0.379 N 
HETATM   26  C1  UNL     1     -62.865  15.586  55.157  1.00  0.00     0.147 C 
ATOM     27  H1  UNL     1     -62.377  16.763  53.456  1.00  0.00     0.160 HD
ENDBRANCH  17  25
ENDBRANCH  15  16
ENDBRANCH   1  15
BRANCH  11  28
HETATM   28  N9  UNL     1     -64.778  12.420  53.134  1.00  0.00    -0.234 N 
ATOM     29  H92 UNL     1     -63.851  12.239  52.750  1.00  0.00     0.174 HD
ATOM     30  H91 UNL     1     -65.122  11.945  53.968  1.00  0.00     0.174 HD
ENDBRANCH  11  28
TORSDOF 4
ENDMDL
MODEL 5
REMARK VINA RESULT: -7.952000120      2.308      3.207
REMARK  4 active torsions:
REMARK  status: ('A' for Active; 'I' for Inactive)
REMARK    1  A    between atoms: N1_2  and  C2_4 
REMARK    2  A    between atoms: N4_12  and  C6_13 
REMARK    3  A    between atoms: C6_13  and  N5_14 
REMARK    4  A    between atoms: C9_24  and  N9_25 
ROOT
HETATM    1  N5  UNL     1     -64.845  18.766  51.847  1.00  0.00    -0.216 N 
HETATM    2  N6  UNL     1     -65.077  20.007  52.278  1.00  0.00    -0.233 N 
ATOM      3  H6  UNL     1     -65.485  20.754  51.716  1.00  0.00     0.209 HD
HETATM    4  N7  UNL     1     -64.707  20.126  53.518  1.00  0.00    -0.277 N 
ATOM      5  H7  UNL     1     -64.783  20.979  54.072  1.00  0.00     0.189 HD
HETATM    6  C7  UNL     1     -64.211  18.961  53.965  1.00  0.00     0.165 A 
HETATM    7  C8  UNL     1     -63.709  18.568  55.188  1.00  0.00     0.291 A 
HETATM    8  O2  UNL     1     -63.614  19.334  56.176  1.00  0.00    -0.265 OA
HETATM    9  N8  UNL     1     -63.306  17.297  55.315  1.00  0.00    -0.154 N 
ATOM     10  H8  UNL     1     -62.928  16.968  56.203  1.00  0.00     0.187 HD
HETATM   11  C9  UNL     1     -63.399  16.456  54.269  1.00  0.00     0.680 A 
HETATM   12  N10 UNL     1     -63.886  16.844  53.085  1.00  0.00    -0.172 N 
ATOM     13  H10 UNL     1     -63.935  16.166  52.325  1.00  0.00     0.186 HD
HETATM   14  C10 UNL     1     -64.314  18.098  52.862  1.00  0.00     0.178 A 
ENDROOT
BRANCH   1  15
HETATM   15  C6  UNL     1     -65.085  18.296  50.499  1.00  0.00     0.237 C 
BRANCH  15  16
HETATM   16  N4  UNL     1     -64.088  18.647  49.538  1.00  0.00    -0.231 N 
HETATM   17  C2  UNL     1     -63.229  17.758  49.049  1.00  0.00     0.125 A 
HETATM   18  C3  UNL     1     -62.247  18.173  48.135  1.00  0.00     0.082 A 
HETATM   19  C4  UNL     1     -62.182  19.494  47.753  1.00  0.00     0.119 A 
HETATM   20  N2  UNL     1     -61.190  19.916  46.829  1.00  0.00    -0.096 NA
HETATM   21  C5  UNL     1     -63.110  20.329  48.309  1.00  0.00     0.284 A 
HETATM   22  O1  UNL     1     -63.037  21.555  47.943  1.00  0.00    -0.265 OA
HETATM   23  N3  UNL     1     -64.041  19.947  49.174  1.00  0.00    -0.256 N 
ATOM     24  H3  UNL     1     -64.706  20.620  49.556  1.00  0.00     0.191 HD
BRANCH  17  25
HETATM   25  N1  UNL     1     -63.233  16.512  49.319  1.00  0.00    -0.379 N 
HETATM   26  C1  UNL     1     -62.561  15.560  48.486  1.00  0.00     0.147 C 
ATOM     27  H1  UNL     1     -63.728  16.185  50.149  1.00  0.00     0.160 HD
ENDBRANCH  17  25
ENDBRANCH  15  16
ENDBRANCH   1  15
BRANCH  11  28
HETATM   28  N9  UNL     1     -63.007  15.208  54.380  1.00  0.00    -0.234 N 
ATOM     29  H92 UNL     1     -63.361  14.542  53.694  1.00  0.00     0.174 HD
ATOM     30  H91 UNL     1     -62.372  14.930  55.128  1.00  0.00     0.174 HD
ENDBRANCH  11  28
TORSDOF 4
ENDMDL
