MODEL 1
REMARK VINA RESULT: -7.885728515      0.000      0.000
REMARK  5 active torsions:
REMARK  status: ('A' for Active; 'I' for Inactive)
REMARK    1  A    between atoms: N1_1  and  N2_4 
REMARK    2  A    between atoms: N2_4  and  C1_6 
REMARK    3  A    between atoms: C1_6  and  C2_8 
REMARK    4  A    between atoms: C5_16  and  C6_17 
REMARK       I    between atoms: C6_17  and  N6_19 
REMARK    5  A    between atoms: N6_19  and  C7_21 
ROOT
HETATM    1  C2  UNL     1     -62.724  17.506  56.269  1.00  0.00     0.089 A 
HETATM    2  C3  UNL     1     -63.664  18.229  56.974  1.00  0.00     0.132 A 
HETATM    3  N3  UNL     1     -64.405  18.905  56.070  1.00  0.00    -0.299 N 
HETATM    4  C4  UNL     1     -65.458  19.763  56.206  1.00  0.00     0.206 A 
HETATM    5  N4  UNL     1     -66.024  20.308  55.116  1.00  0.00    -0.295 N 
ATOM      6  H4  UNL     1     -66.810  20.945  55.247  1.00  0.00     0.187 HD
HETATM    7  N5  UNL     1     -65.615  20.062  53.885  1.00  0.00    -0.292 N 
ATOM      8  H5  UNL     1     -66.068  20.493  53.079  1.00  0.00     0.187 HD
HETATM    9  C5  UNL     1     -64.574  19.215  53.732  1.00  0.00     0.162 A 
HETATM   10  C8  UNL     1     -63.977  18.643  54.836  1.00  0.00     0.147 A 
HETATM   11  N11 UNL     1     -62.956  17.792  54.966  1.00  0.00    -0.336 N 
ATOM     12  H11 UNL     1     -62.421  17.409  54.186  1.00  0.00     0.168 HD
ENDROOT
BRANCH   9  13
HETATM   13  C6  UNL     1     -64.043  18.874  52.421  1.00  0.00     0.291 C 
HETATM   14  O1  UNL     1     -63.659  17.723  52.157  1.00  0.00    -0.265 OA
HETATM   15  N6  UNL     1     -63.984  19.933  51.441  1.00  0.00    -0.152 N 
ATOM     16  H6  UNL     1     -63.921  20.916  51.707  1.00  0.00     0.188 HD
BRANCH  15  17
HETATM   17  C7  UNL     1     -64.017  19.554  50.204  1.00  0.00     0.713 A 
HETATM   18  N7  UNL     1     -64.611  18.491  49.643  1.00  0.00    -0.113 N 
HETATM   19  N8  UNL     1     -64.368  18.519  48.345  1.00  0.00     0.009 NA
ATOM     20  H7  UNL     1     -65.156  17.782  50.134  1.00  0.00     0.203 HD
HETATM   21  N9  UNL     1     -63.631  19.574  48.040  1.00  0.00    -0.212 N 
HETATM   22  N10 UNL     1     -63.416  20.208  49.175  1.00  0.00    -0.118 N 
ATOM     23  H9  UNL     1     -63.296  19.842  47.114  1.00  0.00     0.206 HD
ATOM     24  H10 UNL     1     -62.875  21.068  49.269  1.00  0.00     0.207 HD
ENDBRANCH  15  17
ENDBRANCH   9  13
BRANCH   1  25
HETATM   25  C1  UNL     1     -61.704  16.626  56.829  1.00  0.00     0.143 C 
HETATM   26  S1  UNL     1     -61.457  15.181  56.103  1.00  0.00    -0.057 SA
BRANCH  25  27
HETATM   27  N2  UNL     1     -60.969  17.026  57.955  1.00  0.00    -0.295 N 
ATOM     28  H2  UNL     1     -60.620  17.985  57.981  1.00  0.00     0.187 HD
BRANCH  27  29
HETATM   29  N1  UNL     1     -60.686  16.198  59.042  1.00  0.00    -0.344 N 
ATOM     30  H12 UNL     1     -60.092  15.389  58.862  1.00  0.00     0.176 HD
ATOM     31  H11 UNL     1     -61.034  16.355  59.988  1.00  0.00     0.176 HD
ENDBRANCH  27  29
ENDBRANCH  25  27
ENDBRANCH   1  25
TORSDOF 5
ENDMDL
MODEL 2
REMARK VINA RESULT: -7.632085944      1.205      1.638
REMARK  5 active torsions:
REMARK  status: ('A' for Active; 'I' for Inactive)
REMARK    1  A    between atoms: N1_1  and  N2_4 
REMARK    2  A    between atoms: N2_4  and  C1_6 
REMARK    3  A    between atoms: C1_6  and  C2_8 
REMARK    4  A    between atoms: C5_16  and  C6_17 
REMARK       I    between atoms: C6_17  and  N6_19 
REMARK    5  A    between atoms: N6_19  and  C7_21 
ROOT
HETATM    1  C2  UNL     1     -62.641  17.254  56.320  1.00  0.00     0.089 A 
HETATM    2  C3  UNL     1     -63.351  18.184  57.051  1.00  0.00     0.132 A 
HETATM    3  N3  UNL     1     -64.237  18.760  56.210  1.00  0.00    -0.299 N 
HETATM    4  C4  UNL     1     -65.178  19.730  56.394  1.00  0.00     0.206 A 
HETATM    5  N4  UNL     1     -65.944  20.126  55.362  1.00  0.00    -0.295 N 
ATOM      6  H4  UNL     1     -66.640  20.853  55.528  1.00  0.00     0.187 HD
HETATM    7  N5  UNL     1     -65.842  19.622  54.146  1.00  0.00    -0.292 N 
ATOM      8  H5  UNL     1     -66.439  19.946  53.386  1.00  0.00     0.187 HD
HETATM    9  C5  UNL     1     -64.915  18.660  53.947  1.00  0.00     0.162 A 
HETATM   10  C8  UNL     1     -64.118  18.237  54.989  1.00  0.00     0.147 A 
HETATM   11  N11 UNL     1     -63.146  17.324  55.065  1.00  0.00    -0.336 N 
ATOM     12  H11 UNL     1     -62.827  16.754  54.281  1.00  0.00     0.168 HD
ENDROOT
BRANCH   9  13
HETATM   13  C6  UNL     1     -64.718  18.036  52.646  1.00  0.00     0.291 C 
HETATM   14  O1  UNL     1     -64.129  16.949  52.532  1.00  0.00    -0.265 OA
HETATM   15  N6  UNL     1     -65.238  18.739  51.496  1.00  0.00    -0.152 N 
ATOM     16  H6  UNL     1     -65.370  19.750  51.492  1.00  0.00     0.188 HD
BRANCH  15  17
HETATM   17  C7  UNL     1     -65.526  18.001  50.473  1.00  0.00     0.713 A 
HETATM   18  N7  UNL     1     -64.855  17.816  49.326  1.00  0.00    -0.113 N 
HETATM   19  N8  UNL     1     -65.540  16.970  48.578  1.00  0.00     0.009 NA
ATOM     20  H7  UNL     1     -63.968  18.254  49.075  1.00  0.00     0.203 HD
HETATM   21  N9  UNL     1     -66.643  16.594  49.205  1.00  0.00    -0.212 N 
HETATM   22  N10 UNL     1     -66.635  17.223  50.363  1.00  0.00    -0.118 N 
ATOM     23  H9  UNL     1     -67.355  15.950  48.861  1.00  0.00     0.206 HD
ATOM     24  H10 UNL     1     -67.359  17.138  51.077  1.00  0.00     0.207 HD
ENDBRANCH  15  17
ENDBRANCH   9  13
BRANCH   1  25
HETATM   25  C1  UNL     1     -61.575  16.390  56.814  1.00  0.00     0.143 C 
HETATM   26  S1  UNL     1     -61.353  14.949  56.072  1.00  0.00    -0.057 SA
BRANCH  25  27
HETATM   27  N2  UNL     1     -60.776  16.801  57.891  1.00  0.00    -0.295 N 
ATOM     28  H2  UNL     1     -60.250  17.669  57.791  1.00  0.00     0.187 HD
BRANCH  27  29
HETATM   29  N1  UNL     1     -60.656  16.100  59.091  1.00  0.00    -0.344 N 
ATOM     30  H12 UNL     1     -61.103  15.184  59.136  1.00  0.00     0.176 HD
ATOM     31  H11 UNL     1     -60.155  16.446  59.910  1.00  0.00     0.176 HD
ENDBRANCH  27  29
ENDBRANCH  25  27
ENDBRANCH   1  25
TORSDOF 5
ENDMDL
MODEL 3
REMARK VINA RESULT: -7.502464531      1.090      1.090
REMARK  5 active torsions:
REMARK  status: ('A' for Active; 'I' for Inactive)
REMARK    1  A    between atoms: N1_1  and  N2_4 
REMARK    2  A    between atoms: N2_4  and  C1_6 
REMARK    3  A    between atoms: C1_6  and  C2_8 
REMARK    4  A    between atoms: C5_16  and  C6_17 
REMARK       I    between atoms: C6_17  and  N6_19 
REMARK    5  A    between atoms: N6_19  and  C7_21 
ROOT
HETATM    1  C2  UNL     1     -62.851  17.408  56.101  1.00  0.00     0.089 A 
HETATM    2  C3  UNL     1     -63.781  18.147  56.802  1.00  0.00     0.132 A 
HETATM    3  N3  UNL     1     -64.482  18.865  55.899  1.00  0.00    -0.299 N 
HETATM    4  C4  UNL     1     -65.509  19.753  56.032  1.00  0.00     0.206 A 
HETATM    5  N4  UNL     1     -66.035  20.339  54.942  1.00  0.00    -0.295 N 
ATOM      6  H4  UNL     1     -66.803  20.998  55.070  1.00  0.00     0.187 HD
HETATM    7  N5  UNL     1     -65.609  20.104  53.714  1.00  0.00    -0.292 N 
ATOM      8  H5  UNL     1     -66.031  20.567  52.909  1.00  0.00     0.187 HD
HETATM    9  C5  UNL     1     -64.592  19.227  53.565  1.00  0.00     0.162 A 
HETATM   10  C8  UNL     1     -64.037  18.614  54.668  1.00  0.00     0.147 A 
HETATM   11  N11 UNL     1     -63.047  17.728  54.800  1.00  0.00    -0.336 N 
ATOM     12  H11 UNL     1     -62.509  17.343  54.023  1.00  0.00     0.168 HD
ENDROOT
BRANCH   9  13
HETATM   13  C6  UNL     1     -64.046  18.896  52.257  1.00  0.00     0.291 C 
HETATM   14  O1  UNL     1     -63.706  17.736  51.973  1.00  0.00    -0.265 OA
HETATM   15  N6  UNL     1     -63.919  19.975  51.306  1.00  0.00    -0.152 N 
ATOM     16  H6  UNL     1     -63.820  20.948  51.599  1.00  0.00     0.188 HD
BRANCH  15  17
HETATM   17  C7  UNL     1     -63.939  19.629  50.060  1.00  0.00     0.713 A 
HETATM   18  N7  UNL     1     -64.536  18.586  49.464  1.00  0.00    -0.113 N 
HETATM   19  N8  UNL     1     -64.276  18.645  48.170  1.00  0.00     0.009 NA
ATOM     20  H7  UNL     1     -65.095  17.871  49.929  1.00  0.00     0.203 HD
HETATM   21  N9  UNL     1     -63.523  19.700  47.902  1.00  0.00    -0.212 N 
HETATM   22  N10 UNL     1     -63.317  20.302  49.056  1.00  0.00    -0.118 N 
ATOM     23  H9  UNL     1     -63.173  19.988  46.988  1.00  0.00     0.206 HD
ATOM     24  H10 UNL     1     -62.769  21.154  49.179  1.00  0.00     0.207 HD
ENDBRANCH  15  17
ENDBRANCH   9  13
BRANCH   1  25
HETATM   25  C1  UNL     1     -61.872  16.485  56.663  1.00  0.00     0.143 C 
HETATM   26  S1  UNL     1     -61.310  16.788  58.169  1.00  0.00    -0.057 SA
BRANCH  25  27
HETATM   27  N2  UNL     1     -61.439  15.376  55.919  1.00  0.00    -0.295 N 
ATOM     28  H2  UNL     1     -61.716  15.323  54.938  1.00  0.00     0.187 HD
BRANCH  27  29
HETATM   29  N1  UNL     1     -60.656  14.343  56.434  1.00  0.00    -0.344 N 
ATOM     30  H12 UNL     1     -60.539  14.315  57.447  1.00  0.00     0.176 HD
ATOM     31  H11 UNL     1     -60.203  13.628  55.864  1.00  0.00     0.176 HD
ENDBRANCH  27  29
ENDBRANCH  25  27
ENDBRANCH   1  25
TORSDOF 5
ENDMDL
MODEL 4
REMARK VINA RESULT: -7.393366991      4.031      5.861
REMARK  5 active torsions:
REMARK  status: ('A' for Active; 'I' for Inactive)
REMARK    1  A    between atoms: N1_1  and  N2_4 
REMARK    2  A    between atoms: N2_4  and  C1_6 
REMARK    3  A    between atoms: C1_6  and  C2_8 
REMARK    4  A    between atoms: C5_16  and  C6_17 
REMARK       I    between atoms: C6_17  and  N6_19 
REMARK    5  A    between atoms: N6_19  and  C7_21 
ROOT
HETATM    1  C2  UNL     1     -63.891  18.293  53.879  1.00  0.00     0.089 A 
HETATM    2  C3  UNL     1     -62.822  18.430  54.741  1.00  0.00     0.132 A 
HETATM    3  N3  UNL     1     -62.636  17.233  55.338  1.00  0.00    -0.299 N 
HETATM    4  C4  UNL     1     -61.734  16.802  56.266  1.00  0.00     0.206 A 
HETATM    5  N4  UNL     1     -61.772  15.530  56.700  1.00  0.00    -0.295 N 
ATOM      6  H4  UNL     1     -61.085  15.235  57.393  1.00  0.00     0.187 HD
HETATM    7  N5  UNL     1     -62.654  14.644  56.274  1.00  0.00    -0.292 N 
ATOM      8  H5  UNL     1     -62.655  13.687  56.625  1.00  0.00     0.187 HD
HETATM    9  C5  UNL     1     -63.555  15.054  55.355  1.00  0.00     0.162 A 
HETATM   10  C8  UNL     1     -63.535  16.354  54.895  1.00  0.00     0.147 A 
HETATM   11  N11 UNL     1     -64.293  17.006  54.010  1.00  0.00    -0.336 N 
ATOM     12  H11 UNL     1     -65.071  16.589  53.499  1.00  0.00     0.168 HD
ENDROOT
BRANCH   9  13
HETATM   13  C6  UNL     1     -64.570  14.160  54.818  1.00  0.00     0.291 C 
HETATM   14  O1  UNL     1     -65.551  13.814  55.495  1.00  0.00    -0.265 OA
HETATM   15  N6  UNL     1     -64.385  13.696  53.463  1.00  0.00    -0.152 N 
ATOM     16  H6  UNL     1     -63.464  13.636  53.031  1.00  0.00     0.188 HD
BRANCH  15  17
HETATM   17  C7  UNL     1     -65.465  13.360  52.834  1.00  0.00     0.713 A 
HETATM   18  N7  UNL     1     -65.964  12.145  52.563  1.00  0.00    -0.113 N 
HETATM   19  N8  UNL     1     -67.093  12.301  51.896  1.00  0.00     0.009 NA
ATOM     20  H7  UNL     1     -65.544  11.253  52.827  1.00  0.00     0.203 HD
HETATM   21  N9  UNL     1     -67.349  13.587  51.723  1.00  0.00    -0.212 N 
HETATM   22  N10 UNL     1     -66.355  14.236  52.296  1.00  0.00    -0.118 N 
ATOM     23  H9  UNL     1     -68.152  13.995  51.242  1.00  0.00     0.206 HD
ATOM     24  H10 UNL     1     -66.266  15.251  52.332  1.00  0.00     0.207 HD
ENDBRANCH  15  17
ENDBRANCH   9  13
BRANCH   1  25
HETATM   25  C1  UNL     1     -64.454  19.328  53.021  1.00  0.00     0.143 C 
HETATM   26  S1  UNL     1     -64.146  19.243  51.416  1.00  0.00    -0.057 SA
BRANCH  25  27
HETATM   27  N2  UNL     1     -65.234  20.356  53.573  1.00  0.00    -0.295 N 
ATOM     28  H2  UNL     1     -65.247  21.256  53.093  1.00  0.00     0.187 HD
BRANCH  27  29
HETATM   29  N1  UNL     1     -65.992  20.226  54.738  1.00  0.00    -0.344 N 
ATOM     30  H12 UNL     1     -65.485  20.253  55.623  1.00  0.00     0.176 HD
ATOM     31  H11 UNL     1     -67.005  20.106  54.752  1.00  0.00     0.176 HD
ENDBRANCH  27  29
ENDBRANCH  25  27
ENDBRANCH   1  25
TORSDOF 5
ENDMDL
MODEL 5
REMARK VINA RESULT: -7.388962298      3.276      7.254
REMARK  5 active torsions:
REMARK  status: ('A' for Active; 'I' for Inactive)
REMARK    1  A    between atoms: N1_1  and  N2_4 
REMARK    2  A    between atoms: N2_4  and  C1_6 
REMARK    3  A    between atoms: C1_6  and  C2_8 
REMARK    4  A    between atoms: C5_16  and  C6_17 
REMARK       I    between atoms: C6_17  and  N6_19 
REMARK    5  A    between atoms: N6_19  and  C7_21 
ROOT
HETATM    1  C2  UNL     1     -64.641  17.843  52.796  1.00  0.00     0.089 A 
HETATM    2  C3  UNL     1     -65.327  16.792  52.224  1.00  0.00     0.132 A 
HETATM    3  N3  UNL     1     -65.157  15.720  53.029  1.00  0.00    -0.299 N 
HETATM    4  C4  UNL     1     -65.607  14.435  52.951  1.00  0.00     0.206 A 
HETATM    5  N4  UNL     1     -65.282  13.550  53.910  1.00  0.00    -0.295 N 
ATOM      6  H4  UNL     1     -65.632  12.596  53.827  1.00  0.00     0.187 HD
HETATM    7  N5  UNL     1     -64.532  13.854  54.955  1.00  0.00    -0.292 N 
ATOM      8  H5  UNL     1     -64.305  13.158  55.664  1.00  0.00     0.187 HD
HETATM    9  C5  UNL     1     -64.079  15.124  55.047  1.00  0.00     0.162 A 
HETATM   10  C8  UNL     1     -64.399  16.048  54.076  1.00  0.00     0.147 A 
HETATM   11  N11 UNL     1     -64.091  17.338  53.926  1.00  0.00    -0.336 N 
ATOM     12  H11 UNL     1     -63.516  17.874  54.578  1.00  0.00     0.168 HD
ENDROOT
BRANCH   9  13
HETATM   13  C6  UNL     1     -63.246  15.565  56.156  1.00  0.00     0.291 C 
HETATM   14  O1  UNL     1     -63.712  16.244  57.085  1.00  0.00    -0.265 OA
HETATM   15  N6  UNL     1     -61.854  15.179  56.126  1.00  0.00    -0.152 N 
ATOM     16  H6  UNL     1     -61.366  14.974  55.254  1.00  0.00     0.188 HD
BRANCH  15  17
HETATM   17  C7  UNL     1     -61.268  15.109  57.277  1.00  0.00     0.713 A 
HETATM   18  N7  UNL     1     -60.853  14.038  57.970  1.00  0.00    -0.113 N 
HETATM   19  N8  UNL     1     -60.309  14.461  59.097  1.00  0.00     0.009 NA
ATOM     20  H7  UNL     1     -60.941  13.065  57.677  1.00  0.00     0.203 HD
HETATM   21  N9  UNL     1     -60.356  15.782  59.162  1.00  0.00    -0.212 N 
HETATM   22  N10 UNL     1     -60.942  16.179  58.049  1.00  0.00    -0.118 N 
ATOM     23  H9  UNL     1     -60.011  16.372  59.918  1.00  0.00     0.206 HD
ATOM     24  H10 UNL     1     -61.125  17.152  57.803  1.00  0.00     0.207 HD
ENDBRANCH  15  17
ENDBRANCH   9  13
BRANCH   1  25
HETATM   25  C1  UNL     1     -64.543  19.202  52.276  1.00  0.00     0.143 C 
HETATM   26  S1  UNL     1     -64.101  19.393  50.713  1.00  0.00    -0.057 SA
BRANCH  25  27
HETATM   27  N2  UNL     1     -64.823  20.297  53.108  1.00  0.00    -0.295 N 
ATOM     28  H2  UNL     1     -64.287  21.153  52.966  1.00  0.00     0.187 HD
BRANCH  27  29
HETATM   29  N1  UNL     1     -65.789  20.290  54.115  1.00  0.00    -0.344 N 
ATOM     30  H12 UNL     1     -65.550  19.803  54.979  1.00  0.00     0.176 HD
ATOM     31  H11 UNL     1     -66.703  20.736  54.036  1.00  0.00     0.176 HD
ENDBRANCH  27  29
ENDBRANCH  25  27
ENDBRANCH   1  25
TORSDOF 5
ENDMDL
