MODEL 1
REMARK VINA RESULT: -7.939056718      0.000      0.000
REMARK  4 active torsions:
REMARK  status: ('A' for Active; 'I' for Inactive)
REMARK    1  A    between atoms: C3_7  and  N3_8 
REMARK    2  A    between atoms: C4_14  and  C5_15 
REMARK    3  A    between atoms: N7_17  and  N8_19 
REMARK    4  A    between atoms: N8_19  and  C6_21 
ROOT
HETATM    1  C1  UNL     1     -62.621  16.386  55.526  1.00  0.00     0.180 C 
HETATM    2  N1  UNL     1     -63.573  17.460  55.298  1.00  0.00    -0.134 N 
HETATM    3  C2  UNL     1     -63.790  18.388  56.251  1.00  0.00     0.354 A 
HETATM    4  O1  UNL     1     -63.156  18.307  57.334  1.00  0.00    -0.245 OA
HETATM    5  N2  UNL     1     -64.673  19.383  56.039  1.00  0.00    -0.139 N 
ATOM      6  H2  UNL     1     -64.817  20.071  56.777  1.00  0.00     0.189 HD
HETATM    7  C3  UNL     1     -65.372  19.510  54.898  1.00  0.00     0.716 A 
HETATM    8  N4  UNL     1     -65.157  18.580  53.939  1.00  0.00     0.092 N 
HETATM    9  N5  UNL     1     -65.683  18.449  52.749  1.00  0.00    -0.246 N 
ATOM     10  H5  UNL     1     -66.380  19.068  52.337  1.00  0.00     0.190 HD
HETATM   11  C4  UNL     1     -65.147  17.347  52.146  1.00  0.00     0.179 A 
HETATM   12  N11 UNL     1     -64.280  16.836  53.038  1.00  0.00    -0.169 N 
ATOM     13  H11 UNL     1     -63.711  16.002  52.889  1.00  0.00     0.186 HD
HETATM   14  C10 UNL     1     -64.272  17.585  54.156  1.00  0.00     0.726 A 
ENDROOT
BRANCH  11  15
HETATM   15  C5  UNL     1     -65.452  16.837  50.818  1.00  0.00     0.177 C 
HETATM   16  N6  UNL     1     -66.281  15.694  50.654  1.00  0.00    -0.077 NA
HETATM   17  N7  UNL     1     -64.967  17.427  49.801  1.00  0.00    -0.283 N 
ATOM     18  H7  UNL     1     -65.185  17.064  48.873  1.00  0.00     0.188 HD
BRANCH  17  19
HETATM   19  N8  UNL     1     -64.151  18.548  49.905  1.00  0.00    -0.283 N 
ATOM     20  H8  UNL     1     -63.874  18.891  50.825  1.00  0.00     0.188 HD
BRANCH  19  21
HETATM   21  C6  UNL     1     -63.749  19.148  48.855  1.00  0.00     0.135 A 
HETATM   22  C7  UNL     1     -63.347  20.452  48.935  1.00  0.00     0.137 A 
HETATM   23  N9  UNL     1     -62.915  21.113  47.834  1.00  0.00    -0.371 N 
HETATM   24  C8  UNL     1     -62.891  20.453  46.654  1.00  0.00     0.104 A 
ATOM     25  H9  UNL     1     -62.616  22.087  47.894  1.00  0.00     0.164 HD
HETATM   26  C9  UNL     1     -63.294  19.143  46.569  1.00  0.00     0.106 A 
HETATM   27  N10 UNL     1     -63.718  18.512  47.680  1.00  0.00    -0.349 N 
ATOM     28  H10 UNL     1     -64.018  17.539  47.625  1.00  0.00     0.167 HD
ENDBRANCH  19  21
ENDBRANCH  17  19
ENDBRANCH  11  15
BRANCH   7  29
HETATM   29  N3  UNL     1     -66.207  20.486  54.750  1.00  0.00    -0.232 N 
ATOM     30  H32 UNL     1     -67.159  20.351  54.410  1.00  0.00     0.174 HD
ATOM     31  H31 UNL     1     -65.926  21.441  54.975  1.00  0.00     0.174 HD
ENDBRANCH   7  29
TORSDOF 4
ENDMDL
MODEL 2
REMARK VINA RESULT: -7.754211431      2.195      4.096
REMARK  4 active torsions:
REMARK  status: ('A' for Active; 'I' for Inactive)
REMARK    1  A    between atoms: C3_7  and  N3_8 
REMARK    2  A    between atoms: C4_14  and  C5_15 
REMARK    3  A    between atoms: N7_17  and  N8_19 
REMARK    4  A    between atoms: N8_19  and  C6_21 
ROOT
HETATM    1  C1  UNL     1     -63.054  14.757  53.819  1.00  0.00     0.180 C 
HETATM    2  N1  UNL     1     -62.748  15.523  55.016  1.00  0.00    -0.134 N 
HETATM    3  C2  UNL     1     -61.844  15.064  55.903  1.00  0.00     0.354 A 
HETATM    4  O1  UNL     1     -61.272  13.967  55.676  1.00  0.00    -0.245 OA
HETATM    5  N2  UNL     1     -61.561  15.774  57.011  1.00  0.00    -0.139 N 
ATOM      6  H2  UNL     1     -60.873  15.403  57.665  1.00  0.00     0.189 HD
HETATM    7  C3  UNL     1     -62.146  16.951  57.295  1.00  0.00     0.716 A 
HETATM    8  N4  UNL     1     -63.054  17.415  56.407  1.00  0.00     0.092 N 
HETATM    9  N5  UNL     1     -63.771  18.510  56.416  1.00  0.00    -0.246 N 
ATOM     10  H5  UNL     1     -63.750  19.225  57.142  1.00  0.00     0.190 HD
HETATM   11  C4  UNL     1     -64.550  18.539  55.296  1.00  0.00     0.179 A 
HETATM   12  N11 UNL     1     -64.258  17.410  54.626  1.00  0.00    -0.169 N 
ATOM     13  H11 UNL     1     -64.677  17.133  53.737  1.00  0.00     0.186 HD
HETATM   14  C10 UNL     1     -63.334  16.700  55.298  1.00  0.00     0.726 A 
ENDROOT
BRANCH  11  15
HETATM   15  C5  UNL     1     -65.496  19.576  54.911  1.00  0.00     0.177 C 
HETATM   16  N6  UNL     1     -66.588  19.910  55.757  1.00  0.00    -0.077 NA
HETATM   17  N7  UNL     1     -65.334  20.183  53.805  1.00  0.00    -0.283 N 
ATOM     18  H7  UNL     1     -66.000  20.909  53.542  1.00  0.00     0.188 HD
BRANCH  17  19
HETATM   19  N8  UNL     1     -64.283  19.896  52.941  1.00  0.00    -0.283 N 
ATOM     20  H8  UNL     1     -63.329  20.150  53.199  1.00  0.00     0.188 HD
BRANCH  19  21
HETATM   21  C6  UNL     1     -64.508  19.317  51.828  1.00  0.00     0.135 A 
HETATM   22  C7  UNL     1     -63.787  19.674  50.724  1.00  0.00     0.137 A 
HETATM   23  N9  UNL     1     -64.006  19.075  49.529  1.00  0.00    -0.371 N 
HETATM   24  C8  UNL     1     -64.954  18.114  49.454  1.00  0.00     0.104 A 
ATOM     25  H9  UNL     1     -63.467  19.342  48.705  1.00  0.00     0.164 HD
HETATM   26  C9  UNL     1     -65.682  17.752  50.562  1.00  0.00     0.106 A 
HETATM   27  N10 UNL     1     -65.441  18.365  51.735  1.00  0.00    -0.349 N 
ATOM     28  H10 UNL     1     -65.977  18.101  52.562  1.00  0.00     0.167 HD
ENDBRANCH  19  21
ENDBRANCH  17  19
ENDBRANCH  11  15
BRANCH   7  29
HETATM   29  N3  UNL     1     -61.835  17.590  58.375  1.00  0.00    -0.232 N 
ATOM     30  H32 UNL     1     -61.163  17.231  59.054  1.00  0.00     0.174 HD
ATOM     31  H31 UNL     1     -62.264  18.492  58.582  1.00  0.00     0.174 HD
ENDBRANCH   7  29
TORSDOF 4
ENDMDL
MODEL 3
REMARK VINA RESULT: -7.667225277      1.966      4.288
REMARK  4 active torsions:
REMARK  status: ('A' for Active; 'I' for Inactive)
REMARK    1  A    between atoms: C3_7  and  N3_8 
REMARK    2  A    between atoms: C4_14  and  C5_15 
REMARK    3  A    between atoms: N7_17  and  N8_19 
REMARK    4  A    between atoms: N8_19  and  C6_21 
ROOT
HETATM    1  C1  UNL     1     -62.352  16.853  55.465  1.00  0.00     0.180 C 
HETATM    2  N1  UNL     1     -63.415  17.830  55.303  1.00  0.00    -0.134 N 
HETATM    3  C2  UNL     1     -63.862  18.529  56.364  1.00  0.00     0.354 A 
HETATM    4  O1  UNL     1     -63.344  18.321  57.491  1.00  0.00    -0.245 OA
HETATM    5  N2  UNL     1     -64.847  19.434  56.212  1.00  0.00    -0.139 N 
ATOM      6  H2  UNL     1     -65.166  19.949  57.033  1.00  0.00     0.189 HD
HETATM    7  C3  UNL     1     -65.430  19.691  55.029  1.00  0.00     0.716 A 
HETATM    8  N4  UNL     1     -64.984  18.991  53.960  1.00  0.00     0.092 N 
HETATM    9  N5  UNL     1     -65.353  19.025  52.706  1.00  0.00    -0.246 N 
ATOM     10  H5  UNL     1     -66.082  19.624  52.319  1.00  0.00     0.190 HD
HETATM   11  C4  UNL     1     -64.606  18.128  51.998  1.00  0.00     0.179 A 
HETATM   12  N11 UNL     1     -63.778  17.564  52.896  1.00  0.00    -0.169 N 
ATOM     13  H11 UNL     1     -63.085  16.846  52.681  1.00  0.00     0.186 HD
HETATM   14  C10 UNL     1     -63.997  18.085  54.117  1.00  0.00     0.726 A 
ENDROOT
BRANCH  11  15
HETATM   15  C5  UNL     1     -64.690  17.845  50.573  1.00  0.00     0.177 C 
HETATM   16  N6  UNL     1     -63.692  18.323  49.680  1.00  0.00    -0.077 NA
HETATM   17  N7  UNL     1     -65.670  17.163  50.134  1.00  0.00    -0.283 N 
ATOM     18  H7  UNL     1     -65.722  16.969  49.134  1.00  0.00     0.188 HD
BRANCH  17  19
HETATM   19  N8  UNL     1     -66.671  16.672  50.964  1.00  0.00    -0.283 N 
ATOM     20  H8  UNL     1     -67.242  17.319  51.508  1.00  0.00     0.188 HD
BRANCH  19  21
HETATM   21  C6  UNL     1     -66.877  15.417  51.046  1.00  0.00     0.135 A 
HETATM   22  C7  UNL     1     -66.374  14.719  52.108  1.00  0.00     0.137 A 
HETATM   23  N9  UNL     1     -66.578  13.385  52.220  1.00  0.00    -0.371 N 
HETATM   24  C8  UNL     1     -67.291  12.759  51.257  1.00  0.00     0.104 A 
ATOM     25  H9  UNL     1     -66.202  12.864  53.013  1.00  0.00     0.164 HD
HETATM   26  C9  UNL     1     -67.799  13.457  50.188  1.00  0.00     0.106 A 
HETATM   27  N10 UNL     1     -67.580  14.782  50.104  1.00  0.00    -0.349 N 
ATOM     28  H10 UNL     1     -67.954  15.306  49.314  1.00  0.00     0.167 HD
ENDBRANCH  19  21
ENDBRANCH  17  19
ENDBRANCH  11  15
BRANCH   7  29
HETATM   29  N3  UNL     1     -66.372  20.572  54.942  1.00  0.00    -0.232 N 
ATOM     30  H32 UNL     1     -66.566  21.246  55.683  1.00  0.00     0.174 HD
ATOM     31  H31 UNL     1     -66.961  20.616  54.110  1.00  0.00     0.174 HD
ENDBRANCH   7  29
TORSDOF 4
ENDMDL
MODEL 4
REMARK VINA RESULT: -7.646195629      1.928      3.741
REMARK  4 active torsions:
REMARK  status: ('A' for Active; 'I' for Inactive)
REMARK    1  A    between atoms: C3_7  and  N3_8 
REMARK    2  A    between atoms: C4_14  and  C5_15 
REMARK    3  A    between atoms: N7_17  and  N8_19 
REMARK    4  A    between atoms: N8_19  and  C6_21 
ROOT
HETATM    1  C1  UNL     1     -62.113  17.356  55.501  1.00  0.00     0.180 C 
HETATM    2  N1  UNL     1     -63.286  18.209  55.420  1.00  0.00    -0.134 N 
HETATM    3  C2  UNL     1     -63.878  18.658  56.544  1.00  0.00     0.354 A 
HETATM    4  O1  UNL     1     -63.398  18.326  57.658  1.00  0.00    -0.245 OA
HETATM    5  N2  UNL     1     -64.966  19.448  56.468  1.00  0.00    -0.139 N 
ATOM      6  H2  UNL     1     -65.393  19.773  57.335  1.00  0.00     0.189 HD
HETATM    7  C3  UNL     1     -65.513  19.829  55.301  1.00  0.00     0.716 A 
HETATM    8  N4  UNL     1     -64.922  19.381  54.170  1.00  0.00     0.092 N 
HETATM    9  N5  UNL     1     -65.226  19.583  52.914  1.00  0.00    -0.246 N 
ATOM     10  H5  UNL     1     -66.006  20.146  52.576  1.00  0.00     0.190 HD
HETATM   11  C4  UNL     1     -64.329  18.917  52.128  1.00  0.00     0.179 A 
HETATM   12  N11 UNL     1     -63.483  18.314  52.982  1.00  0.00    -0.169 N 
ATOM     13  H11 UNL     1     -62.690  17.733  52.706  1.00  0.00     0.186 HD
HETATM   14  C10 UNL     1     -63.833  18.589  54.251  1.00  0.00     0.726 A 
ENDROOT
BRANCH  11  15
HETATM   15  C5  UNL     1     -64.299  18.873  50.674  1.00  0.00     0.177 C 
HETATM   16  N6  UNL     1     -63.267  19.529  49.951  1.00  0.00    -0.077 NA
HETATM   17  N7  UNL     1     -65.211  18.237  50.055  1.00  0.00    -0.283 N 
ATOM     18  H7  UNL     1     -65.183  18.210  49.036  1.00  0.00     0.188 HD
BRANCH  17  19
HETATM   19  N8  UNL     1     -66.242  17.578  50.713  1.00  0.00    -0.283 N 
ATOM     20  H8  UNL     1     -66.626  17.967  51.574  1.00  0.00     0.188 HD
BRANCH  19  21
HETATM   21  C6  UNL     1     -66.709  16.488  50.244  1.00  0.00     0.135 A 
HETATM   22  C7  UNL     1     -66.539  15.326  50.942  1.00  0.00     0.137 A 
HETATM   23  N9  UNL     1     -67.026  14.154  50.466  1.00  0.00    -0.371 N 
HETATM   24  C8  UNL     1     -67.682  14.162  49.284  1.00  0.00     0.104 A 
ATOM     25  H9  UNL     1     -66.899  13.286  50.988  1.00  0.00     0.164 HD
HETATM   26  C9  UNL     1     -67.855  15.328  48.579  1.00  0.00     0.106 A 
HETATM   27  N10 UNL     1     -67.361  16.476  49.078  1.00  0.00    -0.349 N 
ATOM     28  H10 UNL     1     -67.486  17.347  48.561  1.00  0.00     0.167 HD
ENDBRANCH  19  21
ENDBRANCH  17  19
ENDBRANCH  11  15
BRANCH   7  29
HETATM   29  N3  UNL     1     -66.558  20.591  55.289  1.00  0.00    -0.232 N 
ATOM     30  H32 UNL     1     -67.498  20.239  55.473  1.00  0.00     0.174 HD
ATOM     31  H31 UNL     1     -66.467  21.587  55.090  1.00  0.00     0.174 HD
ENDBRANCH   7  29
TORSDOF 4
ENDMDL
MODEL 5
REMARK VINA RESULT: -7.600842415      0.870      1.273
REMARK  4 active torsions:
REMARK  status: ('A' for Active; 'I' for Inactive)
REMARK    1  A    between atoms: C3_7  and  N3_8 
REMARK    2  A    between atoms: C4_14  and  C5_15 
REMARK    3  A    between atoms: N7_17  and  N8_19 
REMARK    4  A    between atoms: N8_19  and  C6_21 
ROOT
HETATM    1  C1  UNL     1     -63.050  16.096  55.856  1.00  0.00     0.180 C 
HETATM    2  N1  UNL     1     -63.801  17.257  55.410  1.00  0.00    -0.134 N 
HETATM    3  C2  UNL     1     -63.879  18.355  56.187  1.00  0.00     0.354 A 
HETATM    4  O1  UNL     1     -63.292  18.356  57.299  1.00  0.00    -0.245 OA
HETATM    5  N2  UNL     1     -64.576  19.430  55.772  1.00  0.00    -0.139 N 
ATOM      6  H2  UNL     1     -64.618  20.247  56.381  1.00  0.00     0.189 HD
HETATM    7  C3  UNL     1     -65.219  19.475  54.593  1.00  0.00     0.716 A 
HETATM    8  N4  UNL     1     -65.143  18.375  53.809  1.00  0.00     0.092 N 
HETATM    9  N5  UNL     1     -65.657  18.132  52.631  1.00  0.00    -0.246 N 
ATOM     10  H5  UNL     1     -66.230  18.779  52.090  1.00  0.00     0.190 HD
HETATM   11  C4  UNL     1     -65.302  16.872  52.244  1.00  0.00     0.179 A 
HETATM   12  N11 UNL     1     -64.554  16.384  53.249  1.00  0.00    -0.169 N 
ATOM     13  H11 UNL     1     -64.131  15.456  53.266  1.00  0.00     0.186 HD
HETATM   14  C10 UNL     1     -64.444  17.300  54.229  1.00  0.00     0.726 A 
ENDROOT
BRANCH  11  15
HETATM   15  C5  UNL     1     -65.659  16.202  51.002  1.00  0.00     0.177 C 
HETATM   16  N6  UNL     1     -66.883  15.489  50.891  1.00  0.00    -0.077 NA
HETATM   17  N7  UNL     1     -64.861  16.262  50.014  1.00  0.00    -0.283 N 
ATOM     18  H7  UNL     1     -65.118  15.790  49.147  1.00  0.00     0.188 HD
BRANCH  17  19
HETATM   19  N8  UNL     1     -63.652  16.946  50.069  1.00  0.00    -0.283 N 
ATOM     20  H8  UNL     1     -62.914  16.624  50.694  1.00  0.00     0.188 HD
BRANCH  19  21
HETATM   21  C6  UNL     1     -63.464  17.975  49.340  1.00  0.00     0.135 A 
HETATM   22  C7  UNL     1     -62.960  17.824  48.078  1.00  0.00     0.137 A 
HETATM   23  N9  UNL     1     -62.751  18.900  47.282  1.00  0.00    -0.371 N 
HETATM   24  C8  UNL     1     -63.052  20.127  47.765  1.00  0.00     0.104 A 
ATOM     25  H9  UNL     1     -62.374  18.787  46.340  1.00  0.00     0.164 HD
HETATM   26  C9  UNL     1     -63.559  20.282  49.032  1.00  0.00     0.106 A 
HETATM   27  N10 UNL     1     -63.756  19.194  49.799  1.00  0.00    -0.349 N 
ATOM     28  H10 UNL     1     -64.133  19.302  50.741  1.00  0.00     0.167 HD
ENDBRANCH  19  21
ENDBRANCH  17  19
ENDBRANCH  11  15
BRANCH   7  29
HETATM   29  N3  UNL     1     -65.873  20.536  54.246  1.00  0.00    -0.232 N 
ATOM     30  H32 UNL     1     -66.156  21.252  54.915  1.00  0.00     0.174 HD
ATOM     31  H31 UNL     1     -66.128  20.687  53.270  1.00  0.00     0.174 HD
ENDBRANCH   7  29
TORSDOF 4
ENDMDL
