MODEL 1
REMARK VINA RESULT: -7.771880114      0.000      0.000
REMARK  5 active torsions:
REMARK  status: ('A' for Active; 'I' for Inactive)
REMARK       I    between atoms: N1_1  and  C1_4 
REMARK       I    between atoms: C1_4  and  N3_6 
REMARK    1  A    between atoms: N3_6  and  C2_8 
REMARK    2  A    between atoms: C3_11  and  N5_12 
REMARK    3  A    between atoms: N5_12  and  C4_14 
REMARK    4  A    between atoms: C4_14  and  C5_15 
REMARK    5  A    between atoms: C5_15  and  O1_16 
ROOT
HETATM    1  C2  UNL     1     -65.458  17.481  50.619  1.00  0.00     0.154 A 
HETATM    2  N4  UNL     1     -65.719  17.744  51.897  1.00  0.00    -0.174 N 
ATOM      3  H4  UNL     1     -66.243  17.067  52.452  1.00  0.00     0.186 HD
HETATM    4  C3  UNL     1     -65.293  18.915  52.481  1.00  0.00     0.681 A 
HETATM    5  N6  UNL     1     -64.608  19.782  51.723  1.00  0.00    -0.174 N 
ATOM      6  H6  UNL     1     -64.287  20.654  52.143  1.00  0.00     0.186 HD
HETATM    7  C6  UNL     1     -64.327  19.538  50.413  1.00  0.00     0.153 A 
HETATM    8  N7  UNL     1     -63.626  20.463  49.702  1.00  0.00    -0.322 N 
ATOM      9  H7  UNL     1     -63.305  21.336  50.121  1.00  0.00     0.169 HD
HETATM   10  C7  UNL     1     -63.382  20.159  48.409  1.00  0.00     0.166 A 
HETATM   11  N8  UNL     1     -62.690  21.013  47.608  1.00  0.00    -0.281 N 
ATOM     12  H8  UNL     1     -62.348  21.897  47.985  1.00  0.00     0.188 HD
HETATM   13  N9  UNL     1     -62.457  20.704  46.344  1.00  0.00    -0.294 N 
ATOM     14  H9  UNL     1     -61.934  21.372  45.778  1.00  0.00     0.187 HD
HETATM   15  C8  UNL     1     -62.863  19.574  45.764  1.00  0.00     0.199 A 
HETATM   16  N10 UNL     1     -63.551  18.703  46.525  1.00  0.00    -0.334 N 
ATOM     17  H10 UNL     1     -63.880  17.827  46.121  1.00  0.00     0.168 HD
HETATM   18  C9  UNL     1     -63.809  18.984  47.827  1.00  0.00     0.153 A 
HETATM   19  N11 UNL     1     -64.506  18.082  48.558  1.00  0.00    -0.333 N 
ATOM     20  H11 UNL     1     -64.830  17.207  48.144  1.00  0.00     0.168 HD
HETATM   21  C10 UNL     1     -64.752  18.368  49.830  1.00  0.00     0.124 A 
ENDROOT
BRANCH   1  22
HETATM   22  N3  UNL     1     -65.862  16.383  50.089  1.00  0.00    -0.315 N 
HETATM   23  C1  UNL     1     -67.218  15.967  50.122  1.00  0.00     0.187 C 
HETATM   24  N1  UNL     1     -67.862  16.031  48.984  1.00  0.00    -0.373 N 
HETATM   25  N2  UNL     1     -67.851  15.506  51.310  1.00  0.00    -0.064 NA
ATOM     26  H12 UNL     1     -68.836  15.731  49.008  1.00  0.00     0.158 HD
ATOM     27  H11 UNL     1     -67.408  16.362  48.133  1.00  0.00     0.158 HD
ATOM     28  H3  UNL     1     -65.180  15.785  49.624  1.00  0.00     0.170 HD
ENDBRANCH   1  22
BRANCH   4  29
HETATM   29  N5  UNL     1     -65.557  19.140  53.706  1.00  0.00    -0.224 N 
ATOM     30  H5  UNL     1     -66.454  19.578  53.917  1.00  0.00     0.177 HD
BRANCH  29  31
HETATM   31  C4  UNL     1     -64.712  18.834  54.801  1.00  0.00     0.164 C 
BRANCH  31  32
HETATM   32  C5  UNL     1     -65.267  19.452  56.082  1.00  0.00     0.184 C 
BRANCH  32  33
HETATM   33  O1  UNL     1     -66.266  20.353  55.812  1.00  0.00    -0.399 OA
ATOM     34  H1  UNL     1     -66.763  20.565  56.593  1.00  0.00     0.209 HD
ENDBRANCH  32  33
ENDBRANCH  31  32
ENDBRANCH  29  31
ENDBRANCH   4  29
TORSDOF 5
ENDMDL
MODEL 2
REMARK VINA RESULT: -7.521567964      5.224      8.172
REMARK  5 active torsions:
REMARK  status: ('A' for Active; 'I' for Inactive)
REMARK       I    between atoms: N1_1  and  C1_4 
REMARK       I    between atoms: C1_4  and  N3_6 
REMARK    1  A    between atoms: N3_6  and  C2_8 
REMARK    2  A    between atoms: C3_11  and  N5_12 
REMARK    3  A    between atoms: N5_12  and  C4_14 
REMARK    4  A    between atoms: C4_14  and  C5_15 
REMARK    5  A    between atoms: C5_15  and  O1_16 
ROOT
HETATM    1  C2  UNL     1     -63.299  15.830  54.769  1.00  0.00     0.154 A 
HETATM    2  N4  UNL     1     -63.664  16.991  54.231  1.00  0.00    -0.174 N 
ATOM      3  H4  UNL     1     -64.226  16.995  53.380  1.00  0.00     0.186 HD
HETATM    4  C3  UNL     1     -63.295  18.186  54.807  1.00  0.00     0.681 A 
HETATM    5  N6  UNL     1     -62.558  18.144  55.924  1.00  0.00    -0.174 N 
ATOM      6  H6  UNL     1     -62.277  19.021  56.361  1.00  0.00     0.186 HD
HETATM    7  C6  UNL     1     -62.171  16.969  56.496  1.00  0.00     0.153 A 
HETATM    8  N7  UNL     1     -61.421  17.000  57.632  1.00  0.00    -0.322 N 
ATOM      9  H7  UNL     1     -61.139  17.878  58.068  1.00  0.00     0.169 HD
HETATM   10  C7  UNL     1     -61.071  15.802  58.146  1.00  0.00     0.166 A 
HETATM   11  N8  UNL     1     -60.324  15.718  59.279  1.00  0.00    -0.281 N 
ATOM     12  H8  UNL     1     -60.021  16.570  59.750  1.00  0.00     0.188 HD
HETATM   13  N9  UNL     1     -59.987  14.539  59.773  1.00  0.00    -0.294 N 
ATOM     14  H9  UNL     1     -59.426  14.520  60.625  1.00  0.00     0.187 HD
HETATM   15  C8  UNL     1     -60.337  13.373  59.227  1.00  0.00     0.199 A 
HETATM   16  N10 UNL     1     -61.078  13.415  58.104  1.00  0.00    -0.334 N 
ATOM     17  H10 UNL     1     -61.367  12.547  57.655  1.00  0.00     0.168 HD
HETATM   18  C9  UNL     1     -61.443  14.606  57.568  1.00  0.00     0.153 A 
HETATM   19  N11 UNL     1     -62.188  14.605  56.437  1.00  0.00    -0.333 N 
ATOM     20  H11 UNL     1     -62.472  13.730  55.995  1.00  0.00     0.168 HD
HETATM   21  C10 UNL     1     -62.539  15.777  55.922  1.00  0.00     0.124 A 
ENDROOT
BRANCH   1  22
HETATM   22  N3  UNL     1     -63.652  14.724  54.220  1.00  0.00    -0.315 N 
HETATM   23  C1  UNL     1     -64.935  14.149  54.404  1.00  0.00     0.187 C 
HETATM   24  N1  UNL     1     -65.736  14.200  53.370  1.00  0.00    -0.373 N 
HETATM   25  N2  UNL     1     -65.341  13.550  55.629  1.00  0.00    -0.064 NA
ATOM     26  H12 UNL     1     -66.658  13.787  53.501  1.00  0.00     0.158 HD
ATOM     27  H11 UNL     1     -65.445  14.629  52.491  1.00  0.00     0.158 HD
ATOM     28  H3  UNL     1     -62.980  14.238  53.627  1.00  0.00     0.170 HD
ENDBRANCH   1  22
BRANCH   4  29
HETATM   29  N5  UNL     1     -63.659  19.282  54.270  1.00  0.00    -0.224 N 
ATOM     30  H5  UNL     1     -62.955  20.014  54.181  1.00  0.00     0.177 HD
BRANCH  29  31
HETATM   31  C4  UNL     1     -64.959  19.571  53.786  1.00  0.00     0.164 C 
BRANCH  31  32
HETATM   32  C5  UNL     1     -65.922  19.770  54.953  1.00  0.00     0.184 C 
BRANCH  32  33
HETATM   33  O1  UNL     1     -66.703  20.885  54.775  1.00  0.00    -0.399 OA
ATOM     34  H1  UNL     1     -66.710  21.432  55.551  1.00  0.00     0.209 HD
ENDBRANCH  32  33
ENDBRANCH  31  32
ENDBRANCH  29  31
ENDBRANCH   4  29
TORSDOF 5
ENDMDL
MODEL 3
REMARK VINA RESULT: -7.517564710      3.496      4.800
REMARK  5 active torsions:
REMARK  status: ('A' for Active; 'I' for Inactive)
REMARK       I    between atoms: N1_1  and  C1_4 
REMARK       I    between atoms: C1_4  and  N3_6 
REMARK    1  A    between atoms: N3_6  and  C2_8 
REMARK    2  A    between atoms: C3_11  and  N5_12 
REMARK    3  A    between atoms: N5_12  and  C4_14 
REMARK    4  A    between atoms: C4_14  and  C5_15 
REMARK    5  A    between atoms: C5_15  and  O1_16 
ROOT
HETATM    1  C2  UNL     1     -64.541  15.900  53.430  1.00  0.00     0.154 A 
HETATM    2  N4  UNL     1     -64.167  16.949  54.158  1.00  0.00    -0.174 N 
ATOM      3  H4  UNL     1     -63.581  16.807  54.981  1.00  0.00     0.186 HD
HETATM    4  C3  UNL     1     -64.559  18.224  53.817  1.00  0.00     0.681 A 
HETATM    5  N6  UNL     1     -65.328  18.375  52.731  1.00  0.00    -0.174 N 
ATOM      6  H6  UNL     1     -65.626  19.314  52.467  1.00  0.00     0.186 HD
HETATM    7  C6  UNL     1     -65.725  17.319  51.968  1.00  0.00     0.153 A 
HETATM    8  N7  UNL     1     -66.507  17.545  50.877  1.00  0.00    -0.322 N 
ATOM      9  H7  UNL     1     -66.806  18.484  50.613  1.00  0.00     0.169 HD
HETATM   10  C7  UNL     1     -66.865  16.455  50.166  1.00  0.00     0.166 A 
HETATM   11  N8  UNL     1     -67.645  16.568  49.057  1.00  0.00    -0.281 N 
ATOM     12  H8  UNL     1     -67.966  17.487  48.755  1.00  0.00     0.188 HD
HETATM   13  N9  UNL     1     -67.989  15.493  48.369  1.00  0.00    -0.294 N 
ATOM     14  H9  UNL     1     -68.575  15.622  47.543  1.00  0.00     0.187 HD
HETATM   15  C8  UNL     1     -67.617  14.252  48.686  1.00  0.00     0.199 A 
HETATM   16  N10 UNL     1     -66.844  14.100  49.778  1.00  0.00    -0.334 N 
ATOM     17  H10 UNL     1     -66.538  13.168  50.056  1.00  0.00     0.168 HD
HETATM   18  C9  UNL     1     -66.470  15.179  50.509  1.00  0.00     0.153 A 
HETATM   19  N11 UNL     1     -65.693  14.983  51.601  1.00  0.00    -0.333 N 
ATOM     20  H11 UNL     1     -65.392  14.046  51.870  1.00  0.00     0.168 HD
HETATM   21  C10 UNL     1     -65.333  16.046  52.309  1.00  0.00     0.124 A 
ENDROOT
BRANCH   1  22
HETATM   22  N3  UNL     1     -64.166  14.717  53.762  1.00  0.00    -0.315 N 
HETATM   23  C1  UNL     1     -64.439  14.152  55.034  1.00  0.00     0.187 C 
HETATM   24  N1  UNL     1     -65.340  13.203  55.055  1.00  0.00    -0.373 N 
HETATM   25  N2  UNL     1     -63.782  14.581  56.221  1.00  0.00    -0.064 NA
ATOM     26  H12 UNL     1     -65.536  12.797  55.969  1.00  0.00     0.158 HD
ATOM     27  H11 UNL     1     -65.811  12.896  54.204  1.00  0.00     0.158 HD
ATOM     28  H3  UNL     1     -63.651  14.159  53.081  1.00  0.00     0.170 HD
ENDBRANCH   1  22
BRANCH   4  29
HETATM   29  N5  UNL     1     -64.185  19.210  54.531  1.00  0.00    -0.224 N 
ATOM     30  H5  UNL     1     -63.471  19.824  54.141  1.00  0.00     0.177 HD
BRANCH  29  31
HETATM   31  C4  UNL     1     -64.678  19.527  55.821  1.00  0.00     0.164 C 
BRANCH  31  32
HETATM   32  C5  UNL     1     -66.168  19.849  55.750  1.00  0.00     0.184 C 
BRANCH  32  33
HETATM   33  O1  UNL     1     -66.447  20.707  54.716  1.00  0.00    -0.399 OA
ATOM     34  H1  UNL     1     -67.177  20.395  54.194  1.00  0.00     0.209 HD
ENDBRANCH  32  33
ENDBRANCH  31  32
ENDBRANCH  29  31
ENDBRANCH   4  29
TORSDOF 5
ENDMDL
MODEL 4
REMARK VINA RESULT: -7.451460738      3.889      7.287
REMARK  5 active torsions:
REMARK  status: ('A' for Active; 'I' for Inactive)
REMARK       I    between atoms: N1_1  and  C1_4 
REMARK       I    between atoms: C1_4  and  N3_6 
REMARK    1  A    between atoms: N3_6  and  C2_8 
REMARK    2  A    between atoms: C3_11  and  N5_12 
REMARK    3  A    between atoms: N5_12  and  C4_14 
REMARK    4  A    between atoms: C4_14  and  C5_15 
REMARK    5  A    between atoms: C5_15  and  O1_16 
ROOT
HETATM    1  C2  UNL     1     -64.587  18.324  53.915  1.00  0.00     0.154 A 
HETATM    2  N4  UNL     1     -65.393  18.453  52.864  1.00  0.00    -0.174 N 
ATOM      3  H4  UNL     1     -65.897  19.328  52.722  1.00  0.00     0.186 HD
HETATM    4  C3  UNL     1     -65.555  17.423  51.965  1.00  0.00     0.681 A 
HETATM    5  N6  UNL     1     -64.879  16.288  52.181  1.00  0.00    -0.174 N 
ATOM      6  H6  UNL     1     -64.990  15.516  51.524  1.00  0.00     0.186 HD
HETATM    7  C6  UNL     1     -64.047  16.129  53.249  1.00  0.00     0.153 A 
HETATM    8  N7  UNL     1     -63.390  14.948  53.408  1.00  0.00    -0.322 N 
ATOM      9  H7  UNL     1     -63.502  14.176  52.751  1.00  0.00     0.169 HD
HETATM   10  C7  UNL     1     -62.583  14.856  54.486  1.00  0.00     0.166 A 
HETATM   11  N8  UNL     1     -61.879  13.721  54.739  1.00  0.00    -0.281 N 
ATOM     12  H8  UNL     1     -61.959  12.924  54.108  1.00  0.00     0.188 HD
HETATM   13  N9  UNL     1     -61.091  13.644  55.798  1.00  0.00    -0.294 N 
ATOM     14  H9  UNL     1     -60.581  12.774  55.951  1.00  0.00     0.187 HD
HETATM   15  C8  UNL     1     -60.923  14.632  56.678  1.00  0.00     0.199 A 
HETATM   16  N10 UNL     1     -61.604  15.773  56.460  1.00  0.00    -0.334 N 
ATOM     17  H10 UNL     1     -61.504  16.554  57.109  1.00  0.00     0.168 HD
HETATM   18  C9  UNL     1     -62.421  15.890  55.384  1.00  0.00     0.153 A 
HETATM   19  N11 UNL     1     -63.088  17.055  55.202  1.00  0.00    -0.333 N 
ATOM     20  H11 UNL     1     -62.981  17.830  55.857  1.00  0.00     0.168 HD
HETATM   21  C10 UNL     1     -63.885  17.157  54.146  1.00  0.00     0.124 A 
ENDROOT
BRANCH   1  22
HETATM   22  N3  UNL     1     -64.446  19.294  54.744  1.00  0.00    -0.315 N 
HETATM   23  C1  UNL     1     -65.391  19.579  55.763  1.00  0.00     0.187 C 
HETATM   24  N1  UNL     1     -65.013  19.297  56.985  1.00  0.00    -0.373 N 
HETATM   25  N2  UNL     1     -66.671  20.135  55.490  1.00  0.00    -0.064 NA
ATOM     26  H12 UNL     1     -65.692  19.502  57.718  1.00  0.00     0.158 HD
ATOM     27  H11 UNL     1     -64.095  18.898  57.180  1.00  0.00     0.158 HD
ATOM     28  H3  UNL     1     -63.619  19.886  54.667  1.00  0.00     0.170 HD
ENDBRANCH   1  22
BRANCH   4  29
HETATM   29  N5  UNL     1     -66.333  17.575  50.968  1.00  0.00    -0.224 N 
ATOM     30  H5  UNL     1     -67.052  18.294  51.043  1.00  0.00     0.177 HD
BRANCH  29  31
HETATM   31  C4  UNL     1     -66.285  16.830  49.764  1.00  0.00     0.164 C 
BRANCH  31  32
HETATM   32  C5  UNL     1     -67.490  15.898  49.674  1.00  0.00     0.184 C 
BRANCH  32  33
HETATM   33  O1  UNL     1     -68.585  16.543  49.155  1.00  0.00    -0.399 OA
ATOM     34  H1  UNL     1     -69.316  15.947  49.040  1.00  0.00     0.209 HD
ENDBRANCH  32  33
ENDBRANCH  31  32
ENDBRANCH  29  31
ENDBRANCH   4  29
TORSDOF 5
ENDMDL
MODEL 5
REMARK VINA RESULT: -7.435134868      2.054      2.439
REMARK  5 active torsions:
REMARK  status: ('A' for Active; 'I' for Inactive)
REMARK       I    between atoms: N1_1  and  C1_4 
REMARK       I    between atoms: C1_4  and  N3_6 
REMARK    1  A    between atoms: N3_6  and  C2_8 
REMARK    2  A    between atoms: C3_11  and  N5_12 
REMARK    3  A    between atoms: N5_12  and  C4_14 
REMARK    4  A    between atoms: C4_14  and  C5_15 
REMARK    5  A    between atoms: C5_15  and  O1_16 
ROOT
HETATM    1  C2  UNL     1     -64.511  17.397  52.526  1.00  0.00     0.154 A 
HETATM    2  N4  UNL     1     -64.970  18.022  53.607  1.00  0.00    -0.174 N 
ATOM      3  H4  UNL     1     -65.179  17.483  54.448  1.00  0.00     0.186 HD
HETATM    4  C3  UNL     1     -65.166  19.384  53.608  1.00  0.00     0.681 A 
HETATM    5  N6  UNL     1     -64.882  20.061  52.489  1.00  0.00    -0.174 N 
ATOM      6  H6  UNL     1     -65.023  21.071  52.475  1.00  0.00     0.186 HD
HETATM    7  C6  UNL     1     -64.411  19.447  51.367  1.00  0.00     0.153 A 
HETATM    8  N7  UNL     1     -64.143  20.196  50.263  1.00  0.00    -0.322 N 
ATOM      9  H7  UNL     1     -64.285  21.206  50.249  1.00  0.00     0.169 HD
HETATM   10  C7  UNL     1     -63.680  19.526  49.187  1.00  0.00     0.166 A 
HETATM   11  N8  UNL     1     -63.380  20.177  48.032  1.00  0.00    -0.281 N 
ATOM     12  H8  UNL     1     -63.505  21.187  47.973  1.00  0.00     0.188 HD
HETATM   13  N9  UNL     1     -62.926  19.510  46.985  1.00  0.00    -0.294 N 
ATOM     14  H9  UNL     1     -62.713  20.036  46.138  1.00  0.00     0.187 HD
HETATM   15  C8  UNL     1     -62.730  18.190  46.968  1.00  0.00     0.199 A 
HETATM   16  N10 UNL     1     -63.016  17.510  48.094  1.00  0.00    -0.334 N 
ATOM     17  H10 UNL     1     -62.881  16.500  48.124  1.00  0.00     0.168 HD
HETATM   18  C9  UNL     1     -63.483  18.160  49.189  1.00  0.00     0.153 A 
HETATM   19  N11 UNL     1     -63.758  17.439  50.302  1.00  0.00    -0.333 N 
ATOM     20  H11 UNL     1     -63.619  16.428  50.321  1.00  0.00     0.168 HD
HETATM   21  C10 UNL     1     -64.214  18.087  51.366  1.00  0.00     0.124 A 
ENDROOT
BRANCH   1  22
HETATM   22  N3  UNL     1     -64.332  16.125  52.541  1.00  0.00    -0.315 N 
HETATM   23  C1  UNL     1     -64.765  15.300  53.610  1.00  0.00     0.187 C 
HETATM   24  N1  UNL     1     -65.792  14.530  53.355  1.00  0.00    -0.373 N 
HETATM   25  N2  UNL     1     -64.133  15.300  54.884  1.00  0.00    -0.064 NA
ATOM     26  H12 UNL     1     -66.104  13.936  54.124  1.00  0.00     0.158 HD
ATOM     27  H11 UNL     1     -66.245  14.531  52.442  1.00  0.00     0.158 HD
ATOM     28  H3  UNL     1     -63.859  15.690  51.750  1.00  0.00     0.170 HD
ENDBRANCH   1  22
BRANCH   4  29
HETATM   29  N5  UNL     1     -65.606  19.956  54.658  1.00  0.00    -0.224 N 
ATOM     30  H5  UNL     1     -66.018  20.882  54.547  1.00  0.00     0.177 HD
BRANCH  29  31
HETATM   31  C4  UNL     1     -65.573  19.415  55.967  1.00  0.00     0.164 C 
BRANCH  31  32
HETATM   32  C5  UNL     1     -64.139  19.070  56.357  1.00  0.00     0.184 C 
BRANCH  32  33
HETATM   33  O1  UNL     1     -64.003  17.733  56.638  1.00  0.00    -0.399 OA
ATOM     34  H1  UNL     1     -64.811  17.260  56.475  1.00  0.00     0.209 HD
ENDBRANCH  32  33
ENDBRANCH  31  32
ENDBRANCH  29  31
ENDBRANCH   4  29
TORSDOF 5
ENDMDL
