MODEL 1
REMARK VINA RESULT: -7.087518576      0.000      0.000
REMARK  12 active torsions:
REMARK  status: ('A' for Active; 'I' for Inactive)
REMARK    1  A    between atoms: N1_1  and  C1_4 
REMARK    2  A    between atoms: C5_11  and  N3_12 
REMARK    3  A    between atoms: N3_12  and  S1_14 
REMARK    4  A    between atoms: S1_14  and  N4_17 
REMARK       I    between atoms: N4_17  and  C6_19 
REMARK       I    between atoms: C6_19  and  N5_21 
REMARK    5  A    between atoms: N5_21  and  C7_23 
REMARK    6  A    between atoms: C7_23  and  C8_24 
REMARK       I    between atoms: C8_24  and  N6_26 
REMARK    7  A    between atoms: N6_26  and  C9_28 
REMARK    8  A    between atoms: C13_32  and  S2_33 
REMARK    9  A    between atoms: S2_33  and  N7_36 
REMARK   10  A    between atoms: N7_36  and  N8_38 
REMARK       I    between atoms: N8_38  and  C14_40 
REMARK   11  A    between atoms: C14_40  and  C15_42 
REMARK   12  A    between atoms: C15_42  and  N9_43 
ROOT
HETATM    1  N4  UNL     1      -3.262  26.155  10.974  1.00  0.00    -0.219 N 
ATOM      2  H4  UNL     1      -2.832  27.080  10.979  1.00  0.00     0.185 HD
HETATM    3  C6  UNL     1      -3.681  25.550  12.180  1.00  0.00     0.331 C 
HETATM    4  O4  UNL     1      -4.218  24.397  12.192  1.00  0.00    -0.246 OA
HETATM    5  N5  UNL     1      -3.515  26.208  13.419  1.00  0.00    -0.334 N 
ATOM      6  H5  UNL     1      -3.079  27.130  13.414  1.00  0.00     0.164 HD
ENDROOT
BRANCH   5   7
HETATM    7  C7  UNL     1      -3.914  25.673  14.669  1.00  0.00     0.227 C 
BRANCH   7   8
HETATM    8  C8  UNL     1      -5.355  25.878  15.017  1.00  0.00     0.239 C 
HETATM    9  O5  UNL     1      -5.614  26.819  15.772  1.00  0.00    -0.271 OA
HETATM   10  N6  UNL     1      -6.310  25.027  14.490  1.00  0.00    -0.326 N 
ATOM     11  H6  UNL     1      -5.974  24.281  13.880  1.00  0.00     0.169 HD
BRANCH  10  12
HETATM   12  C9  UNL     1      -7.690  25.087  14.710  1.00  0.00     0.036 A 
HETATM   13  C10 UNL     1      -8.325  24.381  15.690  1.00  0.00     0.029 A 
HETATM   14  C11 UNL     1      -9.716  24.445  15.870  1.00  0.00     0.004 A 
HETATM   15  C12 UNL     1     -10.431  25.253  15.019  1.00  0.00     0.025 A 
HETATM   16  C13 UNL     1      -9.861  25.985  14.019  1.00  0.00     0.083 A 
HETATM   17  C16 UNL     1      -8.499  25.896  13.875  1.00  0.00     0.054 A 
BRANCH  16  18
HETATM   18  S2  UNL     1     -10.771  26.996  12.955  1.00  0.00     0.276 S 
HETATM   19  O6  UNL     1     -12.062  27.419  13.640  1.00  0.00    -0.199 OA
HETATM   20  O7  UNL     1     -10.045  28.292  12.638  1.00  0.00    -0.199 OA
BRANCH  18  21
HETATM   21  N7  UNL     1     -11.180  26.261  11.473  1.00  0.00    -0.220 N 
ATOM     22  H7  UNL     1     -11.642  26.756  10.710  1.00  0.00     0.200 HD
BRANCH  21  23
HETATM   23  N8  UNL     1     -10.822  24.918  11.405  1.00  0.00    -0.259 N 
HETATM   24  C14 UNL     1     -10.529  24.331  10.145  1.00  0.00     0.262 C 
HETATM   25  O8  UNL     1     -10.593  25.018   9.095  1.00  0.00    -0.270 OA
ATOM     26  H8  UNL     1     -10.770  24.357  12.256  1.00  0.00     0.190 HD
BRANCH  24  27
HETATM   27  C15 UNL     1     -10.140  22.911  10.001  1.00  0.00     0.333 C 
BRANCH  27  28
HETATM   28  N9  UNL     1      -8.803  22.749   9.494  1.00  0.00    -0.071 N 
ATOM     29  H93 UNL     1      -8.803  22.210   8.628  1.00  0.00     0.274 HD
ATOM     30  H92 UNL     1      -8.437  23.632   9.140  1.00  0.00     0.274 HD
ATOM     31  H91 UNL     1      -8.169  22.338  10.179  1.00  0.00     0.274 HD
ENDBRANCH  27  28
ENDBRANCH  24  27
ENDBRANCH  21  23
ENDBRANCH  18  21
ENDBRANCH  16  18
ENDBRANCH  10  12
ENDBRANCH   7   8
ENDBRANCH   5   7
BRANCH   1  32
HETATM   32  S1  UNL     1      -3.489  25.299   9.495  1.00  0.00     0.327 S 
HETATM   33  O2  UNL     1      -3.026  26.161   8.375  1.00  0.00    -0.182 OA
HETATM   34  O3  UNL     1      -2.612  24.066   9.478  1.00  0.00    -0.182 OA
BRANCH  32  35
HETATM   35  N3  UNL     1      -5.145  24.871   9.361  1.00  0.00    -0.266 N 
ATOM     36  H3  UNL     1      -5.414  23.893   9.249  1.00  0.00     0.180 HD
BRANCH  35  37
HETATM   37  C5  UNL     1      -6.142  25.882   9.406  1.00  0.00     0.060 A 
HETATM   38  C4  UNL     1      -6.201  26.929   8.520  1.00  0.00     0.052 A 
HETATM   39  C3  UNL     1      -7.230  27.870   8.638  1.00  0.00     0.079 A 
HETATM   40  C2  UNL     1      -7.314  28.936   7.759  1.00  0.00     0.273 A 
HETATM   41  C18 UNL     1      -8.196  27.784   9.618  1.00  0.00     0.136 A 
HETATM   42  N2  UNL     1      -8.303  29.831   7.880  1.00  0.00    -0.156 N 
HETATM   43  O1  UNL     1      -6.439  29.018   6.867  1.00  0.00    -0.267 OA
HETATM   44  C1  UNL     1      -9.218  29.691   8.861  1.00  0.00     0.680 A 
ATOM     45  H2  UNL     1      -8.365  30.616   7.231  1.00  0.00     0.187 HD
HETATM   46  N11 UNL     1      -9.193  28.677   9.747  1.00  0.00    -0.176 N 
ATOM     47  H11 UNL     1      -9.896  28.592  10.481  1.00  0.00     0.186 HD
HETATM   48  N10 UNL     1      -8.095  26.743  10.459  1.00  0.00    -0.349 N 
HETATM   49  C17 UNL     1      -7.134  25.824  10.385  1.00  0.00     0.119 A 
ATOM     50  H10 UNL     1      -8.795  26.650  11.196  1.00  0.00     0.167 HD
BRANCH  44  51
HETATM   51  N1  UNL     1     -10.166  30.588   8.943  1.00  0.00    -0.234 N 
ATOM     52  H12 UNL     1     -11.125  30.285   9.110  1.00  0.00     0.174 HD
ATOM     53  H11 UNL     1      -9.904  31.568   8.835  1.00  0.00     0.174 HD
ENDBRANCH  44  51
ENDBRANCH  35  37
ENDBRANCH  32  35
ENDBRANCH   1  32
TORSDOF 12
ENDMDL
MODEL 2
REMARK VINA RESULT: -7.068441349      1.741      2.211
REMARK  12 active torsions:
REMARK  status: ('A' for Active; 'I' for Inactive)
REMARK    1  A    between atoms: N1_1  and  C1_4 
REMARK    2  A    between atoms: C5_11  and  N3_12 
REMARK    3  A    between atoms: N3_12  and  S1_14 
REMARK    4  A    between atoms: S1_14  and  N4_17 
REMARK       I    between atoms: N4_17  and  C6_19 
REMARK       I    between atoms: C6_19  and  N5_21 
REMARK    5  A    between atoms: N5_21  and  C7_23 
REMARK    6  A    between atoms: C7_23  and  C8_24 
REMARK       I    between atoms: C8_24  and  N6_26 
REMARK    7  A    between atoms: N6_26  and  C9_28 
REMARK    8  A    between atoms: C13_32  and  S2_33 
REMARK    9  A    between atoms: S2_33  and  N7_36 
REMARK   10  A    between atoms: N7_36  and  N8_38 
REMARK       I    between atoms: N8_38  and  C14_40 
REMARK   11  A    between atoms: C14_40  and  C15_42 
REMARK   12  A    between atoms: C15_42  and  N9_43 
ROOT
HETATM    1  N4  UNL     1      -3.137  25.692  11.084  1.00  0.00    -0.219 N 
ATOM      2  H4  UNL     1      -2.460  26.456  11.102  1.00  0.00     0.185 HD
HETATM    3  C6  UNL     1      -3.834  25.321  12.254  1.00  0.00     0.331 C 
HETATM    4  O4  UNL     1      -4.681  24.372  12.249  1.00  0.00    -0.246 OA
HETATM    5  N5  UNL     1      -3.613  25.994  13.476  1.00  0.00    -0.334 N 
ATOM      6  H5  UNL     1      -2.931  26.753  13.486  1.00  0.00     0.164 HD
ENDROOT
BRANCH   5   7
HETATM    7  C7  UNL     1      -4.276  25.688  14.691  1.00  0.00     0.227 C 
BRANCH   7   8
HETATM    8  C8  UNL     1      -5.603  26.354  14.876  1.00  0.00     0.239 C 
HETATM    9  O5  UNL     1      -6.224  26.073  15.905  1.00  0.00    -0.271 OA
HETATM   10  N6  UNL     1      -6.064  27.233  13.912  1.00  0.00    -0.326 N 
ATOM     11  H6  UNL     1      -5.463  27.382  13.101  1.00  0.00     0.169 HD
BRANCH  10  12
HETATM   12  C9  UNL     1      -7.272  27.937  13.938  1.00  0.00     0.036 A 
HETATM   13  C10 UNL     1      -7.416  29.158  14.529  1.00  0.00     0.029 A 
HETATM   14  C11 UNL     1      -8.649  29.829  14.558  1.00  0.00     0.004 A 
HETATM   15  C12 UNL     1      -9.723  29.212  13.964  1.00  0.00     0.025 A 
HETATM   16  C13 UNL     1      -9.650  27.992  13.356  1.00  0.00     0.083 A 
HETATM   17  C16 UNL     1      -8.428  27.368  13.349  1.00  0.00     0.054 A 
BRANCH  16  18
HETATM   18  S2  UNL     1     -11.009  27.227  12.614  1.00  0.00     0.276 S 
HETATM   19  O6  UNL     1     -12.285  27.680  13.306  1.00  0.00    -0.199 OA
HETATM   20  O7  UNL     1     -11.174  27.642  11.162  1.00  0.00    -0.199 OA
BRANCH  18  21
HETATM   21  N7  UNL     1     -10.962  25.524  12.660  1.00  0.00    -0.220 N 
ATOM     22  H7  UNL     1     -11.209  24.978  13.485  1.00  0.00     0.200 HD
BRANCH  21  23
HETATM   23  N8  UNL     1     -10.555  24.951  11.459  1.00  0.00    -0.259 N 
HETATM   24  C14 UNL     1     -10.962  23.629  11.136  1.00  0.00     0.262 C 
HETATM   25  O8  UNL     1     -11.685  22.977  11.931  1.00  0.00    -0.270 OA
ATOM     26  H8  UNL     1      -9.967  25.478  10.812  1.00  0.00     0.190 HD
BRANCH  24  27
HETATM   27  C15 UNL     1     -10.567  22.960   9.878  1.00  0.00     0.333 C 
BRANCH  27  28
HETATM   28  N9  UNL     1      -9.166  23.101   9.587  1.00  0.00    -0.071 N 
ATOM     29  H93 UNL     1      -8.951  24.048   9.275  1.00  0.00     0.274 HD
ATOM     30  H92 UNL     1      -8.611  23.079  10.442  1.00  0.00     0.274 HD
ATOM     31  H91 UNL     1      -8.830  22.411   8.916  1.00  0.00     0.274 HD
ENDBRANCH  27  28
ENDBRANCH  24  27
ENDBRANCH  21  23
ENDBRANCH  18  21
ENDBRANCH  16  18
ENDBRANCH  10  12
ENDBRANCH   7   8
ENDBRANCH   5   7
BRANCH   1  32
HETATM   32  S1  UNL     1      -3.449  24.830   9.624  1.00  0.00     0.327 S 
HETATM   33  O2  UNL     1      -2.767  25.534   8.505  1.00  0.00    -0.182 OA
HETATM   34  O3  UNL     1      -2.831  23.451   9.702  1.00  0.00    -0.182 OA
BRANCH  32  35
HETATM   35  N3  UNL     1      -5.147  24.725   9.404  1.00  0.00    -0.266 N 
ATOM     36  H3  UNL     1      -5.627  23.834   9.537  1.00  0.00     0.180 HD
BRANCH  35  37
HETATM   37  C5  UNL     1      -5.885  25.882   9.038  1.00  0.00     0.060 A 
HETATM   38  C4  UNL     1      -7.253  25.903   8.920  1.00  0.00     0.052 A 
HETATM   39  C3  UNL     1      -7.892  27.097   8.566  1.00  0.00     0.079 A 
HETATM   40  C2  UNL     1      -9.270  27.147   8.439  1.00  0.00     0.273 A 
HETATM   41  C18 UNL     1      -7.195  28.263   8.331  1.00  0.00     0.136 A 
HETATM   42  N2  UNL     1      -9.872  28.295   8.100  1.00  0.00    -0.156 N 
HETATM   43  O1  UNL     1      -9.907  26.091   8.652  1.00  0.00    -0.267 OA
HETATM   44  C1  UNL     1      -9.132  29.402   7.883  1.00  0.00     0.680 A 
ATOM     45  H2  UNL     1     -10.888  28.332   8.007  1.00  0.00     0.187 HD
HETATM   46  N11 UNL     1      -7.790  29.419   7.990  1.00  0.00    -0.176 N 
ATOM     47  H11 UNL     1      -7.252  30.269   7.821  1.00  0.00     0.186 HD
HETATM   48  N10 UNL     1      -5.861  28.191   8.460  1.00  0.00    -0.349 N 
HETATM   49  C17 UNL     1      -5.210  27.077   8.793  1.00  0.00     0.119 A 
ATOM     50  H10 UNL     1      -5.315  29.036   8.293  1.00  0.00     0.167 HD
BRANCH  44  51
HETATM   51  N1  UNL     1      -9.761  30.500   7.553  1.00  0.00    -0.234 N 
ATOM     52  H12 UNL     1     -10.763  30.464   7.367  1.00  0.00     0.174 HD
ATOM     53  H11 UNL     1      -9.216  31.360   7.494  1.00  0.00     0.174 HD
ENDBRANCH  44  51
ENDBRANCH  35  37
ENDBRANCH  32  35
ENDBRANCH   1  32
TORSDOF 12
ENDMDL
MODEL 3
REMARK VINA RESULT: -6.650573505      2.228      4.232
REMARK  12 active torsions:
REMARK  status: ('A' for Active; 'I' for Inactive)
REMARK    1  A    between atoms: N1_1  and  C1_4 
REMARK    2  A    between atoms: C5_11  and  N3_12 
REMARK    3  A    between atoms: N3_12  and  S1_14 
REMARK    4  A    between atoms: S1_14  and  N4_17 
REMARK       I    between atoms: N4_17  and  C6_19 
REMARK       I    between atoms: C6_19  and  N5_21 
REMARK    5  A    between atoms: N5_21  and  C7_23 
REMARK    6  A    between atoms: C7_23  and  C8_24 
REMARK       I    between atoms: C8_24  and  N6_26 
REMARK    7  A    between atoms: N6_26  and  C9_28 
REMARK    8  A    between atoms: C13_32  and  S2_33 
REMARK    9  A    between atoms: S2_33  and  N7_36 
REMARK   10  A    between atoms: N7_36  and  N8_38 
REMARK       I    between atoms: N8_38  and  C14_40 
REMARK   11  A    between atoms: C14_40  and  C15_42 
REMARK   12  A    between atoms: C15_42  and  N9_43 
ROOT
HETATM    1  N4  UNL     1      -3.532  25.445  11.227  1.00  0.00    -0.219 N 
ATOM      2  H4  UNL     1      -2.842  26.177  11.397  1.00  0.00     0.185 HD
HETATM    3  C6  UNL     1      -4.468  25.094  12.225  1.00  0.00     0.331 C 
HETATM    4  O4  UNL     1      -5.336  24.185  12.030  1.00  0.00    -0.246 OA
HETATM    5  N5  UNL     1      -4.473  25.744  13.479  1.00  0.00    -0.334 N 
ATOM      6  H5  UNL     1      -3.774  26.470  13.641  1.00  0.00     0.164 HD
ENDROOT
BRANCH   5   7
HETATM    7  C7  UNL     1      -5.381  25.457  14.527  1.00  0.00     0.227 C 
BRANCH   7   8
HETATM    8  C8  UNL     1      -6.770  25.973  14.324  1.00  0.00     0.239 C 
HETATM    9  O5  UNL     1      -7.405  26.270  15.340  1.00  0.00    -0.271 OA
HETATM   10  N6  UNL     1      -7.270  26.095  13.040  1.00  0.00    -0.326 N 
ATOM     11  H6  UNL     1      -6.653  25.814  12.278  1.00  0.00     0.169 HD
BRANCH  10  12
HETATM   12  C9  UNL     1      -8.538  26.564  12.682  1.00  0.00     0.036 A 
HETATM   13  C10 UNL     1      -9.649  25.773  12.645  1.00  0.00     0.029 A 
HETATM   14  C11 UNL     1     -10.904  26.270  12.258  1.00  0.00     0.004 A 
HETATM   15  C12 UNL     1     -10.983  27.598  11.914  1.00  0.00     0.025 A 
HETATM   16  C13 UNL     1      -9.914  28.445  11.928  1.00  0.00     0.083 A 
HETATM   17  C16 UNL     1      -8.705  27.921  12.311  1.00  0.00     0.054 A 
BRANCH  16  18
HETATM   18  S2  UNL     1     -10.028  30.112  11.491  1.00  0.00     0.276 S 
HETATM   19  O6  UNL     1     -11.012  30.268  10.341  1.00  0.00    -0.199 OA
HETATM   20  O7  UNL     1     -10.595  30.959  12.618  1.00  0.00    -0.199 OA
BRANCH  18  21
HETATM   21  N7  UNL     1      -8.549  30.813  11.016  1.00  0.00    -0.220 N 
ATOM     22  H7  UNL     1      -7.674  30.290  10.956  1.00  0.00     0.200 HD
BRANCH  21  23
HETATM   23  N8  UNL     1      -8.651  32.168  10.717  1.00  0.00    -0.259 N 
HETATM   24  C14 UNL     1      -7.915  32.706   9.628  1.00  0.00     0.262 C 
HETATM   25  O8  UNL     1      -7.172  31.964   8.937  1.00  0.00    -0.270 OA
ATOM     26  H8  UNL     1      -9.252  32.773  11.278  1.00  0.00     0.190 HD
BRANCH  24  27
HETATM   27  C15 UNL     1      -7.978  34.135   9.255  1.00  0.00     0.333 C 
BRANCH  27  28
HETATM   28  N9  UNL     1      -9.311  34.570   8.935  1.00  0.00    -0.071 N 
ATOM     29  H93 UNL     1      -9.541  34.361   7.963  1.00  0.00     0.274 HD
ATOM     30  H92 UNL     1     -10.006  33.985   9.398  1.00  0.00     0.274 HD
ATOM     31  H91 UNL     1      -9.466  35.556   9.143  1.00  0.00     0.274 HD
ENDBRANCH  27  28
ENDBRANCH  24  27
ENDBRANCH  21  23
ENDBRANCH  18  21
ENDBRANCH  16  18
ENDBRANCH  10  12
ENDBRANCH   7   8
ENDBRANCH   5   7
BRANCH   1  32
HETATM   32  S1  UNL     1      -3.577  24.613   9.718  1.00  0.00     0.327 S 
HETATM   33  O2  UNL     1      -2.717  25.344   8.750  1.00  0.00    -0.182 OA
HETATM   34  O3  UNL     1      -2.970  23.236   9.876  1.00  0.00    -0.182 OA
BRANCH  32  35
HETATM   35  N3  UNL     1      -5.210  24.503   9.204  1.00  0.00    -0.266 N 
ATOM     36  H3  UNL     1      -5.670  23.594   9.149  1.00  0.00     0.180 HD
BRANCH  35  37
HETATM   37  C5  UNL     1      -5.921  25.682   8.854  1.00  0.00     0.060 A 
HETATM   38  C4  UNL     1      -7.291  25.773   8.866  1.00  0.00     0.052 A 
HETATM   39  C3  UNL     1      -7.901  26.983   8.517  1.00  0.00     0.079 A 
HETATM   40  C2  UNL     1      -9.280  27.103   8.520  1.00  0.00     0.273 A 
HETATM   41  C18 UNL     1      -7.172  28.097   8.160  1.00  0.00     0.136 A 
HETATM   42  N2  UNL     1      -9.855  28.267   8.185  1.00  0.00    -0.156 N 
HETATM   43  O1  UNL     1      -9.946  26.094   8.844  1.00  0.00    -0.267 OA
HETATM   44  C1  UNL     1      -9.085  29.321   7.844  1.00  0.00     0.680 A 
ATOM     45  H2  UNL     1     -10.871  28.355   8.188  1.00  0.00     0.187 HD
HETATM   46  N11 UNL     1      -7.740  29.269   7.822  1.00  0.00    -0.176 N 
ATOM     47  H11 UNL     1      -7.178  30.079   7.561  1.00  0.00     0.186 HD
HETATM   48  N10 UNL     1      -5.838  27.958   8.164  1.00  0.00    -0.349 N 
HETATM   49  C17 UNL     1      -5.214  26.826   8.488  1.00  0.00     0.119 A 
ATOM     50  H10 UNL     1      -5.269  28.764   7.904  1.00  0.00     0.167 HD
BRANCH  44  51
HETATM   51  N1  UNL     1      -9.687  30.436   7.523  1.00  0.00    -0.234 N 
ATOM     52  H12 UNL     1      -9.754  30.701   6.541  1.00  0.00     0.174 HD
ATOM     53  H11 UNL     1     -10.070  31.004   8.279  1.00  0.00     0.174 HD
ENDBRANCH  44  51
ENDBRANCH  35  37
ENDBRANCH  32  35
ENDBRANCH   1  32
TORSDOF 12
ENDMDL
MODEL 4
REMARK VINA RESULT: -6.639201109      3.110      3.603
REMARK  12 active torsions:
REMARK  status: ('A' for Active; 'I' for Inactive)
REMARK    1  A    between atoms: N1_1  and  C1_4 
REMARK    2  A    between atoms: C5_11  and  N3_12 
REMARK    3  A    between atoms: N3_12  and  S1_14 
REMARK    4  A    between atoms: S1_14  and  N4_17 
REMARK       I    between atoms: N4_17  and  C6_19 
REMARK       I    between atoms: C6_19  and  N5_21 
REMARK    5  A    between atoms: N5_21  and  C7_23 
REMARK    6  A    between atoms: C7_23  and  C8_24 
REMARK       I    between atoms: C8_24  and  N6_26 
REMARK    7  A    between atoms: N6_26  and  C9_28 
REMARK    8  A    between atoms: C13_32  and  S2_33 
REMARK    9  A    between atoms: S2_33  and  N7_36 
REMARK   10  A    between atoms: N7_36  and  N8_38 
REMARK       I    between atoms: N8_38  and  C14_40 
REMARK   11  A    between atoms: C14_40  and  C15_42 
REMARK   12  A    between atoms: C15_42  and  N9_43 
ROOT
HETATM    1  N4  UNL     1      -4.730  23.479  11.157  1.00  0.00    -0.219 N 
ATOM      2  H4  UNL     1      -4.327  22.595  11.469  1.00  0.00     0.185 HD
HETATM    3  C6  UNL     1      -4.712  24.613  11.998  1.00  0.00     0.331 C 
HETATM    4  O4  UNL     1      -5.209  25.723  11.625  1.00  0.00    -0.246 OA
HETATM    5  N5  UNL     1      -4.139  24.554  13.288  1.00  0.00    -0.334 N 
ATOM      6  H5  UNL     1      -3.744  23.663  13.593  1.00  0.00     0.164 HD
ENDROOT
BRANCH   5   7
HETATM    7  C7  UNL     1      -4.075  25.646  14.188  1.00  0.00     0.227 C 
BRANCH   7   8
HETATM    8  C8  UNL     1      -5.394  26.101  14.729  1.00  0.00     0.239 C 
HETATM    9  O5  UNL     1      -5.658  27.301  14.607  1.00  0.00    -0.271 OA
HETATM   10  N6  UNL     1      -6.238  25.182  15.326  1.00  0.00    -0.326 N 
ATOM     11  H6  UNL     1      -5.908  24.218  15.373  1.00  0.00     0.169 HD
BRANCH  10  12
HETATM   12  C9  UNL     1      -7.499  25.443  15.872  1.00  0.00     0.036 A 
HETATM   13  C10 UNL     1      -7.734  26.438  16.776  1.00  0.00     0.029 A 
HETATM   14  C11 UNL     1      -9.008  26.659  17.324  1.00  0.00     0.004 A 
HETATM   15  C12 UNL     1     -10.028  25.834  16.916  1.00  0.00     0.025 A 
HETATM   16  C13 UNL     1      -9.863  24.821  16.017  1.00  0.00     0.083 A 
HETATM   17  C16 UNL     1      -8.603  24.636  15.505  1.00  0.00     0.054 A 
BRANCH  16  18
HETATM   18  S2  UNL     1     -11.153  23.789  15.514  1.00  0.00     0.276 S 
HETATM   19  O6  UNL     1     -12.485  24.454  15.828  1.00  0.00    -0.199 OA
HETATM   20  O7  UNL     1     -11.160  23.576  14.010  1.00  0.00    -0.199 OA
BRANCH  18  21
HETATM   21  N7  UNL     1     -11.147  22.252  16.251  1.00  0.00    -0.220 N 
ATOM     22  H7  UNL     1     -10.591  22.028  17.075  1.00  0.00     0.200 HD
BRANCH  21  23
HETATM   23  N8  UNL     1     -11.977  21.333  15.616  1.00  0.00    -0.259 N 
HETATM   24  C14 UNL     1     -12.739  20.419  16.392  1.00  0.00     0.262 C 
HETATM   25  O8  UNL     1     -12.664  20.438  17.647  1.00  0.00    -0.270 OA
ATOM     26  H8  UNL     1     -12.038  21.315  14.598  1.00  0.00     0.190 HD
BRANCH  24  27
HETATM   27  C15 UNL     1     -13.641  19.418  15.784  1.00  0.00     0.333 C 
BRANCH  27  28
HETATM   28  N9  UNL     1     -13.118  18.865  14.563  1.00  0.00    -0.071 N 
ATOM     29  H93 UNL     1     -12.868  19.602  13.905  1.00  0.00     0.274 HD
ATOM     30  H92 UNL     1     -12.195  18.458  14.713  1.00  0.00     0.274 HD
ATOM     31  H91 UNL     1     -13.749  18.189  14.134  1.00  0.00     0.274 HD
ENDBRANCH  27  28
ENDBRANCH  24  27
ENDBRANCH  21  23
ENDBRANCH  18  21
ENDBRANCH  16  18
ENDBRANCH  10  12
ENDBRANCH   7   8
ENDBRANCH   5   7
BRANCH   1  32
HETATM   32  S1  UNL     1      -5.446  23.616   9.595  1.00  0.00     0.327 S 
HETATM   33  O2  UNL     1      -4.815  24.761   8.886  1.00  0.00    -0.182 OA
HETATM   34  O3  UNL     1      -5.131  22.381   8.779  1.00  0.00    -0.182 OA
BRANCH  32  35
HETATM   35  N3  UNL     1      -7.140  23.805   9.785  1.00  0.00    -0.266 N 
ATOM     36  H3  UNL     1      -7.697  23.055  10.195  1.00  0.00     0.180 HD
BRANCH  35  37
HETATM   37  C5  UNL     1      -7.767  25.011   9.370  1.00  0.00     0.060 A 
HETATM   38  C4  UNL     1      -7.076  26.103   8.906  1.00  0.00     0.052 A 
HETATM   39  C3  UNL     1      -7.784  27.243   8.507  1.00  0.00     0.079 A 
HETATM   40  C2  UNL     1      -7.114  28.359   8.036  1.00  0.00     0.273 A 
HETATM   41  C18 UNL     1      -9.160  27.310   8.562  1.00  0.00     0.136 A 
HETATM   42  N2  UNL     1      -7.801  29.445   7.656  1.00  0.00    -0.156 N 
HETATM   43  O1  UNL     1      -5.864  28.302   7.984  1.00  0.00    -0.267 OA
HETATM   44  C1  UNL     1      -9.147  29.448   7.734  1.00  0.00     0.680 A 
ATOM     45  H2  UNL     1      -7.307  30.267   7.308  1.00  0.00     0.187 HD
HETATM   46  N11 UNL     1      -9.858  28.396   8.183  1.00  0.00    -0.176 N 
ATOM     47  H11 UNL     1     -10.876  28.421   8.233  1.00  0.00     0.186 HD
HETATM   48  N10 UNL     1      -9.788  26.217   9.021  1.00  0.00    -0.349 N 
HETATM   49  C17 UNL     1      -9.157  25.112   9.412  1.00  0.00     0.119 A 
ATOM     50  H10 UNL     1     -10.807  26.234   9.075  1.00  0.00     0.167 HD
BRANCH  44  51
HETATM   51  N1  UNL     1      -9.778  30.529   7.354  1.00  0.00    -0.234 N 
ATOM     52  H12 UNL     1      -9.784  30.780   6.366  1.00  0.00     0.174 HD
ATOM     53  H11 UNL     1     -10.243  31.085   8.072  1.00  0.00     0.174 HD
ENDBRANCH  44  51
ENDBRANCH  35  37
ENDBRANCH  32  35
ENDBRANCH   1  32
TORSDOF 12
ENDMDL
MODEL 5
REMARK VINA RESULT: -6.552735272      2.770      3.580
REMARK  12 active torsions:
REMARK  status: ('A' for Active; 'I' for Inactive)
REMARK    1  A    between atoms: N1_1  and  C1_4 
REMARK    2  A    between atoms: C5_11  and  N3_12 
REMARK    3  A    between atoms: N3_12  and  S1_14 
REMARK    4  A    between atoms: S1_14  and  N4_17 
REMARK       I    between atoms: N4_17  and  C6_19 
REMARK       I    between atoms: C6_19  and  N5_21 
REMARK    5  A    between atoms: N5_21  and  C7_23 
REMARK    6  A    between atoms: C7_23  and  C8_24 
REMARK       I    between atoms: C8_24  and  N6_26 
REMARK    7  A    between atoms: N6_26  and  C9_28 
REMARK    8  A    between atoms: C13_32  and  S2_33 
REMARK    9  A    between atoms: S2_33  and  N7_36 
REMARK   10  A    between atoms: N7_36  and  N8_38 
REMARK       I    between atoms: N8_38  and  C14_40 
REMARK   11  A    between atoms: C14_40  and  C15_42 
REMARK   12  A    between atoms: C15_42  and  N9_43 
ROOT
HETATM    1  N4  UNL     1      -3.361  25.767  11.045  1.00  0.00    -0.219 N 
ATOM      2  H4  UNL     1      -2.823  26.633  11.089  1.00  0.00     0.185 HD
HETATM    3  C6  UNL     1      -3.974  25.243  12.204  1.00  0.00     0.331 C 
HETATM    4  O4  UNL     1      -4.650  24.166  12.168  1.00  0.00    -0.246 OA
HETATM    5  N5  UNL     1      -3.858  25.900  13.449  1.00  0.00    -0.334 N 
ATOM      6  H5  UNL     1      -3.312  26.762  13.484  1.00  0.00     0.164 HD
ENDROOT
BRANCH   5   7
HETATM    7  C7  UNL     1      -4.447  25.444  14.655  1.00  0.00     0.227 C 
BRANCH   7   8
HETATM    8  C8  UNL     1      -5.874  25.846  14.855  1.00  0.00     0.239 C 
HETATM    9  O5  UNL     1      -6.122  26.528  15.854  1.00  0.00    -0.271 OA
HETATM   10  N6  UNL     1      -6.830  25.447  13.937  1.00  0.00    -0.326 N 
ATOM     11  H6  UNL     1      -6.505  24.880  13.153  1.00  0.00     0.169 HD
BRANCH  10  12
HETATM   12  C9  UNL     1      -8.196  25.742  13.977  1.00  0.00     0.036 A 
HETATM   13  C10 UNL     1      -8.793  26.643  13.145  1.00  0.00     0.029 A 
HETATM   14  C11 UNL     1     -10.165  26.935  13.226  1.00  0.00     0.004 A 
HETATM   15  C12 UNL     1     -10.900  26.275  14.181  1.00  0.00     0.025 A 
HETATM   16  C13 UNL     1     -10.367  25.363  15.045  1.00  0.00     0.083 A 
HETATM   17  C16 UNL     1      -9.023  25.106  14.935  1.00  0.00     0.054 A 
BRANCH  16  18
HETATM   18  S2  UNL     1     -11.302  24.543  16.242  1.00  0.00     0.276 S 
HETATM   19  O6  UNL     1     -11.161  25.261  17.575  1.00  0.00    -0.199 OA
HETATM   20  O7  UNL     1     -12.788  24.577  15.927  1.00  0.00    -0.199 OA
BRANCH  18  21
HETATM   21  N7  UNL     1     -10.864  22.912  16.475  1.00  0.00    -0.220 N 
ATOM     22  H7  UNL     1     -10.088  22.620  17.068  1.00  0.00     0.200 HD
BRANCH  21  23
HETATM   23  N8  UNL     1     -11.671  22.019  15.776  1.00  0.00    -0.259 N 
HETATM   24  C14 UNL     1     -12.421  21.045  16.487  1.00  0.00     0.262 C 
HETATM   25  O8  UNL     1     -12.359  20.987  17.741  1.00  0.00    -0.270 OA
ATOM     26  H8  UNL     1     -11.722  22.063  14.758  1.00  0.00     0.190 HD
BRANCH  24  27
HETATM   27  C15 UNL     1     -13.299  20.067  15.809  1.00  0.00     0.333 C 
BRANCH  27  28
HETATM   28  N9  UNL     1     -12.621  19.333  14.773  1.00  0.00    -0.071 N 
ATOM     29  H93 UNL     1     -11.613  19.486  14.817  1.00  0.00     0.274 HD
ATOM     30  H92 UNL     1     -12.645  18.332  14.960  1.00  0.00     0.274 HD
ATOM     31  H91 UNL     1     -12.981  19.540  13.842  1.00  0.00     0.274 HD
ENDBRANCH  27  28
ENDBRANCH  24  27
ENDBRANCH  21  23
ENDBRANCH  18  21
ENDBRANCH  16  18
ENDBRANCH  10  12
ENDBRANCH   7   8
ENDBRANCH   5   7
BRANCH   1  32
HETATM   32  S1  UNL     1      -3.539  24.917   9.557  1.00  0.00     0.327 S 
HETATM   33  O2  UNL     1      -2.784  25.647   8.503  1.00  0.00    -0.182 OA
HETATM   34  O3  UNL     1      -2.902  23.550   9.670  1.00  0.00    -0.182 OA
BRANCH  32  35
HETATM   35  N3  UNL     1      -5.212  24.783   9.201  1.00  0.00    -0.266 N 
ATOM     36  H3  UNL     1      -5.676  23.876   9.258  1.00  0.00     0.180 HD
BRANCH  35  37
HETATM   37  C5  UNL     1      -5.950  25.938   8.827  1.00  0.00     0.060 A 
HETATM   38  C4  UNL     1      -7.321  25.994   8.826  1.00  0.00     0.052 A 
HETATM   39  C3  UNL     1      -7.959  27.183   8.454  1.00  0.00     0.079 A 
HETATM   40  C2  UNL     1      -9.340  27.268   8.444  1.00  0.00     0.273 A 
HETATM   41  C18 UNL     1      -7.255  28.310   8.085  1.00  0.00     0.136 A 
HETATM   42  N2  UNL     1      -9.941  28.412   8.086  1.00  0.00    -0.156 N 
HETATM   43  O1  UNL     1      -9.984  26.247   8.778  1.00  0.00    -0.267 OA
HETATM   44  C1  UNL     1      -9.195  29.479   7.735  1.00  0.00     0.680 A 
ATOM     45  H2  UNL     1     -10.959  28.474   8.079  1.00  0.00     0.187 HD
HETATM   46  N11 UNL     1      -7.849  29.461   7.724  1.00  0.00    -0.176 N 
ATOM     47  H11 UNL     1      -7.306  30.282   7.455  1.00  0.00     0.186 HD
HETATM   48  N10 UNL     1      -5.918  28.204   8.102  1.00  0.00    -0.349 N 
HETATM   49  C17 UNL     1      -5.268  27.094   8.448  1.00  0.00     0.119 A 
ATOM     50  H10 UNL     1      -5.367  29.021   7.834  1.00  0.00     0.167 HD
BRANCH  44  51
HETATM   51  N1  UNL     1      -9.822  30.574   7.391  1.00  0.00    -0.234 N 
ATOM     52  H12 UNL     1      -9.365  31.475   7.530  1.00  0.00     0.174 HD
ATOM     53  H11 UNL     1     -10.757  30.482   6.994  1.00  0.00     0.174 HD
ENDBRANCH  44  51
ENDBRANCH  35  37
ENDBRANCH  32  35
ENDBRANCH   1  32
TORSDOF 12
ENDMDL
