MODEL 1
REMARK VINA RESULT: -7.128957354      0.000      0.000
REMARK  14 active torsions:
REMARK  status: ('A' for Active; 'I' for Inactive)
REMARK    1  A    between atoms: C2_2  and  N1_3 
REMARK    2  A    between atoms: C2_2  and  N2_7 
REMARK    3  A    between atoms: N2_7  and  C3_9 
REMARK    4  A    between atoms: C5_11  and  C6_12 
REMARK       I    between atoms: C6_12  and  N3_14 
REMARK    5  A    between atoms: N3_14  and  C7_16 
REMARK    6  A    between atoms: C7_16  and  C8_17 
REMARK    7  A    between atoms: C7_16  and  C12_25 
REMARK    8  A    between atoms: C8_17  and  C9_18 
REMARK    9  A    between atoms: C15_30  and  C16_31 
REMARK       I    between atoms: C16_31  and  N7_33 
REMARK   10  A    between atoms: N7_33  and  C17_35 
REMARK   11  A    between atoms: C17_35  and  C18_36 
REMARK       I    between atoms: C18_36  and  N8_38 
REMARK   12  A    between atoms: N8_38  and  C19_40 
REMARK   13  A    between atoms: C22_47  and  N11_48 
REMARK   14  A    between atoms: C23_53  and  N13_54 
ROOT
HETATM    1  C3  UNL     1     -10.018  25.146  10.944  1.00  0.00     0.046 A 
HETATM    2  C4  UNL     1     -10.404  24.584  12.161  1.00  0.00     0.047 A 
HETATM    3  C5  UNL     1     -10.950  25.298  13.191  1.00  0.00     0.034 A 
HETATM    4  C13 UNL     1     -11.122  26.644  13.003  1.00  0.00     0.018 A 
HETATM    5  C14 UNL     1     -10.756  27.251  11.820  1.00  0.00     0.020 A 
HETATM    6  C15 UNL     1     -10.193  26.511  10.762  1.00  0.00     0.058 A 
ENDROOT
BRANCH   6   7
HETATM    7  C16 UNL     1      -9.779  27.184   9.548  1.00  0.00     0.254 C 
HETATM    8  O3  UNL     1     -10.163  26.806   8.428  1.00  0.00    -0.268 OA
HETATM    9  N7  UNL     1      -8.912  28.307   9.610  1.00  0.00    -0.348 N 
ATOM     10  H7  UNL     1      -8.572  28.631  10.515  1.00  0.00     0.163 HD
BRANCH   9  11
HETATM   11  C17 UNL     1      -8.499  29.009   8.388  1.00  0.00     0.226 C 
BRANCH  11  12
HETATM   12  C18 UNL     1      -7.128  28.512   8.031  1.00  0.00     0.240 C 
HETATM   13  O4  UNL     1      -6.602  29.178   7.059  1.00  0.00    -0.271 OA
HETATM   14  N8  UNL     1      -6.549  27.494   8.662  1.00  0.00    -0.310 N 
ATOM     15  H8  UNL     1      -6.111  27.922   9.478  1.00  0.00     0.170 HD
BRANCH  14  16
HETATM   16  C19 UNL     1      -6.275  26.306   8.761  1.00  0.00     0.139 A 
HETATM   17  N9  UNL     1      -6.842  25.414   7.864  1.00  0.00    -0.337 N 
HETATM   18  C20 UNL     1      -6.594  24.106   7.905  1.00  0.00     0.182 A 
ATOM     19  H9  UNL     1      -7.471  25.773   7.146  1.00  0.00     0.168 HD
HETATM   20  N10 UNL     1      -5.779  23.549   8.816  1.00  0.00    -0.347 N 
HETATM   21  C21 UNL     1      -5.188  24.346   9.725  1.00  0.00     0.109 A 
ATOM     22  H10 UNL     1      -5.612  22.543   8.819  1.00  0.00     0.167 HD
HETATM   23  C22 UNL     1      -4.358  23.761  10.650  1.00  0.00     0.144 A 
HETATM   24  C24 UNL     1      -5.439  25.731   9.695  1.00  0.00     0.123 A 
HETATM   25  N12 UNL     1      -3.786  24.592  11.546  1.00  0.00    -0.175 N 
HETATM   26  C23 UNL     1      -4.007  25.905  11.537  1.00  0.00     0.678 A 
ATOM     27  H12 UNL     1      -3.162  24.202  12.252  1.00  0.00     0.186 HD
HETATM   28  N14 UNL     1      -4.827  26.473  10.620  1.00  0.00    -0.186 N 
ATOM     29  H14 UNL     1      -4.979  27.482  10.636  1.00  0.00     0.184 HD
BRANCH  23  30
HETATM   30  N11 UNL     1      -4.086  22.522  10.735  1.00  0.00    -0.383 N 
ATOM     31 2H11 UNL     1      -4.858  21.878  10.910  1.00  0.00     0.157 HD
ATOM     32 1H11 UNL     1      -3.161  22.103  10.646  1.00  0.00     0.157 HD
ENDBRANCH  23  30
BRANCH  26  33
HETATM   33  N13 UNL     1      -3.460  26.714  12.398  1.00  0.00    -0.234 N 
ATOM     34 2H13 UNL     1      -2.448  26.823  12.334  1.00  0.00     0.174 HD
ATOM     35 1H13 UNL     1      -4.002  27.218  13.099  1.00  0.00     0.174 HD
ENDBRANCH  26  33
ENDBRANCH  14  16
ENDBRANCH  11  12
ENDBRANCH   9  11
ENDBRANCH   6   7
BRANCH   1  36
HETATM   36  N2  UNL     1      -9.513  24.295   9.939  1.00  0.00    -0.362 N 
ATOM     37  H2  UNL     1      -8.694  24.579   9.401  1.00  0.00     0.161 HD
BRANCH  36  38
HETATM   38  C2  UNL     1     -10.158  22.993   9.657  1.00  0.00     0.277 C 
HETATM   39  C1  UNL     1      -9.155  21.891   9.504  1.00  0.00     0.063 C 
BRANCH  38  40
HETATM   40  N1  UNL     1     -10.941  23.051   8.432  1.00  0.00    -0.059 N 
ATOM     41  H13 UNL     1     -10.462  22.630   7.636  1.00  0.00     0.276 HD
ATOM     42  H12 UNL     1     -11.749  22.429   8.448  1.00  0.00     0.276 HD
ATOM     43  H11 UNL     1     -11.193  24.026   8.273  1.00  0.00     0.276 HD
ENDBRANCH  38  40
ENDBRANCH  36  38
ENDBRANCH   1  36
BRANCH   3  44
HETATM   44  C6  UNL     1     -11.339  24.629  14.446  1.00  0.00     0.252 C 
HETATM   45  O1  UNL     1     -11.276  23.373  14.454  1.00  0.00    -0.268 OA
HETATM   46  N3  UNL     1     -11.761  25.382  15.575  1.00  0.00    -0.344 N 
ATOM     47  H3  UNL     1     -11.788  26.399  15.506  1.00  0.00     0.163 HD
BRANCH  46  48
HETATM   48  C7  UNL     1     -12.152  24.763  16.808  1.00  0.00     0.179 C 
BRANCH  48  49
HETATM   49  C8  UNL     1     -11.815  25.633  18.013  1.00  0.00     0.093 C 
BRANCH  49  50
HETATM   50  C9  UNL     1     -10.438  26.167  17.951  1.00  0.00     0.028 A 
HETATM   51  C10 UNL     1     -10.015  27.473  17.982  1.00  0.00     0.114 A 
HETATM   52  N4  UNL     1      -8.686  27.492  17.899  1.00  0.00    -0.360 N 
HETATM   53  C11 UNL     1      -8.274  26.219  17.818  1.00  0.00     0.180 A 
ATOM     54  H4  UNL     1      -8.092  28.321  17.898  1.00  0.00     0.166 HD
HETATM   55  N5  UNL     1      -9.335  25.412  17.849  1.00  0.00    -0.354 N 
ATOM     56  H5  UNL     1      -9.312  24.394  17.803  1.00  0.00     0.166 HD
ENDBRANCH  49  50
ENDBRANCH  48  49
BRANCH  48  57
HETATM   57  C12 UNL     1     -13.589  24.392  16.827  1.00  0.00     0.254 C 
HETATM   58  N6  UNL     1     -14.620  25.341  17.019  1.00  0.00    -0.060 NA
HETATM   59  O2  UNL     1     -13.943  23.184  16.668  1.00  0.00    -0.275 OA
ENDBRANCH  48  57
ENDBRANCH  46  48
ENDBRANCH   3  44
TORSDOF 14
ENDMDL
MODEL 2
REMARK VINA RESULT: -7.056544540      1.383      1.644
REMARK  14 active torsions:
REMARK  status: ('A' for Active; 'I' for Inactive)
REMARK    1  A    between atoms: C2_2  and  N1_3 
REMARK    2  A    between atoms: C2_2  and  N2_7 
REMARK    3  A    between atoms: N2_7  and  C3_9 
REMARK    4  A    between atoms: C5_11  and  C6_12 
REMARK       I    between atoms: C6_12  and  N3_14 
REMARK    5  A    between atoms: N3_14  and  C7_16 
REMARK    6  A    between atoms: C7_16  and  C8_17 
REMARK    7  A    between atoms: C7_16  and  C12_25 
REMARK    8  A    between atoms: C8_17  and  C9_18 
REMARK    9  A    between atoms: C15_30  and  C16_31 
REMARK       I    between atoms: C16_31  and  N7_33 
REMARK   10  A    between atoms: N7_33  and  C17_35 
REMARK   11  A    between atoms: C17_35  and  C18_36 
REMARK       I    between atoms: C18_36  and  N8_38 
REMARK   12  A    between atoms: N8_38  and  C19_40 
REMARK   13  A    between atoms: C22_47  and  N11_48 
REMARK   14  A    between atoms: C23_53  and  N13_54 
ROOT
HETATM    1  C3  UNL     1      -9.963  25.033  11.155  1.00  0.00     0.046 A 
HETATM    2  C4  UNL     1     -10.352  24.579  12.416  1.00  0.00     0.047 A 
HETATM    3  C5  UNL     1     -10.988  25.357  13.342  1.00  0.00     0.034 A 
HETATM    4  C13 UNL     1     -11.254  26.657  12.999  1.00  0.00     0.018 A 
HETATM    5  C14 UNL     1     -10.891  27.156  11.766  1.00  0.00     0.020 A 
HETATM    6  C15 UNL     1     -10.234  26.352  10.815  1.00  0.00     0.058 A 
ENDROOT
BRANCH   6   7
HETATM    7  C16 UNL     1      -9.826  26.917   9.546  1.00  0.00     0.254 C 
HETATM    8  O3  UNL     1     -10.195  26.429   8.464  1.00  0.00    -0.268 OA
HETATM    9  N7  UNL     1      -8.982  28.059   9.506  1.00  0.00    -0.348 N 
ATOM     10  H7  UNL     1      -8.654  28.472  10.378  1.00  0.00     0.163 HD
BRANCH   9  11
HETATM   11  C17 UNL     1      -8.576  28.652   8.226  1.00  0.00     0.226 C 
BRANCH  11  12
HETATM   12  C18 UNL     1      -7.076  28.628   8.181  1.00  0.00     0.240 C 
HETATM   13  O4  UNL     1      -6.608  29.171   7.108  1.00  0.00    -0.271 OA
HETATM   14  N8  UNL     1      -6.339  28.097   9.152  1.00  0.00    -0.310 N 
ATOM     15  H8  UNL     1      -6.241  28.849   9.833  1.00  0.00     0.170 HD
BRANCH  14  16
HETATM   16  C19 UNL     1      -5.718  27.164   9.643  1.00  0.00     0.139 A 
HETATM   17  N9  UNL     1      -4.741  26.540   8.883  1.00  0.00    -0.337 N 
HETATM   18  C20 UNL     1      -4.023  25.518   9.346  1.00  0.00     0.182 A 
ATOM     19  H9  UNL     1      -4.566  26.874   7.937  1.00  0.00     0.168 HD
HETATM   20  N10 UNL     1      -4.188  25.011  10.579  1.00  0.00    -0.347 N 
HETATM   21  C21 UNL     1      -5.118  25.561  11.382  1.00  0.00     0.109 A 
ATOM     22  H10 UNL     1      -3.621  24.227  10.901  1.00  0.00     0.167 HD
HETATM   23  C22 UNL     1      -5.275  25.032  12.640  1.00  0.00     0.144 A 
HETATM   24  C24 UNL     1      -5.886  26.642  10.909  1.00  0.00     0.123 A 
HETATM   25  N12 UNL     1      -6.217  25.608  13.414  1.00  0.00    -0.175 N 
HETATM   26  C23 UNL     1      -6.955  26.632  12.990  1.00  0.00     0.678 A 
ATOM     27  H12 UNL     1      -6.369  25.249  14.356  1.00  0.00     0.186 HD
HETATM   28  N14 UNL     1      -6.793  27.148  11.747  1.00  0.00    -0.186 N 
ATOM     29  H14 UNL     1      -7.372  27.932  11.448  1.00  0.00     0.184 HD
BRANCH  23  30
HETATM   30  N11 UNL     1      -4.618  24.061  13.131  1.00  0.00    -0.383 N 
ATOM     31 2H11 UNL     1      -3.616  24.189  13.273  1.00  0.00     0.157 HD
ATOM     32 1H11 UNL     1      -4.998  23.154  13.402  1.00  0.00     0.157 HD
ENDBRANCH  23  30
BRANCH  26  33
HETATM   33  N13 UNL     1      -7.868  27.194  13.730  1.00  0.00    -0.234 N 
ATOM     34 2H13 UNL     1      -7.584  27.455  14.674  1.00  0.00     0.174 HD
ATOM     35 1H13 UNL     1      -8.815  27.370  13.395  1.00  0.00     0.174 HD
ENDBRANCH  26  33
ENDBRANCH  14  16
ENDBRANCH  11  12
ENDBRANCH   9  11
ENDBRANCH   6   7
BRANCH   1  36
HETATM   36  N2  UNL     1      -9.358  24.119  10.267  1.00  0.00    -0.362 N 
ATOM     37  H2  UNL     1      -8.397  24.271   9.963  1.00  0.00     0.161 HD
BRANCH  36  38
HETATM   38  C2  UNL     1     -10.104  22.939   9.773  1.00  0.00     0.277 C 
HETATM   39  C1  UNL     1      -9.192  21.798   9.441  1.00  0.00     0.063 C 
BRANCH  38  40
HETATM   40  N1  UNL     1     -10.861  23.264   8.574  1.00  0.00    -0.059 N 
ATOM     41  H13 UNL     1     -10.842  24.259   8.350  1.00  0.00     0.276 HD
ATOM     42  H12 UNL     1     -10.415  22.926   7.721  1.00  0.00     0.276 HD
ATOM     43  H11 UNL     1     -11.806  22.904   8.698  1.00  0.00     0.276 HD
ENDBRANCH  38  40
ENDBRANCH  36  38
ENDBRANCH   1  36
BRANCH   3  44
HETATM   44  C6  UNL     1     -11.373  24.801  14.653  1.00  0.00     0.252 C 
HETATM   45  O1  UNL     1     -11.279  23.554  14.782  1.00  0.00    -0.268 OA
HETATM   46  N3  UNL     1     -11.825  25.648  15.701  1.00  0.00    -0.344 N 
ATOM     47  H3  UNL     1     -11.876  26.653  15.534  1.00  0.00     0.163 HD
BRANCH  46  48
HETATM   48  C7  UNL     1     -12.212  25.140  16.985  1.00  0.00     0.179 C 
BRANCH  48  49
HETATM   49  C8  UNL     1     -11.495  25.861  18.121  1.00  0.00     0.093 C 
BRANCH  49  50
HETATM   50  C9  UNL     1     -10.108  26.229  17.763  1.00  0.00     0.028 A 
HETATM   51  C10 UNL     1      -9.559  27.478  17.609  1.00  0.00     0.114 A 
HETATM   52  N4  UNL     1      -8.275  27.340  17.283  1.00  0.00    -0.360 N 
HETATM   53  C11 UNL     1      -8.016  26.026  17.232  1.00  0.00     0.180 A 
ATOM     54  H4  UNL     1      -7.612  28.094  17.104  1.00  0.00     0.166 HD
HETATM   55  N5  UNL     1      -9.127  25.349  17.523  1.00  0.00    -0.354 N 
ATOM     56  H5  UNL     1      -9.215  24.333  17.558  1.00  0.00     0.166 HD
ENDBRANCH  49  50
ENDBRANCH  48  49
BRANCH  48  57
HETATM   57  C12 UNL     1     -13.680  25.185  17.194  1.00  0.00     0.254 C 
HETATM   58  N6  UNL     1     -14.563  24.239  16.623  1.00  0.00    -0.060 NA
HETATM   59  O2  UNL     1     -14.201  26.097  17.907  1.00  0.00    -0.275 OA
ENDBRANCH  48  57
ENDBRANCH  46  48
ENDBRANCH   3  44
TORSDOF 14
ENDMDL
MODEL 3
REMARK VINA RESULT: -6.585180299      3.640      5.680
REMARK  14 active torsions:
REMARK  status: ('A' for Active; 'I' for Inactive)
REMARK    1  A    between atoms: C2_2  and  N1_3 
REMARK    2  A    between atoms: C2_2  and  N2_7 
REMARK    3  A    between atoms: N2_7  and  C3_9 
REMARK    4  A    between atoms: C5_11  and  C6_12 
REMARK       I    between atoms: C6_12  and  N3_14 
REMARK    5  A    between atoms: N3_14  and  C7_16 
REMARK    6  A    between atoms: C7_16  and  C8_17 
REMARK    7  A    between atoms: C7_16  and  C12_25 
REMARK    8  A    between atoms: C8_17  and  C9_18 
REMARK    9  A    between atoms: C15_30  and  C16_31 
REMARK       I    between atoms: C16_31  and  N7_33 
REMARK   10  A    between atoms: N7_33  and  C17_35 
REMARK   11  A    between atoms: C17_35  and  C18_36 
REMARK       I    between atoms: C18_36  and  N8_38 
REMARK   12  A    between atoms: N8_38  and  C19_40 
REMARK   13  A    between atoms: C22_47  and  N11_48 
REMARK   14  A    between atoms: C23_53  and  N13_54 
ROOT
HETATM    1  C3  UNL     1      -9.587  25.048  13.949  1.00  0.00     0.046 A 
HETATM    2  C4  UNL     1     -10.692  24.264  14.283  1.00  0.00     0.047 A 
HETATM    3  C5  UNL     1     -10.984  23.864  15.557  1.00  0.00     0.034 A 
HETATM    4  C13 UNL     1     -10.135  24.264  16.554  1.00  0.00     0.018 A 
HETATM    5  C14 UNL     1      -9.028  25.039  16.278  1.00  0.00     0.020 A 
HETATM    6  C15 UNL     1      -8.729  25.447  14.964  1.00  0.00     0.058 A 
ENDROOT
BRANCH   6   7
HETATM    7  C16 UNL     1      -7.535  26.224  14.701  1.00  0.00     0.254 C 
HETATM    8  O3  UNL     1      -7.574  27.280  14.047  1.00  0.00    -0.268 OA
HETATM    9  N7  UNL     1      -6.274  25.791  15.191  1.00  0.00    -0.348 N 
ATOM     10  H7  UNL     1      -6.211  24.922  15.720  1.00  0.00     0.163 HD
BRANCH   9  11
HETATM   11  C17 UNL     1      -5.059  26.579  14.946  1.00  0.00     0.226 C 
BRANCH  11  12
HETATM   12  C18 UNL     1      -4.089  25.687  14.229  1.00  0.00     0.240 C 
HETATM   13  O4  UNL     1      -2.867  25.908  14.580  1.00  0.00    -0.271 OA
HETATM   14  N8  UNL     1      -4.474  24.782  13.333  1.00  0.00    -0.310 N 
ATOM     15  H8  UNL     1      -4.714  23.963  13.891  1.00  0.00     0.170 HD
BRANCH  14  16
HETATM   16  C19 UNL     1      -4.687  24.434  12.180  1.00  0.00     0.139 A 
HETATM   17  N9  UNL     1      -4.113  23.259  11.721  1.00  0.00    -0.337 N 
HETATM   18  C20 UNL     1      -4.298  22.813  10.480  1.00  0.00     0.182 A 
ATOM     19  H9  UNL     1      -3.529  22.717  12.356  1.00  0.00     0.168 HD
HETATM   20  N10 UNL     1      -5.050  23.463   9.576  1.00  0.00    -0.347 N 
HETATM   21  C21 UNL     1      -5.643  24.614   9.942  1.00  0.00     0.109 A 
ATOM     22  H10 UNL     1      -5.169  23.093   8.634  1.00  0.00     0.167 HD
HETATM   23  C22 UNL     1      -6.409  25.268   9.007  1.00  0.00     0.144 A 
HETATM   24  C24 UNL     1      -5.460  25.100  11.251  1.00  0.00     0.123 A 
HETATM   25  N12 UNL     1      -6.987  26.418   9.411  1.00  0.00    -0.175 N 
HETATM   26  C23 UNL     1      -6.828  26.897  10.643  1.00  0.00     0.678 A 
ATOM     27  H12 UNL     1      -7.564  26.938   8.750  1.00  0.00     0.186 HD
HETATM   28  N14 UNL     1      -6.071  26.245  11.558  1.00  0.00    -0.186 N 
ATOM     29  H14 UNL     1      -5.967  26.635  12.495  1.00  0.00     0.184 HD
BRANCH  23  30
HETATM   30  N11 UNL     1      -6.619  24.888   7.813  1.00  0.00    -0.383 N 
ATOM     31 2H11 UNL     1      -6.545  23.891   7.612  1.00  0.00     0.157 HD
ATOM     32 1H11 UNL     1      -6.856  25.489   7.024  1.00  0.00     0.157 HD
ENDBRANCH  23  30
BRANCH  26  33
HETATM   33  N13 UNL     1      -7.381  28.008  11.040  1.00  0.00    -0.234 N 
ATOM     34 2H13 UNL     1      -6.942  28.870  10.716  1.00  0.00     0.174 HD
ATOM     35 1H13 UNL     1      -8.206  28.028  11.639  1.00  0.00     0.174 HD
ENDBRANCH  26  33
ENDBRANCH  14  16
ENDBRANCH  11  12
ENDBRANCH   9  11
ENDBRANCH   6   7
BRANCH   1  36
HETATM   36  N2  UNL     1      -9.420  25.438  12.603  1.00  0.00    -0.362 N 
ATOM     37  H2  UNL     1      -8.491  25.416  12.182  1.00  0.00     0.161 HD
BRANCH  36  38
HETATM   38  C2  UNL     1     -10.579  25.878  11.795  1.00  0.00     0.277 C 
HETATM   39  C1  UNL     1     -10.408  25.549  10.344  1.00  0.00     0.063 C 
BRANCH  38  40
HETATM   40  N1  UNL     1     -10.775  27.316  11.902  1.00  0.00    -0.059 N 
ATOM     41  H13 UNL     1     -11.494  27.569  12.581  1.00  0.00     0.276 HD
ATOM     42  H12 UNL     1      -9.992  27.790  12.351  1.00  0.00     0.276 HD
ATOM     43  H11 UNL     1     -10.971  27.672  10.966  1.00  0.00     0.276 HD
ENDBRANCH  38  40
ENDBRANCH  36  38
ENDBRANCH   1  36
BRANCH   3  44
HETATM   44  C6  UNL     1     -12.176  23.040  15.830  1.00  0.00     0.252 C 
HETATM   45  O1  UNL     1     -13.199  23.650  16.232  1.00  0.00    -0.268 OA
HETATM   46  N3  UNL     1     -12.149  21.631  15.642  1.00  0.00    -0.344 N 
ATOM     47  H3  UNL     1     -11.288  21.196  15.311  1.00  0.00     0.163 HD
BRANCH  46  48
HETATM   48  C7  UNL     1     -13.288  20.800  15.904  1.00  0.00     0.179 C 
BRANCH  48  49
HETATM   49  C8  UNL     1     -13.223  19.487  15.131  1.00  0.00     0.093 C 
BRANCH  49  50
HETATM   50  C9  UNL     1     -14.379  19.313  14.227  1.00  0.00     0.028 A 
HETATM   51  C10 UNL     1     -14.390  19.104  12.869  1.00  0.00     0.114 A 
HETATM   52  N4  UNL     1     -15.655  19.003  12.465  1.00  0.00    -0.360 N 
HETATM   53  C11 UNL     1     -16.432  19.146  13.548  1.00  0.00     0.180 A 
ATOM     54  H4  UNL     1     -15.974  18.848  11.509  1.00  0.00     0.166 HD
HETATM   55  N5  UNL     1     -15.660  19.334  14.619  1.00  0.00    -0.354 N 
ATOM     56  H5  UNL     1     -15.989  19.471  15.575  1.00  0.00     0.166 HD
ENDBRANCH  49  50
ENDBRANCH  48  49
BRANCH  48  57
HETATM   57  C12 UNL     1     -13.477  20.535  17.352  1.00  0.00     0.254 C 
HETATM   58  N6  UNL     1     -14.704  20.088  17.893  1.00  0.00    -0.060 NA
HETATM   59  O2  UNL     1     -12.520  20.708  18.167  1.00  0.00    -0.275 OA
ENDBRANCH  48  57
ENDBRANCH  46  48
ENDBRANCH   3  44
TORSDOF 14
ENDMDL
MODEL 4
REMARK VINA RESULT: -6.550508221      1.052      2.061
REMARK  14 active torsions:
REMARK  status: ('A' for Active; 'I' for Inactive)
REMARK    1  A    between atoms: C2_2  and  N1_3 
REMARK    2  A    between atoms: C2_2  and  N2_7 
REMARK    3  A    between atoms: N2_7  and  C3_9 
REMARK    4  A    between atoms: C5_11  and  C6_12 
REMARK       I    between atoms: C6_12  and  N3_14 
REMARK    5  A    between atoms: N3_14  and  C7_16 
REMARK    6  A    between atoms: C7_16  and  C8_17 
REMARK    7  A    between atoms: C7_16  and  C12_25 
REMARK    8  A    between atoms: C8_17  and  C9_18 
REMARK    9  A    between atoms: C15_30  and  C16_31 
REMARK       I    between atoms: C16_31  and  N7_33 
REMARK   10  A    between atoms: N7_33  and  C17_35 
REMARK   11  A    between atoms: C17_35  and  C18_36 
REMARK       I    between atoms: C18_36  and  N8_38 
REMARK   12  A    between atoms: N8_38  and  C19_40 
REMARK   13  A    between atoms: C22_47  and  N11_48 
REMARK   14  A    between atoms: C23_53  and  N13_54 
ROOT
HETATM    1  C3  UNL     1     -10.015  25.077  11.003  1.00  0.00     0.046 A 
HETATM    2  C4  UNL     1     -10.385  24.533  12.233  1.00  0.00     0.047 A 
HETATM    3  C5  UNL     1     -10.961  25.254  13.242  1.00  0.00     0.034 A 
HETATM    4  C13 UNL     1     -11.181  26.587  13.018  1.00  0.00     0.018 A 
HETATM    5  C14 UNL     1     -10.833  27.175  11.820  1.00  0.00     0.020 A 
HETATM    6  C15 UNL     1     -10.239  26.430  10.784  1.00  0.00     0.058 A 
ENDROOT
BRANCH   6   7
HETATM    7  C16 UNL     1      -9.845  27.085   9.554  1.00  0.00     0.254 C 
HETATM    8  O3  UNL     1      -9.989  26.538   8.448  1.00  0.00    -0.268 OA
HETATM    9  N7  UNL     1      -9.277  28.386   9.584  1.00  0.00    -0.348 N 
ATOM     10  H7  UNL     1      -9.136  28.853  10.479  1.00  0.00     0.163 HD
BRANCH   9  11
HETATM   11  C17 UNL     1      -8.890  29.069   8.343  1.00  0.00     0.226 C 
BRANCH  11  12
HETATM   12  C18 UNL     1      -7.390  29.109   8.306  1.00  0.00     0.240 C 
HETATM   13  O4  UNL     1      -6.932  29.283   7.113  1.00  0.00    -0.271 OA
HETATM   14  N8  UNL     1      -6.644  28.974   9.399  1.00  0.00    -0.310 N 
ATOM     15  H8  UNL     1      -6.594  29.916   9.787  1.00  0.00     0.170 HD
BRANCH  14  16
HETATM   16  C19 UNL     1      -5.986  28.294  10.174  1.00  0.00     0.139 A 
HETATM   17  N9  UNL     1      -5.379  28.913  11.256  1.00  0.00    -0.337 N 
HETATM   18  C20 UNL     1      -4.648  28.242  12.144  1.00  0.00     0.182 A 
ATOM     19  H9  UNL     1      -5.497  29.918  11.375  1.00  0.00     0.168 HD
HETATM   20  N10 UNL     1      -4.439  26.917  12.062  1.00  0.00    -0.347 N 
HETATM   21  C21 UNL     1      -4.994  26.240  11.040  1.00  0.00     0.109 A 
ATOM     22  H10 UNL     1      -3.872  26.435  12.760  1.00  0.00     0.167 HD
HETATM   23  C22 UNL     1      -4.771  24.886  10.971  1.00  0.00     0.144 A 
HETATM   24  C24 UNL     1      -5.771  26.934  10.093  1.00  0.00     0.123 A 
HETATM   25  N12 UNL     1      -5.342  24.241   9.932  1.00  0.00    -0.175 N 
HETATM   26  C23 UNL     1      -6.081  24.876   9.024  1.00  0.00     0.678 A 
ATOM     27  H12 UNL     1      -5.204  23.235   9.840  1.00  0.00     0.186 HD
HETATM   28  N14 UNL     1      -6.296  26.212   9.101  1.00  0.00    -0.186 N 
ATOM     29  H14 UNL     1      -6.867  26.672   8.392  1.00  0.00     0.184 HD
BRANCH  23  30
HETATM   30  N11 UNL     1      -4.084  24.197  11.788  1.00  0.00    -0.383 N 
ATOM     31 2H11 UNL     1      -3.341  24.671  12.301  1.00  0.00     0.157 HD
ATOM     32 1H11 UNL     1      -4.203  23.203  11.985  1.00  0.00     0.157 HD
ENDBRANCH  23  30
BRANCH  26  33
HETATM   33  N13 UNL     1      -6.635  24.262   8.017  1.00  0.00    -0.234 N 
ATOM     34 2H13 UNL     1      -6.257  23.343   7.787  1.00  0.00     0.174 HD
ATOM     35 1H13 UNL     1      -7.405  24.665   7.484  1.00  0.00     0.174 HD
ENDBRANCH  26  33
ENDBRANCH  14  16
ENDBRANCH  11  12
ENDBRANCH   9  11
ENDBRANCH   6   7
BRANCH   1  36
HETATM   36  N2  UNL     1      -9.475  24.219  10.022  1.00  0.00    -0.362 N 
ATOM     37  H2  UNL     1      -8.620  24.484   9.534  1.00  0.00     0.161 HD
BRANCH  36  38
HETATM   38  C2  UNL     1     -10.138  22.937   9.693  1.00  0.00     0.277 C 
HETATM   39  C1  UNL     1      -9.150  21.826   9.511  1.00  0.00     0.063 C 
BRANCH  38  40
HETATM   40  N1  UNL     1     -10.910  23.047   8.465  1.00  0.00    -0.059 N 
ATOM     41  H13 UNL     1     -10.944  22.174   7.938  1.00  0.00     0.276 HD
ATOM     42  H12 UNL     1     -11.912  23.141   8.635  1.00  0.00     0.276 HD
ATOM     43  H11 UNL     1     -10.524  23.820   7.925  1.00  0.00     0.276 HD
ENDBRANCH  38  40
ENDBRANCH  36  38
ENDBRANCH   1  36
BRANCH   3  44
HETATM   44  C6  UNL     1     -11.330  24.603  14.513  1.00  0.00     0.252 C 
HETATM   45  O1  UNL     1     -11.266  23.348  14.539  1.00  0.00    -0.268 OA
HETATM   46  N3  UNL     1     -11.735  25.374  15.637  1.00  0.00    -0.344 N 
ATOM     47  H3  UNL     1     -11.763  26.390  15.552  1.00  0.00     0.163 HD
BRANCH  46  48
HETATM   48  C7  UNL     1     -12.106  24.773  16.885  1.00  0.00     0.179 C 
BRANCH  48  49
HETATM   49  C8  UNL     1     -11.605  25.582  18.076  1.00  0.00     0.093 C 
BRANCH  49  50
HETATM   50  C9  UNL     1     -10.240  26.107  17.861  1.00  0.00     0.028 A 
HETATM   51  C10 UNL     1      -9.803  27.410  17.873  1.00  0.00     0.114 A 
HETATM   52  N4  UNL     1      -8.493  27.421  17.632  1.00  0.00    -0.360 N 
HETATM   53  C11 UNL     1      -8.107  26.147  17.472  1.00  0.00     0.180 A 
ATOM     54  H4  UNL     1      -7.895  28.245  17.578  1.00  0.00     0.166 HD
HETATM   55  N5  UNL     1      -9.165  25.348  17.610  1.00  0.00    -0.354 N 
ATOM     56  H5  UNL     1      -9.157  24.330  17.538  1.00  0.00     0.166 HD
ENDBRANCH  49  50
ENDBRANCH  48  49
BRANCH  48  57
HETATM   57  C12 UNL     1     -13.569  24.549  16.995  1.00  0.00     0.254 C 
HETATM   58  N6  UNL     1     -14.172  23.296  16.735  1.00  0.00    -0.060 NA
HETATM   59  O2  UNL     1     -14.341  25.498  17.332  1.00  0.00    -0.275 OA
ENDBRANCH  48  57
ENDBRANCH  46  48
ENDBRANCH   3  44
TORSDOF 14
ENDMDL
MODEL 5
REMARK VINA RESULT: -6.523072834      2.592      4.970
REMARK  14 active torsions:
REMARK  status: ('A' for Active; 'I' for Inactive)
REMARK    1  A    between atoms: C2_2  and  N1_3 
REMARK    2  A    between atoms: C2_2  and  N2_7 
REMARK    3  A    between atoms: N2_7  and  C3_9 
REMARK    4  A    between atoms: C5_11  and  C6_12 
REMARK       I    between atoms: C6_12  and  N3_14 
REMARK    5  A    between atoms: N3_14  and  C7_16 
REMARK    6  A    between atoms: C7_16  and  C8_17 
REMARK    7  A    between atoms: C7_16  and  C12_25 
REMARK    8  A    between atoms: C8_17  and  C9_18 
REMARK    9  A    between atoms: C15_30  and  C16_31 
REMARK       I    between atoms: C16_31  and  N7_33 
REMARK   10  A    between atoms: N7_33  and  C17_35 
REMARK   11  A    between atoms: C17_35  and  C18_36 
REMARK       I    between atoms: C18_36  and  N8_38 
REMARK   12  A    between atoms: N8_38  and  C19_40 
REMARK   13  A    between atoms: C22_47  and  N11_48 
REMARK   14  A    between atoms: C23_53  and  N13_54 
ROOT
HETATM    1  C3  UNL     1      -6.487  26.486  12.951  1.00  0.00     0.046 A 
HETATM    2  C4  UNL     1      -7.515  26.290  13.874  1.00  0.00     0.047 A 
HETATM    3  C5  UNL     1      -7.492  25.331  14.847  1.00  0.00     0.034 A 
HETATM    4  C13 UNL     1      -6.387  24.523  14.910  1.00  0.00     0.018 A 
HETATM    5  C14 UNL     1      -5.343  24.674  14.022  1.00  0.00     0.020 A 
HETATM    6  C15 UNL     1      -5.372  25.662  13.020  1.00  0.00     0.058 A 
ENDROOT
BRANCH   6   7
HETATM    7  C16 UNL     1      -4.280  25.768  12.075  1.00  0.00     0.254 C 
HETATM    8  O3  UNL     1      -3.433  26.674  12.154  1.00  0.00    -0.268 OA
HETATM    9  N7  UNL     1      -4.148  24.826  11.020  1.00  0.00    -0.348 N 
ATOM     10  H7  UNL     1      -4.836  24.079  10.924  1.00  0.00     0.163 HD
BRANCH   9  11
HETATM   11  C17 UNL     1      -3.036  24.911  10.066  1.00  0.00     0.226 C 
BRANCH  11  12
HETATM   12  C18 UNL     1      -3.564  25.567   8.824  1.00  0.00     0.240 C 
HETATM   13  O4  UNL     1      -2.621  25.922   8.017  1.00  0.00    -0.271 OA
HETATM   14  N8  UNL     1      -4.863  25.752   8.609  1.00  0.00    -0.310 N 
ATOM     15  H8  UNL     1      -5.177  24.873   8.199  1.00  0.00     0.170 HD
BRANCH  14  16
HETATM   16  C19 UNL     1      -5.873  26.441   8.653  1.00  0.00     0.139 A 
HETATM   17  N9  UNL     1      -5.756  27.808   8.459  1.00  0.00    -0.337 N 
HETATM   18  C20 UNL     1      -6.807  28.626   8.491  1.00  0.00     0.182 A 
ATOM     19  H9  UNL     1      -4.832  28.203   8.284  1.00  0.00     0.168 HD
HETATM   20  N10 UNL     1      -8.059  28.193   8.716  1.00  0.00    -0.347 N 
HETATM   21  C21 UNL     1      -8.259  26.877   8.915  1.00  0.00     0.109 A 
ATOM     22  H10 UNL     1      -8.841  28.847   8.735  1.00  0.00     0.167 HD
HETATM   23  C22 UNL     1      -9.545  26.450   9.144  1.00  0.00     0.144 A 
HETATM   24  C24 UNL     1      -7.159  25.999   8.884  1.00  0.00     0.123 A 
HETATM   25  N12 UNL     1      -9.705  25.125   9.341  1.00  0.00    -0.175 N 
HETATM   26  C23 UNL     1      -8.681  24.275   9.314  1.00  0.00     0.678 A 
ATOM     27  H12 UNL     1     -10.642  24.762   9.515  1.00  0.00     0.186 HD
HETATM   28  N14 UNL     1      -7.416  24.706   9.088  1.00  0.00    -0.186 N 
ATOM     29  H14 UNL     1      -6.650  24.032   9.073  1.00  0.00     0.184 HD
BRANCH  23  30
HETATM   30  N11 UNL     1     -10.582  27.184   9.185  1.00  0.00    -0.383 N 
ATOM     31 2H11 UNL     1     -10.595  28.019   8.601  1.00  0.00     0.157 HD
ATOM     32 1H11 UNL     1     -11.413  27.019   9.753  1.00  0.00     0.157 HD
ENDBRANCH  23  30
BRANCH  26  33
HETATM   33  N13 UNL     1      -8.826  22.995   9.505  1.00  0.00    -0.234 N 
ATOM     34 2H13 UNL     1      -9.426  22.721  10.283  1.00  0.00     0.174 HD
ATOM     35 1H13 UNL     1      -8.374  22.297   8.915  1.00  0.00     0.174 HD
ENDBRANCH  26  33
ENDBRANCH  14  16
ENDBRANCH  11  12
ENDBRANCH   9  11
ENDBRANCH   6   7
BRANCH   1  36
HETATM   36  N2  UNL     1      -6.607  27.544  12.025  1.00  0.00    -0.362 N 
ATOM     37  H2  UNL     1      -6.968  27.357  11.089  1.00  0.00     0.161 HD
BRANCH  36  38
HETATM   38  C2  UNL     1      -6.214  28.922  12.396  1.00  0.00     0.277 C 
HETATM   39  C1  UNL     1      -7.286  29.917  12.074  1.00  0.00     0.063 C 
BRANCH  38  40
HETATM   40  N1  UNL     1      -5.007  29.329  11.694  1.00  0.00    -0.059 N 
ATOM     41  H13 UNL     1      -4.377  28.549  11.503  1.00  0.00     0.276 HD
ATOM     42  H12 UNL     1      -5.184  29.599  10.726  1.00  0.00     0.276 HD
ATOM     43  H11 UNL     1      -4.567  30.070  12.239  1.00  0.00     0.276 HD
ENDBRANCH  38  40
ENDBRANCH  36  38
ENDBRANCH   1  36
BRANCH   3  44
HETATM   44  C6  UNL     1      -8.617  25.190  15.790  1.00  0.00     0.252 C 
HETATM   45  O1  UNL     1      -8.384  25.485  16.989  1.00  0.00    -0.268 OA
HETATM   46  N3  UNL     1      -9.891  24.741  15.345  1.00  0.00    -0.344 N 
ATOM     47  H3  UNL     1     -10.016  24.520  14.357  1.00  0.00     0.163 HD
BRANCH  46  48
HETATM   48  C7  UNL     1     -11.004  24.587  16.235  1.00  0.00     0.179 C 
BRANCH  48  49
HETATM   49  C8  UNL     1     -12.019  25.713  16.076  1.00  0.00     0.093 C 
BRANCH  49  50
HETATM   50  C9  UNL     1     -11.486  27.015  16.531  1.00  0.00     0.028 A 
HETATM   51  C10 UNL     1     -11.444  28.213  15.862  1.00  0.00     0.114 A 
HETATM   52  N4  UNL     1     -10.877  29.122  16.652  1.00  0.00    -0.360 N 
HETATM   53  C11 UNL     1     -10.566  28.510  17.803  1.00  0.00     0.180 A 
ATOM     54  H4  UNL     1     -10.710  30.102  16.424  1.00  0.00     0.166 HD
HETATM   55  N5  UNL     1     -10.934  27.231  17.733  1.00  0.00    -0.354 N 
ATOM     56  H5  UNL     1     -10.816  26.535  18.469  1.00  0.00     0.166 HD
ENDBRANCH  49  50
ENDBRANCH  48  49
BRANCH  48  57
HETATM   57  C12 UNL     1     -11.671  23.269  16.087  1.00  0.00     0.254 C 
HETATM   58  N6  UNL     1     -13.034  23.063  16.405  1.00  0.00    -0.060 NA
HETATM   59  O2  UNL     1     -11.023  22.265  15.662  1.00  0.00    -0.275 OA
ENDBRANCH  48  57
ENDBRANCH  46  48
ENDBRANCH   3  44
TORSDOF 14
ENDMDL
