MODEL 1
REMARK VINA RESULT: -5.755822158      0.000      0.000
REMARK  16 active torsions:
REMARK  status: ('A' for Active; 'I' for Inactive)
REMARK       I    between atoms: C2_4  and  N2_5 
REMARK       I    between atoms: C2_4  and  N5_18 
REMARK    1  A    between atoms: N2_5  and  C3_7 
REMARK    2  A    between atoms: C3_7  and  C4_8 
REMARK    3  A    between atoms: C4_8  and  N3_9 
REMARK       I    between atoms: N3_9  and  C5_11 
REMARK    4  A    between atoms: C5_11  and  C6_13 
REMARK    5  A    between atoms: C6_13  and  N4_14 
REMARK    6  A    between atoms: N5_18  and  N6_20 
REMARK       I    between atoms: N6_20  and  C9_22 
REMARK    7  A    between atoms: C9_22  and  C10_24 
REMARK    8  A    between atoms: C13_27  and  N7_28 
REMARK    9  A    between atoms: N7_28  and  C14_30 
REMARK   10  A    between atoms: C16_34  and  C17_35 
REMARK   11  A    between atoms: C17_35  and  N10_39 
REMARK   12  A    between atoms: N10_39  and  N11_41 
REMARK       I    between atoms: N11_41  and  C18_43 
REMARK   13  A    between atoms: N13_45  and  O4_47 
REMARK   14  A    between atoms: O4_47  and  C19_48 
REMARK   15  A    between atoms: C19_48  and  N14_49 
REMARK   16  A    between atoms: C19_48  and  N15_53 
ROOT
HETATM    1  N7  UNL     1      -9.804  26.564   8.933  1.00  0.00    -0.192 N 
ATOM      2  H7  UNL     1     -10.789  26.370   8.753  1.00  0.00     0.184 HD
ENDROOT
BRANCH   1   3
HETATM    3  C13 UNL     1      -9.416  27.891   9.118  1.00  0.00     0.049 A 
HETATM    4  C12 UNL     1      -9.304  28.497  10.356  1.00  0.00     0.031 A 
HETATM    5  C11 UNL     1      -8.923  29.809  10.465  1.00  0.00     0.019 A 
HETATM    6  C10 UNL     1      -8.627  30.611   9.356  1.00  0.00     0.033 A 
HETATM    7  C22 UNL     1      -8.746  29.983   8.131  1.00  0.00     0.019 A 
HETATM    8  C21 UNL     1      -9.129  28.659   8.004  1.00  0.00     0.031 A 
BRANCH   6   9
HETATM    9  C9  UNL     1      -8.224  31.994   9.539  1.00  0.00     0.270 C 
HETATM   10  N6  UNL     1      -7.307  32.363  10.536  1.00  0.00    -0.251 N 
ATOM     11  H6  UNL     1      -6.928  31.636  11.143  1.00  0.00     0.191 HD
HETATM   12  O3  UNL     1      -8.710  32.863   8.785  1.00  0.00    -0.266 OA
BRANCH  10  13
HETATM   13  N5  UNL     1      -6.887  33.689  10.736  1.00  0.00    -0.130 N 
HETATM   14  C2  UNL     1      -5.764  34.147  10.008  1.00  0.00     0.688 C 
HETATM   15  N1  UNL     1      -5.767  34.022   8.736  1.00  0.00    -0.229 N 
HETATM   16  N2  UNL     1      -4.627  34.744  10.604  1.00  0.00    -0.224 N 
HETATM   17  C1  UNL     1      -4.756  34.414   7.815  1.00  0.00     0.165 C 
ATOM     18  H1  UNL     1      -6.596  33.588   8.331  1.00  0.00     0.177 HD
ATOM     19  H2  UNL     1      -4.652  35.750  10.772  1.00  0.00     0.177 HD
ATOM     20  H5  UNL     1      -7.378  34.303  11.387  1.00  0.00     0.205 HD
BRANCH  16  21
HETATM   21  C3  UNL     1      -3.426  34.025  10.992  1.00  0.00     0.157 C 
BRANCH  21  22
HETATM   22  C4  UNL     1      -3.627  33.468  12.364  1.00  0.00     0.143 C 
BRANCH  22  23
HETATM   23  N3  UNL     1      -3.673  32.015  12.416  1.00  0.00    -0.358 N 
HETATM   24  C5  UNL     1      -4.800  31.293  12.820  1.00  0.00     0.251 C 
HETATM   25  O1  UNL     1      -5.822  32.020  13.148  1.00  0.00    -0.271 OA
ATOM     26  H3  UNL     1      -2.838  31.495  12.144  1.00  0.00     0.162 HD
BRANCH  24  27
HETATM   27  C6  UNL     1      -4.950  29.851  12.911  1.00  0.00     0.413 C 
BRANCH  27  28
HETATM   28  N4  UNL     1      -4.929  29.090  11.710  1.00  0.00     0.014 N 
HETATM   29  C7  UNL     1      -5.868  28.005  11.647  1.00  0.00     0.356 C 
HETATM   30  C8  UNL     1      -3.627  28.682  11.253  1.00  0.00     0.356 C 
HETATM   31  O2  UNL     1      -5.367  29.978  10.723  1.00  0.00    -0.065 OA
ENDBRANCH  27  28
ENDBRANCH  24  27
ENDBRANCH  22  23
ENDBRANCH  21  22
ENDBRANCH  16  21
ENDBRANCH  10  13
ENDBRANCH   6   9
ENDBRANCH   1   3
BRANCH   1  32
HETATM   32  C14 UNL     1      -8.985  25.570   8.977  1.00  0.00     0.682 A 
HETATM   33  N8  UNL     1      -7.747  25.726   8.423  1.00  0.00    -0.201 N 
HETATM   34  C15 UNL     1      -6.837  24.741   8.420  1.00  0.00     0.122 A 
ATOM     35  H8  UNL     1      -7.506  26.621   7.997  1.00  0.00     0.183 HD
HETATM   36  C16 UNL     1      -7.103  23.496   8.986  1.00  0.00     0.041 A 
HETATM   37  C20 UNL     1      -8.350  23.347   9.544  1.00  0.00     0.122 A 
HETATM   38  N16 UNL     1      -9.245  24.378   9.523  1.00  0.00    -0.201 N 
ATOM     39  H16 UNL     1     -10.161  24.232   9.947  1.00  0.00     0.183 HD
BRANCH  36  40
HETATM   40  C17 UNL     1      -6.109  22.435   8.956  1.00  0.00     0.126 C 
HETATM   41  N9  UNL     1      -6.359  21.196   8.766  1.00  0.00    -0.384 N 
ATOM     42  H92 UNL     1      -7.339  20.950   8.634  1.00  0.00     0.157 HD
ATOM     43  H91 UNL     1      -5.662  20.451   8.745  1.00  0.00     0.157 HD
BRANCH  40  44
HETATM   44  N10 UNL     1      -4.740  22.779   9.142  1.00  0.00    -0.283 N 
ATOM     45  H10 UNL     1      -4.067  22.633   8.390  1.00  0.00     0.188 HD
BRANCH  44  46
HETATM   46  N11 UNL     1      -4.326  23.318  10.364  1.00  0.00    -0.271 N 
HETATM   47  C18 UNL     1      -3.563  24.501  10.505  1.00  0.00     0.227 C 
HETATM   48  N12 UNL     1      -2.812  25.106   9.451  1.00  0.00    -0.060 NA
HETATM   49  N13 UNL     1      -3.498  25.127  11.642  1.00  0.00    -0.233 N 
ATOM     50  H13 UNL     1      -2.943  25.979  11.723  1.00  0.00     0.197 HD
ATOM     51  H11 UNL     1      -4.594  22.824  11.215  1.00  0.00     0.189 HD
BRANCH  49  52
HETATM   52  O4  UNL     1      -4.172  24.646  12.733  1.00  0.00    -0.217 OA
BRANCH  52  53
HETATM   53  C19 UNL     1      -4.340  25.430  13.901  1.00  0.00     0.542 C 
BRANCH  53  54
HETATM   54  N14 UNL     1      -5.479  24.937  14.631  1.00  0.00    -0.025 N 
ATOM     55 3H14 UNL     1      -5.355  23.974  14.943  1.00  0.00     0.279 HD
ATOM     56 2H14 UNL     1      -5.572  25.373  15.549  1.00  0.00     0.279 HD
ATOM     57 1H14 UNL     1      -6.314  25.056  14.058  1.00  0.00     0.279 HD
ENDBRANCH  53  54
BRANCH  53  58
HETATM   58  N15 UNL     1      -3.181  25.339  14.759  1.00  0.00    -0.025 N 
ATOM     59 3H15 UNL     1      -2.341  25.684  14.293  1.00  0.00     0.279 HD
ATOM     60 2H15 UNL     1      -3.224  26.015  15.521  1.00  0.00     0.279 HD
ATOM     61 1H15 UNL     1      -3.055  24.389  15.106  1.00  0.00     0.279 HD
ENDBRANCH  53  58
ENDBRANCH  52  53
ENDBRANCH  49  52
ENDBRANCH  44  46
ENDBRANCH  40  44
ENDBRANCH  36  40
ENDBRANCH   1  32
TORSDOF 16
ENDMDL
MODEL 2
REMARK VINA RESULT: -5.709613476      1.430      2.107
REMARK  16 active torsions:
REMARK  status: ('A' for Active; 'I' for Inactive)
REMARK       I    between atoms: C2_4  and  N2_5 
REMARK       I    between atoms: C2_4  and  N5_18 
REMARK    1  A    between atoms: N2_5  and  C3_7 
REMARK    2  A    between atoms: C3_7  and  C4_8 
REMARK    3  A    between atoms: C4_8  and  N3_9 
REMARK       I    between atoms: N3_9  and  C5_11 
REMARK    4  A    between atoms: C5_11  and  C6_13 
REMARK    5  A    between atoms: C6_13  and  N4_14 
REMARK    6  A    between atoms: N5_18  and  N6_20 
REMARK       I    between atoms: N6_20  and  C9_22 
REMARK    7  A    between atoms: C9_22  and  C10_24 
REMARK    8  A    between atoms: C13_27  and  N7_28 
REMARK    9  A    between atoms: N7_28  and  C14_30 
REMARK   10  A    between atoms: C16_34  and  C17_35 
REMARK   11  A    between atoms: C17_35  and  N10_39 
REMARK   12  A    between atoms: N10_39  and  N11_41 
REMARK       I    between atoms: N11_41  and  C18_43 
REMARK   13  A    between atoms: N13_45  and  O4_47 
REMARK   14  A    between atoms: O4_47  and  C19_48 
REMARK   15  A    between atoms: C19_48  and  N14_49 
REMARK   16  A    between atoms: C19_48  and  N15_53 
ROOT
HETATM    1  N7  UNL     1      -9.452  26.808   9.003  1.00  0.00    -0.192 N 
ATOM      2  H7  UNL     1     -10.444  26.601   8.893  1.00  0.00     0.184 HD
ENDROOT
BRANCH   1   3
HETATM    3  C13 UNL     1      -9.071  28.137   9.190  1.00  0.00     0.049 A 
HETATM    4  C12 UNL     1      -9.152  29.109   8.210  1.00  0.00     0.031 A 
HETATM    5  C11 UNL     1      -8.754  30.396   8.461  1.00  0.00     0.019 A 
HETATM    6  C10 UNL     1      -8.248  30.810   9.700  1.00  0.00     0.033 A 
HETATM    7  C22 UNL     1      -8.177  29.821  10.662  1.00  0.00     0.019 A 
HETATM    8  C21 UNL     1      -8.576  28.516  10.425  1.00  0.00     0.031 A 
BRANCH   6   9
HETATM    9  C9  UNL     1      -7.849  32.190   9.904  1.00  0.00     0.270 C 
HETATM   10  N6  UNL     1      -7.517  32.675  11.179  1.00  0.00    -0.251 N 
ATOM     11  H6  UNL     1      -7.567  32.035  11.972  1.00  0.00     0.191 HD
HETATM   12  O3  UNL     1      -7.802  32.951   8.915  1.00  0.00    -0.266 OA
BRANCH  10  13
HETATM   13  N5  UNL     1      -7.117  34.002  11.413  1.00  0.00    -0.130 N 
HETATM   14  C2  UNL     1      -5.730  34.280  11.449  1.00  0.00     0.688 C 
HETATM   15  N1  UNL     1      -5.008  33.920  10.458  1.00  0.00    -0.229 N 
HETATM   16  N2  UNL     1      -5.086  34.944  12.521  1.00  0.00    -0.224 N 
HETATM   17  C1  UNL     1      -3.607  34.102  10.284  1.00  0.00     0.165 C 
ATOM     18  H1  UNL     1      -5.494  33.443   9.699  1.00  0.00     0.177 HD
ATOM     19  H2  UNL     1      -5.068  35.964  12.506  1.00  0.00     0.177 HD
ATOM     20  H5  UNL     1      -7.806  34.742  11.552  1.00  0.00     0.205 HD
BRANCH  16  21
HETATM   21  C3  UNL     1      -4.449  34.274  13.642  1.00  0.00     0.157 C 
BRANCH  21  22
HETATM   22  C4  UNL     1      -4.784  32.819  13.581  1.00  0.00     0.143 C 
BRANCH  22  23
HETATM   23  N3  UNL     1      -3.661  31.963  13.234  1.00  0.00    -0.358 N 
HETATM   24  C5  UNL     1      -3.722  30.971  12.251  1.00  0.00     0.251 C 
HETATM   25  O1  UNL     1      -4.868  30.866  11.655  1.00  0.00    -0.271 OA
ATOM     26  H3  UNL     1      -2.781  32.094  13.735  1.00  0.00     0.162 HD
BRANCH  24  27
HETATM   27  C6  UNL     1      -2.666  30.065  11.831  1.00  0.00     0.413 C 
BRANCH  27  28
HETATM   28  N4  UNL     1      -2.132  29.157  12.786  1.00  0.00     0.014 N 
HETATM   29  C7  UNL     1      -2.984  28.861  13.904  1.00  0.00     0.356 C 
HETATM   30  C8  UNL     1      -0.783  29.421  13.211  1.00  0.00     0.356 C 
HETATM   31  O2  UNL     1      -2.035  27.943  12.100  1.00  0.00    -0.065 OA
ENDBRANCH  27  28
ENDBRANCH  24  27
ENDBRANCH  22  23
ENDBRANCH  21  22
ENDBRANCH  16  21
ENDBRANCH  10  13
ENDBRANCH   6   9
ENDBRANCH   1   3
BRANCH   1  32
HETATM   32  C14 UNL     1      -8.616  25.828   8.960  1.00  0.00     0.682 A 
HETATM   33  N8  UNL     1      -8.936  24.674   9.615  1.00  0.00    -0.201 N 
HETATM   34  C15 UNL     1      -8.120  23.610   9.625  1.00  0.00     0.122 A 
ATOM     35  H8  UNL     1      -9.825  24.620  10.113  1.00  0.00     0.183 HD
HETATM   36  C16 UNL     1      -6.894  23.619   8.964  1.00  0.00     0.041 A 
HETATM   37  C20 UNL     1      -6.580  24.784   8.304  1.00  0.00     0.122 A 
HETATM   38  N16 UNL     1      -7.441  25.843   8.321  1.00  0.00    -0.201 N 
ATOM     39  H16 UNL     1      -7.175  26.690   7.821  1.00  0.00     0.183 HD
BRANCH  36  40
HETATM   40  C17 UNL     1      -6.016  22.461   9.004  1.00  0.00     0.126 C 
HETATM   41  N9  UNL     1      -6.365  21.261   8.737  1.00  0.00    -0.384 N 
ATOM     42  H92 UNL     1      -7.344  21.122   8.485  1.00  0.00     0.157 HD
ATOM     43  H91 UNL     1      -5.749  20.448   8.764  1.00  0.00     0.157 HD
BRANCH  40  44
HETATM   44  N10 UNL     1      -4.650  22.654   9.356  1.00  0.00    -0.283 N 
ATOM     45  H10 UNL     1      -3.916  22.150   8.861  1.00  0.00     0.188 HD
BRANCH  44  46
HETATM   46  N11 UNL     1      -4.325  23.541  10.387  1.00  0.00    -0.271 N 
HETATM   47  C18 UNL     1      -3.431  24.631  10.261  1.00  0.00     0.227 C 
HETATM   48  N12 UNL     1      -2.478  24.773   9.206  1.00  0.00    -0.060 NA
HETATM   49  N13 UNL     1      -3.426  25.599  11.127  1.00  0.00    -0.233 N 
ATOM     50  H13 UNL     1      -2.775  26.377  11.018  1.00  0.00     0.197 HD
ATOM     51  H11 UNL     1      -4.763  23.392  11.296  1.00  0.00     0.189 HD
BRANCH  49  52
HETATM   52  O4  UNL     1      -4.293  25.579  12.188  1.00  0.00    -0.217 OA
BRANCH  52  53
HETATM   53  C19 UNL     1      -5.351  26.515  12.294  1.00  0.00     0.542 C 
BRANCH  53  54
HETATM   54  N14 UNL     1      -5.133  27.573  11.342  1.00  0.00    -0.025 N 
ATOM     55 3H14 UNL     1      -5.108  27.233  10.380  1.00  0.00     0.279 HD
ATOM     56 2H14 UNL     1      -5.941  28.190  11.253  1.00  0.00     0.279 HD
ATOM     57 1H14 UNL     1      -4.284  28.078  11.598  1.00  0.00     0.279 HD
ENDBRANCH  53  54
BRANCH  53  58
HETATM   58  N15 UNL     1      -6.623  25.898  11.999  1.00  0.00    -0.025 N 
ATOM     59 3H15 UNL     1      -6.799  25.861  10.995  1.00  0.00     0.279 HD
ATOM     60 2H15 UNL     1      -6.608  24.896  12.191  1.00  0.00     0.279 HD
ATOM     61 1H15 UNL     1      -7.381  26.365  12.497  1.00  0.00     0.279 HD
ENDBRANCH  53  58
ENDBRANCH  52  53
ENDBRANCH  49  52
ENDBRANCH  44  46
ENDBRANCH  40  44
ENDBRANCH  36  40
ENDBRANCH   1  32
TORSDOF 16
ENDMDL
MODEL 3
REMARK VINA RESULT: -5.589336762      1.346      1.708
REMARK  16 active torsions:
REMARK  status: ('A' for Active; 'I' for Inactive)
REMARK       I    between atoms: C2_4  and  N2_5 
REMARK       I    between atoms: C2_4  and  N5_18 
REMARK    1  A    between atoms: N2_5  and  C3_7 
REMARK    2  A    between atoms: C3_7  and  C4_8 
REMARK    3  A    between atoms: C4_8  and  N3_9 
REMARK       I    between atoms: N3_9  and  C5_11 
REMARK    4  A    between atoms: C5_11  and  C6_13 
REMARK    5  A    between atoms: C6_13  and  N4_14 
REMARK    6  A    between atoms: N5_18  and  N6_20 
REMARK       I    between atoms: N6_20  and  C9_22 
REMARK    7  A    between atoms: C9_22  and  C10_24 
REMARK    8  A    between atoms: C13_27  and  N7_28 
REMARK    9  A    between atoms: N7_28  and  C14_30 
REMARK   10  A    between atoms: C16_34  and  C17_35 
REMARK   11  A    between atoms: C17_35  and  N10_39 
REMARK   12  A    between atoms: N10_39  and  N11_41 
REMARK       I    between atoms: N11_41  and  C18_43 
REMARK   13  A    between atoms: N13_45  and  O4_47 
REMARK   14  A    between atoms: O4_47  and  C19_48 
REMARK   15  A    between atoms: C19_48  and  N14_49 
REMARK   16  A    between atoms: C19_48  and  N15_53 
ROOT
HETATM    1  N7  UNL     1      -9.416  26.989   9.067  1.00  0.00    -0.192 N 
ATOM      2  H7  UNL     1     -10.411  26.822   8.920  1.00  0.00     0.184 HD
ENDROOT
BRANCH   1   3
HETATM    3  C13 UNL     1      -8.981  28.309   9.196  1.00  0.00     0.049 A 
HETATM    4  C12 UNL     1      -9.219  29.296   8.258  1.00  0.00     0.031 A 
HETATM    5  C11 UNL     1      -8.756  30.572   8.447  1.00  0.00     0.019 A 
HETATM    6  C10 UNL     1      -8.026  30.959   9.577  1.00  0.00     0.033 A 
HETATM    7  C22 UNL     1      -7.802  29.955  10.500  1.00  0.00     0.019 A 
HETATM    8  C21 UNL     1      -8.263  28.661  10.325  1.00  0.00     0.031 A 
BRANCH   6   9
HETATM    9  C9  UNL     1      -7.567  32.328   9.720  1.00  0.00     0.270 C 
HETATM   10  N6  UNL     1      -6.461  32.650  10.523  1.00  0.00    -0.251 N 
ATOM     11  H6  UNL     1      -5.981  31.897  11.016  1.00  0.00     0.191 HD
HETATM   12  O3  UNL     1      -8.179  33.230   9.110  1.00  0.00    -0.266 OA
BRANCH  10  13
HETATM   13  N5  UNL     1      -5.984  33.963  10.678  1.00  0.00    -0.130 N 
HETATM   14  C2  UNL     1      -4.974  34.410   9.794  1.00  0.00     0.688 C 
HETATM   15  N1  UNL     1      -5.174  34.310   8.535  1.00  0.00    -0.229 N 
HETATM   16  N2  UNL     1      -3.745  34.971  10.219  1.00  0.00    -0.224 N 
HETATM   17  C1  UNL     1      -4.305  34.699   7.478  1.00  0.00     0.165 C 
ATOM     18  H1  UNL     1      -6.065  33.902   8.255  1.00  0.00     0.177 HD
ATOM     19  H2  UNL     1      -3.721  35.974  10.405  1.00  0.00     0.177 HD
ATOM     20  H5  UNL     1      -6.356  34.575  11.405  1.00  0.00     0.205 HD
BRANCH  16  21
HETATM   21  C3  UNL     1      -2.517  34.220  10.409  1.00  0.00     0.157 C 
BRANCH  21  22
HETATM   22  C4  UNL     1      -2.525  33.632  11.782  1.00  0.00     0.143 C 
BRANCH  22  23
HETATM   23  N3  UNL     1      -2.221  32.211  11.824  1.00  0.00    -0.358 N 
HETATM   24  C5  UNL     1      -3.184  31.221  12.043  1.00  0.00     0.251 C 
HETATM   25  O1  UNL     1      -4.391  31.665  12.206  1.00  0.00    -0.271 OA
ATOM     26  H3  UNL     1      -1.253  31.919  11.686  1.00  0.00     0.162 HD
BRANCH  24  27
HETATM   27  C6  UNL     1      -2.988  29.783  12.106  1.00  0.00     0.413 C 
BRANCH  27  28
HETATM   28  N4  UNL     1      -2.210  29.251  13.171  1.00  0.00     0.014 N 
HETATM   29  C7  UNL     1      -2.607  29.655  14.491  1.00  0.00     0.356 C 
HETATM   30  C8  UNL     1      -0.784  29.335  13.004  1.00  0.00     0.356 C 
HETATM   31  O2  UNL     1      -2.469  27.877  13.142  1.00  0.00    -0.065 OA
ENDBRANCH  27  28
ENDBRANCH  24  27
ENDBRANCH  22  23
ENDBRANCH  21  22
ENDBRANCH  16  21
ENDBRANCH  10  13
ENDBRANCH   6   9
ENDBRANCH   1   3
BRANCH   1  32
HETATM   32  C14 UNL     1      -8.628  25.972   9.122  1.00  0.00     0.682 A 
HETATM   33  N8  UNL     1      -7.473  26.006   8.395  1.00  0.00    -0.201 N 
HETATM   34  C15 UNL     1      -6.602  24.987   8.392  1.00  0.00     0.122 A 
ATOM     35  H8  UNL     1      -7.267  26.834   7.836  1.00  0.00     0.183 HD
HETATM   36  C16 UNL     1      -6.824  23.829   9.135  1.00  0.00     0.041 A 
HETATM   37  C20 UNL     1      -7.988  23.803   9.866  1.00  0.00     0.122 A 
HETATM   38  N16 UNL     1      -8.847  24.864   9.839  1.00  0.00    -0.201 N 
ATOM     39  H16 UNL     1      -9.700  24.810  10.394  1.00  0.00     0.183 HD
BRANCH  36  40
HETATM   40  C17 UNL     1      -5.875  22.728   9.103  1.00  0.00     0.126 C 
HETATM   41  N9  UNL     1      -6.104  21.572   8.608  1.00  0.00    -0.384 N 
ATOM     42  H92 UNL     1      -7.033  21.427   8.214  1.00  0.00     0.157 HD
ATOM     43  H91 UNL     1      -5.438  20.799   8.585  1.00  0.00     0.157 HD
BRANCH  40  44
HETATM   44  N10 UNL     1      -4.578  22.930   9.653  1.00  0.00    -0.283 N 
ATOM     45  H10 UNL     1      -3.752  22.602   9.154  1.00  0.00     0.188 HD
BRANCH  44  46
HETATM   46  N11 UNL     1      -4.447  23.583  10.882  1.00  0.00    -0.271 N 
HETATM   47  C18 UNL     1      -3.682  24.754  11.096  1.00  0.00     0.227 C 
HETATM   48  N12 UNL     1      -2.668  25.227  10.207  1.00  0.00    -0.060 NA
HETATM   49  N13 UNL     1      -3.864  25.493  12.150  1.00  0.00    -0.233 N 
ATOM     50  H13 UNL     1      -3.303  26.334  12.284  1.00  0.00     0.197 HD
ATOM     51  H11 UNL     1      -4.938  23.187  11.684  1.00  0.00     0.189 HD
BRANCH  49  52
HETATM   52  O4  UNL     1      -4.806  25.145  13.080  1.00  0.00    -0.217 OA
BRANCH  52  53
HETATM   53  C19 UNL     1      -4.661  25.497  14.445  1.00  0.00     0.542 C 
BRANCH  53  54
HETATM   54  N14 UNL     1      -3.286  25.310  14.829  1.00  0.00    -0.025 N 
ATOM     55 3H14 UNL     1      -2.888  24.452  14.447  1.00  0.00     0.279 HD
ATOM     56 2H14 UNL     1      -2.660  25.973  14.372  1.00  0.00     0.279 HD
ATOM     57 1H14 UNL     1      -3.220  25.350  15.846  1.00  0.00     0.279 HD
ENDBRANCH  53  54
BRANCH  53  58
HETATM   58  N15 UNL     1      -5.006  26.883  14.664  1.00  0.00    -0.025 N 
ATOM     59 3H15 UNL     1      -4.220  27.502  14.466  1.00  0.00     0.279 HD
ATOM     60 2H15 UNL     1      -5.655  27.225  13.956  1.00  0.00     0.279 HD
ATOM     61 1H15 UNL     1      -5.369  27.025  15.607  1.00  0.00     0.279 HD
ENDBRANCH  53  58
ENDBRANCH  52  53
ENDBRANCH  49  52
ENDBRANCH  44  46
ENDBRANCH  40  44
ENDBRANCH  36  40
ENDBRANCH   1  32
TORSDOF 16
ENDMDL
MODEL 4
REMARK VINA RESULT: -5.554403180      2.976      4.022
REMARK  16 active torsions:
REMARK  status: ('A' for Active; 'I' for Inactive)
REMARK       I    between atoms: C2_4  and  N2_5 
REMARK       I    between atoms: C2_4  and  N5_18 
REMARK    1  A    between atoms: N2_5  and  C3_7 
REMARK    2  A    between atoms: C3_7  and  C4_8 
REMARK    3  A    between atoms: C4_8  and  N3_9 
REMARK       I    between atoms: N3_9  and  C5_11 
REMARK    4  A    between atoms: C5_11  and  C6_13 
REMARK    5  A    between atoms: C6_13  and  N4_14 
REMARK    6  A    between atoms: N5_18  and  N6_20 
REMARK       I    between atoms: N6_20  and  C9_22 
REMARK    7  A    between atoms: C9_22  and  C10_24 
REMARK    8  A    between atoms: C13_27  and  N7_28 
REMARK    9  A    between atoms: N7_28  and  C14_30 
REMARK   10  A    between atoms: C16_34  and  C17_35 
REMARK   11  A    between atoms: C17_35  and  N10_39 
REMARK   12  A    between atoms: N10_39  and  N11_41 
REMARK       I    between atoms: N11_41  and  C18_43 
REMARK   13  A    between atoms: N13_45  and  O4_47 
REMARK   14  A    between atoms: O4_47  and  C19_48 
REMARK   15  A    between atoms: C19_48  and  N14_49 
REMARK   16  A    between atoms: C19_48  and  N15_53 
ROOT
HETATM    1  N7  UNL     1      -9.606  26.804   8.854  1.00  0.00    -0.192 N 
ATOM      2  H7  UNL     1     -10.207  26.902   8.036  1.00  0.00     0.184 HD
ENDROOT
BRANCH   1   3
HETATM    3  C13 UNL     1      -9.662  27.794   9.836  1.00  0.00     0.049 A 
HETATM    4  C12 UNL     1      -8.793  28.867   9.900  1.00  0.00     0.031 A 
HETATM    5  C11 UNL     1      -8.901  29.801  10.898  1.00  0.00     0.019 A 
HETATM    6  C10 UNL     1      -9.877  29.736  11.900  1.00  0.00     0.033 A 
HETATM    7  C22 UNL     1     -10.733  28.655  11.814  1.00  0.00     0.019 A 
HETATM    8  C21 UNL     1     -10.638  27.704  10.812  1.00  0.00     0.031 A 
BRANCH   6   9
HETATM    9  C9  UNL     1      -9.943  30.760  12.927  1.00  0.00     0.270 C 
HETATM   10  N6  UNL     1      -8.923  30.906  13.881  1.00  0.00    -0.251 N 
ATOM     11  H6  UNL     1      -8.128  30.268  13.845  1.00  0.00     0.191 HD
HETATM   12  O3  UNL     1     -10.932  31.522  12.949  1.00  0.00    -0.266 OA
BRANCH  10  13
HETATM   13  N5  UNL     1      -8.948  31.891  14.883  1.00  0.00    -0.130 N 
HETATM   14  C2  UNL     1      -7.725  32.507  15.238  1.00  0.00     0.688 C 
HETATM   15  N1  UNL     1      -7.016  33.036  14.315  1.00  0.00    -0.229 N 
HETATM   16  N2  UNL     1      -7.234  32.580  16.564  1.00  0.00    -0.224 N 
HETATM   17  C1  UNL     1      -5.768  33.707  14.447  1.00  0.00     0.165 C 
ATOM     18  H1  UNL     1      -7.390  32.970  13.369  1.00  0.00     0.177 HD
ATOM     19  H2  UNL     1      -7.543  33.362  17.142  1.00  0.00     0.177 HD
ATOM     20  H5  UNL     1      -9.822  32.153  15.341  1.00  0.00     0.205 HD
BRANCH  16  21
HETATM   21  C3  UNL     1      -6.320  31.620  17.159  1.00  0.00     0.157 C 
BRANCH  21  22
HETATM   22  C4  UNL     1      -7.114  30.468  17.683  1.00  0.00     0.143 C 
BRANCH  22  23
HETATM   23  N3  UNL     1      -6.989  29.252  16.896  1.00  0.00    -0.358 N 
HETATM   24  C5  UNL     1      -8.066  28.635  16.253  1.00  0.00     0.251 C 
HETATM   25  O1  UNL     1      -9.205  29.234  16.404  1.00  0.00    -0.271 OA
ATOM     26  H3  UNL     1      -6.066  28.825  16.809  1.00  0.00     0.162 HD
BRANCH  24  27
HETATM   27  C6  UNL     1      -8.051  27.424  15.450  1.00  0.00     0.413 C 
BRANCH  27  28
HETATM   28  N4  UNL     1      -7.597  26.218  16.050  1.00  0.00     0.014 N 
HETATM   29  C7  UNL     1      -7.626  25.056  15.206  1.00  0.00     0.356 C 
HETATM   30  C8  UNL     1      -8.131  25.931  17.354  1.00  0.00     0.356 C 
HETATM   31  O2  UNL     1      -6.236  26.433  16.286  1.00  0.00    -0.065 OA
ENDBRANCH  27  28
ENDBRANCH  24  27
ENDBRANCH  22  23
ENDBRANCH  21  22
ENDBRANCH  16  21
ENDBRANCH  10  13
ENDBRANCH   6   9
ENDBRANCH   1   3
BRANCH   1  32
HETATM   32  C14 UNL     1      -8.835  25.775   8.925  1.00  0.00     0.682 A 
HETATM   33  N8  UNL     1      -7.605  25.844   8.337  1.00  0.00    -0.201 N 
HETATM   34  C15 UNL     1      -6.744  24.816   8.359  1.00  0.00     0.122 A 
ATOM     35  H8  UNL     1      -7.332  26.706   7.865  1.00  0.00     0.183 HD
HETATM   36  C16 UNL     1      -7.056  23.613   8.987  1.00  0.00     0.041 A 
HETATM   37  C20 UNL     1      -8.295  23.551   9.580  1.00  0.00     0.122 A 
HETATM   38  N16 UNL     1      -9.139  24.623   9.531  1.00  0.00    -0.201 N 
ATOM     39  H16 UNL     1     -10.050  24.541   9.982  1.00  0.00     0.183 HD
BRANCH  36  40
HETATM   40  C17 UNL     1      -6.115  22.503   8.984  1.00  0.00     0.126 C 
HETATM   41  N9  UNL     1      -6.428  21.272   8.838  1.00  0.00    -0.384 N 
ATOM     42  H92 UNL     1      -7.421  21.070   8.723  1.00  0.00     0.157 HD
ATOM     43  H91 UNL     1      -5.768  20.494   8.835  1.00  0.00     0.157 HD
BRANCH  40  44
HETATM   44  N10 UNL     1      -4.730  22.785   9.145  1.00  0.00    -0.283 N 
ATOM     45  H10 UNL     1      -4.057  22.471   8.446  1.00  0.00     0.188 HD
BRANCH  44  46
HETATM   46  N11 UNL     1      -4.298  23.496  10.269  1.00  0.00    -0.271 N 
HETATM   47  C18 UNL     1      -3.402  24.590  10.236  1.00  0.00     0.227 C 
HETATM   48  N12 UNL     1      -2.545  24.897   9.135  1.00  0.00    -0.060 NA
HETATM   49  N13 UNL     1      -3.303  25.408  11.241  1.00  0.00    -0.233 N 
ATOM     50  H13 UNL     1      -2.652  26.192  11.197  1.00  0.00     0.197 HD
ATOM     51  H11 UNL     1      -4.656  23.204  11.179  1.00  0.00     0.189 HD
BRANCH  49  52
HETATM   52  O4  UNL     1      -4.071  25.221  12.360  1.00  0.00    -0.217 OA
BRANCH  52  53
HETATM   53  C19 UNL     1      -3.867  25.990  13.532  1.00  0.00     0.542 C 
BRANCH  53  54
HETATM   54  N14 UNL     1      -4.892  26.998  13.612  1.00  0.00    -0.025 N 
ATOM     55 3H14 UNL     1      -4.949  27.563  12.764  1.00  0.00     0.279 HD
ATOM     56 2H14 UNL     1      -5.832  26.600  13.581  1.00  0.00     0.279 HD
ATOM     57 1H14 UNL     1      -4.735  27.562  14.446  1.00  0.00     0.279 HD
ENDBRANCH  53  54
BRANCH  53  58
HETATM   58  N15 UNL     1      -3.950  25.166  14.716  1.00  0.00    -0.025 N 
ATOM     59 3H15 UNL     1      -4.875  25.217  15.144  1.00  0.00     0.279 HD
ATOM     60 2H15 UNL     1      -3.941  24.173  14.484  1.00  0.00     0.279 HD
ATOM     61 1H15 UNL     1      -3.215  25.404  15.381  1.00  0.00     0.279 HD
ENDBRANCH  53  58
ENDBRANCH  52  53
ENDBRANCH  49  52
ENDBRANCH  44  46
ENDBRANCH  40  44
ENDBRANCH  36  40
ENDBRANCH   1  32
TORSDOF 16
ENDMDL
MODEL 5
REMARK VINA RESULT: -5.531327264      1.854      2.465
REMARK  16 active torsions:
REMARK  status: ('A' for Active; 'I' for Inactive)
REMARK       I    between atoms: C2_4  and  N2_5 
REMARK       I    between atoms: C2_4  and  N5_18 
REMARK    1  A    between atoms: N2_5  and  C3_7 
REMARK    2  A    between atoms: C3_7  and  C4_8 
REMARK    3  A    between atoms: C4_8  and  N3_9 
REMARK       I    between atoms: N3_9  and  C5_11 
REMARK    4  A    between atoms: C5_11  and  C6_13 
REMARK    5  A    between atoms: C6_13  and  N4_14 
REMARK    6  A    between atoms: N5_18  and  N6_20 
REMARK       I    between atoms: N6_20  and  C9_22 
REMARK    7  A    between atoms: C9_22  and  C10_24 
REMARK    8  A    between atoms: C13_27  and  N7_28 
REMARK    9  A    between atoms: N7_28  and  C14_30 
REMARK   10  A    between atoms: C16_34  and  C17_35 
REMARK   11  A    between atoms: C17_35  and  N10_39 
REMARK   12  A    between atoms: N10_39  and  N11_41 
REMARK       I    between atoms: N11_41  and  C18_43 
REMARK   13  A    between atoms: N13_45  and  O4_47 
REMARK   14  A    between atoms: O4_47  and  C19_48 
REMARK   15  A    between atoms: C19_48  and  N14_49 
REMARK   16  A    between atoms: C19_48  and  N15_53 
ROOT
HETATM    1  N7  UNL     1      -9.018  27.239   9.101  1.00  0.00    -0.192 N 
ATOM      2  H7  UNL     1      -9.990  27.164   8.802  1.00  0.00     0.184 HD
ENDROOT
BRANCH   1   3
HETATM    3  C13 UNL     1      -8.561  28.476   9.557  1.00  0.00     0.049 A 
HETATM    4  C12 UNL     1      -8.462  29.603   8.763  1.00  0.00     0.031 A 
HETATM    5  C11 UNL     1      -7.998  30.786   9.277  1.00  0.00     0.019 A 
HETATM    6  C10 UNL     1      -7.599  30.934  10.611  1.00  0.00     0.033 A 
HETATM    7  C22 UNL     1      -7.708  29.794  11.384  1.00  0.00     0.019 A 
HETATM    8  C21 UNL     1      -8.176  28.591  10.881  1.00  0.00     0.031 A 
BRANCH   6   9
HETATM    9  C9  UNL     1      -7.121  32.216  11.095  1.00  0.00     0.270 C 
HETATM   10  N6  UNL     1      -5.814  32.373  11.582  1.00  0.00    -0.251 N 
ATOM     11  H6  UNL     1      -5.198  31.560  11.597  1.00  0.00     0.191 HD
HETATM   12  O3  UNL     1      -7.899  33.192  11.070  1.00  0.00    -0.266 OA
BRANCH  10  13
HETATM   13  N5  UNL     1      -5.314  33.600  12.050  1.00  0.00    -0.130 N 
HETATM   14  C2  UNL     1      -4.223  34.179  11.359  1.00  0.00     0.688 C 
HETATM   15  N1  UNL     1      -4.324  34.358  10.097  1.00  0.00    -0.229 N 
HETATM   16  N2  UNL     1      -3.018  34.581  11.982  1.00  0.00    -0.224 N 
HETATM   17  C1  UNL     1      -3.363  34.923   9.214  1.00  0.00     0.165 C 
ATOM     18  H1  UNL     1      -5.201  34.059   9.671  1.00  0.00     0.177 HD
ATOM     19  H2  UNL     1      -2.980  35.520  12.381  1.00  0.00     0.177 HD
ATOM     20  H5  UNL     1      -5.725  34.060  12.863  1.00  0.00     0.205 HD
BRANCH  16  21
HETATM   21  C3  UNL     1      -1.830  33.752  12.094  1.00  0.00     0.157 C 
BRANCH  21  22
HETATM   22  C4  UNL     1      -2.222  32.327  11.874  1.00  0.00     0.143 C 
BRANCH  22  23
HETATM   23  N3  UNL     1      -1.945  31.452  13.002  1.00  0.00    -0.358 N 
HETATM   24  C5  UNL     1      -2.906  30.624  13.590  1.00  0.00     0.251 C 
HETATM   25  O1  UNL     1      -4.082  30.686  13.048  1.00  0.00    -0.271 OA
ATOM     26  H3  UNL     1      -1.000  31.443  13.385  1.00  0.00     0.162 HD
BRANCH  24  27
HETATM   27  C6  UNL     1      -2.736  29.720  14.714  1.00  0.00     0.413 C 
BRANCH  27  28
HETATM   28  N4  UNL     1      -1.881  28.595  14.558  1.00  0.00     0.014 N 
HETATM   29  C7  UNL     1      -2.304  27.396  15.226  1.00  0.00     0.356 C 
HETATM   30  C8  UNL     1      -0.479  28.845  14.768  1.00  0.00     0.356 C 
HETATM   31  O2  UNL     1      -1.964  28.277  13.199  1.00  0.00    -0.065 OA
ENDBRANCH  27  28
ENDBRANCH  24  27
ENDBRANCH  22  23
ENDBRANCH  21  22
ENDBRANCH  16  21
ENDBRANCH  10  13
ENDBRANCH   6   9
ENDBRANCH   1   3
BRANCH   1  32
HETATM   32  C14 UNL     1      -8.278  26.186   9.036  1.00  0.00     0.682 A 
HETATM   33  N8  UNL     1      -8.535  25.159   9.897  1.00  0.00    -0.201 N 
HETATM   34  C15 UNL     1      -7.809  24.031   9.900  1.00  0.00     0.122 A 
ATOM     35  H8  UNL     1      -9.305  25.252  10.560  1.00  0.00     0.183 HD
HETATM   36  C16 UNL     1      -6.746  23.842   9.020  1.00  0.00     0.041 A 
HETATM   37  C20 UNL     1      -6.494  24.879   8.155  1.00  0.00     0.122 A 
HETATM   38  N16 UNL     1      -7.260  26.010   8.188  1.00  0.00    -0.201 N 
ATOM     39  H16 UNL     1      -7.044  26.759   7.530  1.00  0.00     0.183 HD
BRANCH  36  40
HETATM   40  C17 UNL     1      -5.959  22.619   9.053  1.00  0.00     0.126 C 
HETATM   41  N9  UNL     1      -6.371  21.467   8.683  1.00  0.00    -0.384 N 
ATOM     42  H92 UNL     1      -7.332  21.419   8.348  1.00  0.00     0.157 HD
ATOM     43  H91 UNL     1      -5.818  20.610   8.705  1.00  0.00     0.157 HD
BRANCH  40  44
HETATM   44  N10 UNL     1      -4.617  22.686   9.521  1.00  0.00    -0.283 N 
ATOM     45  H10 UNL     1      -3.938  21.979   9.240  1.00  0.00     0.188 HD
BRANCH  44  46
HETATM   46  N11 UNL     1      -4.236  23.730  10.370  1.00  0.00    -0.271 N 
HETATM   47  C18 UNL     1      -3.238  24.688  10.072  1.00  0.00     0.227 C 
HETATM   48  N12 UNL     1      -2.247  24.530   9.055  1.00  0.00    -0.060 NA
HETATM   49  N13 UNL     1      -3.164  25.808  10.729  1.00  0.00    -0.233 N 
ATOM     50  H13 UNL     1      -2.438  26.486  10.497  1.00  0.00     0.197 HD
ATOM     51  H11 UNL     1      -4.711  23.807  11.269  1.00  0.00     0.189 HD
BRANCH  49  52
HETATM   52  O4  UNL     1      -4.057  26.079  11.731  1.00  0.00    -0.217 OA
BRANCH  52  53
HETATM   53  C19 UNL     1      -4.869  27.239  11.701  1.00  0.00     0.542 C 
BRANCH  53  54
HETATM   54  N14 UNL     1      -5.134  27.655  13.054  1.00  0.00    -0.025 N 
ATOM     55 3H14 UNL     1      -4.818  28.608  13.237  1.00  0.00     0.279 HD
ATOM     56 2H14 UNL     1      -6.129  27.799  13.230  1.00  0.00     0.279 HD
ATOM     57 1H14 UNL     1      -4.719  26.978  13.694  1.00  0.00     0.279 HD
ENDBRANCH  53  54
BRANCH  53  58
HETATM   58  N15 UNL     1      -4.203  28.323  11.017  1.00  0.00    -0.025 N 
ATOM     59 3H15 UNL     1      -3.569  27.979  10.297  1.00  0.00     0.279 HD
ATOM     60 2H15 UNL     1      -4.847  28.844  10.422  1.00  0.00     0.279 HD
ATOM     61 1H15 UNL     1      -3.725  28.935  11.679  1.00  0.00     0.279 HD
ENDBRANCH  53  58
ENDBRANCH  52  53
ENDBRANCH  49  52
ENDBRANCH  44  46
ENDBRANCH  40  44
ENDBRANCH  36  40
ENDBRANCH   1  32
TORSDOF 16
ENDMDL
