MODEL 1
REMARK VINA RESULT: -5.533123241      0.000      0.000
REMARK  18 active torsions:
REMARK  status: ('A' for Active; 'I' for Inactive)
REMARK    1  A    between atoms: O1_2  and  C2_3 
REMARK    2  A    between atoms: C2_3  and  C3_4 
REMARK    3  A    between atoms: C3_4  and  N1_6 
REMARK    4  A    between atoms: N1_6  and  C5_8 
REMARK    5  A    between atoms: C5_8  and  C6_9 
REMARK    6  A    between atoms: C5_8  and  N7_29 
REMARK    7  A    between atoms: C6_9  and  C7_10 
REMARK    8  A    between atoms: C7_10  and  C8_11 
REMARK    9  A    between atoms: C8_11  and  C9_12 
REMARK   10  A    between atoms: C9_12  and  C10_13 
REMARK   11  A    between atoms: C12_17  and  N3_18 
REMARK       I    between atoms: N7_29  and  C15_31 
REMARK   12  A    between atoms: C15_31  and  C16_33 
REMARK   13  A    between atoms: C16_33  and  C17_34 
REMARK   14  A    between atoms: C16_33  and  N11_44 
REMARK   15  A    between atoms: C17_34  and  C18_35 
REMARK   16  A    between atoms: C18_35  and  C19_36 
REMARK   17  A    between atoms: C19_36  and  N8_37 
REMARK       I    between atoms: N8_37  and  C20_39 
REMARK       I    between atoms: C20_39  and  N9_40 
REMARK   18  A    between atoms: C24_52  and  N14_53 
ROOT
HETATM    1  N7  UNL     1      -6.698  26.461  13.009  1.00  0.00    -0.328 N 
ATOM      2  H7  UNL     1      -7.081  27.402  12.924  1.00  0.00     0.165 HD
HETATM    3  C15 UNL     1      -6.465  25.684  11.848  1.00  0.00     0.243 C 
HETATM    4  O2  UNL     1      -5.992  24.527  11.974  1.00  0.00    -0.271 OA
ENDROOT
BRANCH   1   5
HETATM    5  C5  UNL     1      -6.389  25.917  14.333  1.00  0.00     0.263 C 
BRANCH   5   6
HETATM    6  N1  UNL     1      -7.397  26.101  15.263  1.00  0.00    -0.386 N 
ATOM      7  H1  UNL     1      -7.219  26.776  16.008  1.00  0.00     0.156 HD
BRANCH   6   8
HETATM    8  C3  UNL     1      -8.623  25.459  15.280  1.00  0.00     0.099 C 
HETATM    9  C4  UNL     1      -9.106  25.184  16.693  1.00  0.00     0.034 C 
BRANCH   8  10
HETATM   10  C2  UNL     1      -9.703  26.121  14.496  1.00  0.00     0.191 C 
BRANCH  10  11
HETATM   11  O1  UNL     1      -9.915  25.678  13.261  1.00  0.00    -0.394 OA
HETATM   12  C1  UNL     1     -10.708  24.656  12.933  1.00  0.00     0.201 C 
ENDBRANCH  10  11
ENDBRANCH   8  10
ENDBRANCH   6   8
ENDBRANCH   5   6
BRANCH   5  13
HETATM   13  C6  UNL     1      -5.083  26.471  14.670  1.00  0.00    -0.046 C 
BRANCH  13  14
HETATM   14  C7  UNL     1      -3.966  26.895  14.961  1.00  0.00    -0.011 C 
BRANCH  14  15
HETATM   15  C8  UNL     1      -2.691  27.400  15.312  1.00  0.00    -0.006 C 
BRANCH  15  16
HETATM   16  C9  UNL     1      -1.613  27.849  15.620  1.00  0.00    -0.016 C 
BRANCH  16  17
HETATM   17  C10 UNL     1      -0.341  28.385  16.010  1.00  0.00     0.164 A 
HETATM   18  N2  UNL     1       0.448  29.207  15.286  1.00  0.00    -0.329 N 
HETATM   19  C11 UNL     1       1.560  29.500  15.969  1.00  0.00     0.123 A 
ATOM     20  H2  UNL     1       0.228  29.555  14.353  1.00  0.00     0.168 HD
HETATM   21  C12 UNL     1       2.696  30.261  15.759  1.00  0.00     0.131 A 
HETATM   22  C14 UNL     1       1.468  28.836  17.173  1.00  0.00     0.139 A 
HETATM   23  N4  UNL     1       3.658  30.334  16.704  1.00  0.00    -0.337 N 
HETATM   24  C13 UNL     1       3.543  29.682  17.857  1.00  0.00     0.183 A 
ATOM     25  H4  UNL     1       4.488  30.901  16.530  1.00  0.00     0.168 HD
HETATM   26  N5  UNL     1       2.444  28.938  18.076  1.00  0.00    -0.337 N 
ATOM     27  H5  UNL     1       2.355  28.437  18.960  1.00  0.00     0.168 HD
HETATM   28  N6  UNL     1       0.321  28.170  17.182  1.00  0.00    -0.319 N 
ATOM     29  H6  UNL     1      -0.015  27.587  17.948  1.00  0.00     0.169 HD
BRANCH  21  30
HETATM   30  N3  UNL     1       2.843  30.904  14.658  1.00  0.00    -0.383 N 
ATOM     31  H32 UNL     1       2.040  31.376  14.241  1.00  0.00     0.157 HD
ATOM     32  H31 UNL     1       3.757  30.941  14.206  1.00  0.00     0.157 HD
ENDBRANCH  21  30
ENDBRANCH  16  17
ENDBRANCH  15  16
ENDBRANCH  14  15
ENDBRANCH  13  14
ENDBRANCH   5  13
ENDBRANCH   1   5
BRANCH   3  33
HETATM   33  C16 UNL     1      -6.756  26.170  10.482  1.00  0.00     0.184 C 
BRANCH  33  34
HETATM   34  C17 UNL     1      -6.319  27.618  10.342  1.00  0.00     0.037 C 
BRANCH  34  35
HETATM   35  C18 UNL     1      -5.338  27.825   9.225  1.00  0.00     0.022 C 
BRANCH  35  36
HETATM   36  C19 UNL     1      -5.018  26.540   8.497  1.00  0.00     0.122 C 
BRANCH  36  37
HETATM   37  N8  UNL     1      -3.656  26.141   8.774  1.00  0.00    -0.365 N 
HETATM   38  C20 UNL     1      -3.351  25.215   9.815  1.00  0.00     0.181 C 
HETATM   39  N9  UNL     1      -3.768  23.997   9.815  1.00  0.00    -0.374 N 
HETATM   40  N10 UNL     1      -2.545  25.631  10.921  1.00  0.00    -0.064 NA
ATOM     41  H92 UNL     1      -4.343  23.699   9.026  1.00  0.00     0.158 HD
ATOM     42  H91 UNL     1      -3.550  23.335  10.559  1.00  0.00     0.158 HD
ATOM     43  H8  UNL     1      -2.898  26.530   8.214  1.00  0.00     0.162 HD
ENDBRANCH  36  37
ENDBRANCH  35  36
ENDBRANCH  34  35
ENDBRANCH  33  34
BRANCH  33  44
HETATM   44  N11 UNL     1      -8.119  25.975  10.095  1.00  0.00    -0.313 N 
HETATM   45  C21 UNL     1      -9.049  26.928   9.954  1.00  0.00     0.186 A 
HETATM   46  N12 UNL     1     -10.211  26.349   9.576  1.00  0.00    -0.348 N 
HETATM   47  C22 UNL     1     -10.042  25.027   9.472  1.00  0.00     0.094 A 
ATOM     48  H12 UNL     1     -11.083  26.845   9.398  1.00  0.00     0.167 HD
HETATM   49  C23 UNL     1     -10.882  23.994   9.128  1.00  0.00     0.139 A 
HETATM   50  C25 UNL     1      -8.716  24.799   9.802  1.00  0.00     0.153 A 
HETATM   51  N13 UNL     1     -10.403  22.718   9.111  1.00  0.00    -0.200 N 
HETATM   52  C24 UNL     1      -9.111  22.501   9.434  1.00  0.00     0.677 A 
ATOM     53  H13 UNL     1     -11.011  21.939   8.859  1.00  0.00     0.183 HD
HETATM   54  N15 UNL     1      -8.286  23.524   9.772  1.00  0.00    -0.174 N 
ATOM     55  H15 UNL     1      -7.316  23.322  10.009  1.00  0.00     0.186 HD
BRANCH  52  56
HETATM   56  N14 UNL     1      -8.709  21.281   9.403  1.00  0.00    -0.234 N 
ATOM     57 2H14 UNL     1      -9.243  20.524   9.829  1.00  0.00     0.174 HD
ATOM     58 1H14 UNL     1      -7.823  21.105   8.929  1.00  0.00     0.174 HD
ENDBRANCH  52  56
ENDBRANCH  33  44
ENDBRANCH   3  33
TORSDOF 18
ENDMDL
MODEL 2
REMARK VINA RESULT: -5.504809851      4.854     11.070
REMARK  18 active torsions:
REMARK  status: ('A' for Active; 'I' for Inactive)
REMARK    1  A    between atoms: O1_2  and  C2_3 
REMARK    2  A    between atoms: C2_3  and  C3_4 
REMARK    3  A    between atoms: C3_4  and  N1_6 
REMARK    4  A    between atoms: N1_6  and  C5_8 
REMARK    5  A    between atoms: C5_8  and  C6_9 
REMARK    6  A    between atoms: C5_8  and  N7_29 
REMARK    7  A    between atoms: C6_9  and  C7_10 
REMARK    8  A    between atoms: C7_10  and  C8_11 
REMARK    9  A    between atoms: C8_11  and  C9_12 
REMARK   10  A    between atoms: C9_12  and  C10_13 
REMARK   11  A    between atoms: C12_17  and  N3_18 
REMARK       I    between atoms: N7_29  and  C15_31 
REMARK   12  A    between atoms: C15_31  and  C16_33 
REMARK   13  A    between atoms: C16_33  and  C17_34 
REMARK   14  A    between atoms: C16_33  and  N11_44 
REMARK   15  A    between atoms: C17_34  and  C18_35 
REMARK   16  A    between atoms: C18_35  and  C19_36 
REMARK   17  A    between atoms: C19_36  and  N8_37 
REMARK       I    between atoms: N8_37  and  C20_39 
REMARK       I    between atoms: C20_39  and  N9_40 
REMARK   18  A    between atoms: C24_52  and  N14_53 
ROOT
HETATM    1  N7  UNL     1      -8.814  25.392  13.167  1.00  0.00    -0.328 N 
ATOM      2  H7  UNL     1      -8.791  24.463  12.747  1.00  0.00     0.165 HD
HETATM    3  C15 UNL     1      -8.585  26.536  12.365  1.00  0.00     0.243 C 
HETATM    4  O2  UNL     1      -8.618  27.672  12.900  1.00  0.00    -0.271 OA
ENDROOT
BRANCH   1   5
HETATM    5  C5  UNL     1      -9.084  25.539  14.598  1.00  0.00     0.263 C 
BRANCH   5   6
HETATM    6  N1  UNL     1      -7.943  25.641  15.376  1.00  0.00    -0.386 N 
ATOM      7  H1  UNL     1      -7.418  24.782  15.539  1.00  0.00     0.156 HD
BRANCH   6   8
HETATM    8  C3  UNL     1      -7.447  26.797  15.952  1.00  0.00     0.099 C 
HETATM    9  C4  UNL     1      -7.530  26.763  17.468  1.00  0.00     0.034 C 
BRANCH   8  10
HETATM   10  C2  UNL     1      -6.071  27.183  15.531  1.00  0.00     0.191 C 
BRANCH  10  11
HETATM   11  O1  UNL     1      -5.500  26.451  14.580  1.00  0.00    -0.394 OA
HETATM   12  C1  UNL     1      -4.412  25.695  14.736  1.00  0.00     0.201 C 
ENDBRANCH  10  11
ENDBRANCH   8  10
ENDBRANCH   6   8
ENDBRANCH   5   6
BRANCH   5  13
HETATM   13  C6  UNL     1      -9.996  24.448  14.922  1.00  0.00    -0.046 C 
BRANCH  13  14
HETATM   14  C7  UNL     1     -10.739  23.519  15.231  1.00  0.00    -0.011 C 
BRANCH  14  15
HETATM   15  C8  UNL     1     -11.584  22.435  15.570  1.00  0.00    -0.006 C 
BRANCH  15  16
HETATM   16  C9  UNL     1     -12.319  21.517  15.845  1.00  0.00    -0.016 C 
BRANCH  16  17
HETATM   17  C10 UNL     1     -13.207  20.433  16.152  1.00  0.00     0.164 A 
HETATM   18  N2  UNL     1     -13.912  19.690  15.272  1.00  0.00    -0.329 N 
HETATM   19  C11 UNL     1     -14.634  18.769  15.919  1.00  0.00     0.123 A 
ATOM     20  H2  UNL     1     -13.895  19.812  14.260  1.00  0.00     0.168 HD
HETATM   21  C12 UNL     1     -15.516  17.761  15.575  1.00  0.00     0.131 A 
HETATM   22  C14 UNL     1     -14.374  18.938  17.262  1.00  0.00     0.139 A 
HETATM   23  N4  UNL     1     -16.085  16.990  16.528  1.00  0.00    -0.337 N 
HETATM   24  C13 UNL     1     -15.816  17.177  17.816  1.00  0.00     0.183 A 
ATOM     25  H4  UNL     1     -16.733  16.252  16.253  1.00  0.00     0.168 HD
HETATM   26  N5  UNL     1     -14.960  18.153  18.167  1.00  0.00    -0.337 N 
ATOM     27  H5  UNL     1     -14.754  18.297  19.156  1.00  0.00     0.168 HD
HETATM   28  N6  UNL     1     -13.516  19.942  17.385  1.00  0.00    -0.319 N 
ATOM     29  H6  UNL     1     -13.143  20.292  18.268  1.00  0.00     0.169 HD
BRANCH  21  30
HETATM   30  N3  UNL     1     -15.801  17.551  14.341  1.00  0.00    -0.383 N 
ATOM     31  H32 UNL     1     -15.063  17.608  13.639  1.00  0.00     0.157 HD
ATOM     32  H31 UNL     1     -16.759  17.329  14.069  1.00  0.00     0.157 HD
ENDBRANCH  21  30
ENDBRANCH  16  17
ENDBRANCH  15  16
ENDBRANCH  14  15
ENDBRANCH  13  14
ENDBRANCH   5  13
ENDBRANCH   1   5
BRANCH   3  33
HETATM   33  C16 UNL     1      -8.306  26.460  10.914  1.00  0.00     0.184 C 
BRANCH  33  34
HETATM   34  C17 UNL     1      -9.575  26.105  10.159  1.00  0.00     0.037 C 
BRANCH  34  35
HETATM   35  C18 UNL     1      -9.979  27.161   9.172  1.00  0.00     0.022 C 
BRANCH  35  36
HETATM   36  C19 UNL     1     -10.377  28.454   9.845  1.00  0.00     0.122 C 
BRANCH  36  37
HETATM   37  N8  UNL     1      -9.372  29.465   9.607  1.00  0.00    -0.365 N 
HETATM   38  C20 UNL     1      -8.854  29.705   8.299  1.00  0.00     0.181 C 
HETATM   39  N9  UNL     1      -9.582  30.118   7.322  1.00  0.00    -0.374 N 
HETATM   40  N10 UNL     1      -7.465  29.486   8.036  1.00  0.00    -0.064 NA
ATOM     41  H92 UNL     1     -10.572  30.274   7.509  1.00  0.00     0.158 HD
ATOM     42  H91 UNL     1      -9.212  30.289   6.387  1.00  0.00     0.158 HD
ATOM     43  H8  UNL     1      -9.026  30.019  10.390  1.00  0.00     0.162 HD
ENDBRANCH  36  37
ENDBRANCH  35  36
ENDBRANCH  34  35
ENDBRANCH  33  34
BRANCH  33  44
HETATM   44  N11 UNL     1      -7.223  25.581  10.597  1.00  0.00    -0.313 N 
HETATM   45  C21 UNL     1      -7.320  24.371  10.031  1.00  0.00     0.186 A 
HETATM   46  N12 UNL     1      -6.078  23.856   9.892  1.00  0.00    -0.348 N 
HETATM   47  C22 UNL     1      -5.176  24.722  10.363  1.00  0.00     0.094 A 
ATOM     48  H12 UNL     1      -5.863  22.944   9.489  1.00  0.00     0.167 HD
HETATM   49  C23 UNL     1      -3.804  24.694  10.459  1.00  0.00     0.139 A 
HETATM   50  C25 UNL     1      -5.907  25.811  10.807  1.00  0.00     0.153 A 
HETATM   51  N13 UNL     1      -3.148  25.759  11.002  1.00  0.00    -0.200 N 
HETATM   52  C24 UNL     1      -3.866  26.817  11.433  1.00  0.00     0.677 A 
ATOM     53  H13 UNL     1      -2.132  25.757  11.082  1.00  0.00     0.183 HD
HETATM   54  N15 UNL     1      -5.219  26.839  11.336  1.00  0.00    -0.174 N 
ATOM     55  H15 UNL     1      -5.728  27.656  11.672  1.00  0.00     0.186 HD
BRANCH  52  56
HETATM   56  N14 UNL     1      -3.202  27.794  11.937  1.00  0.00    -0.234 N 
ATOM     57 2H14 UNL     1      -2.973  27.839  12.929  1.00  0.00     0.174 HD
ATOM     58 1H14 UNL     1      -2.912  28.529  11.291  1.00  0.00     0.174 HD
ENDBRANCH  52  56
ENDBRANCH  33  44
ENDBRANCH   3  33
TORSDOF 18
ENDMDL
MODEL 3
REMARK VINA RESULT: -5.486496162      1.638      2.971
REMARK  18 active torsions:
REMARK  status: ('A' for Active; 'I' for Inactive)
REMARK    1  A    between atoms: O1_2  and  C2_3 
REMARK    2  A    between atoms: C2_3  and  C3_4 
REMARK    3  A    between atoms: C3_4  and  N1_6 
REMARK    4  A    between atoms: N1_6  and  C5_8 
REMARK    5  A    between atoms: C5_8  and  C6_9 
REMARK    6  A    between atoms: C5_8  and  N7_29 
REMARK    7  A    between atoms: C6_9  and  C7_10 
REMARK    8  A    between atoms: C7_10  and  C8_11 
REMARK    9  A    between atoms: C8_11  and  C9_12 
REMARK   10  A    between atoms: C9_12  and  C10_13 
REMARK   11  A    between atoms: C12_17  and  N3_18 
REMARK       I    between atoms: N7_29  and  C15_31 
REMARK   12  A    between atoms: C15_31  and  C16_33 
REMARK   13  A    between atoms: C16_33  and  C17_34 
REMARK   14  A    between atoms: C16_33  and  N11_44 
REMARK   15  A    between atoms: C17_34  and  C18_35 
REMARK   16  A    between atoms: C18_35  and  C19_36 
REMARK   17  A    between atoms: C19_36  and  N8_37 
REMARK       I    between atoms: N8_37  and  C20_39 
REMARK       I    between atoms: C20_39  and  N9_40 
REMARK   18  A    between atoms: C24_52  and  N14_53 
ROOT
HETATM    1  N7  UNL     1      -5.337  25.932  13.021  1.00  0.00    -0.328 N 
ATOM      2  H7  UNL     1      -5.700  26.843  12.741  1.00  0.00     0.165 HD
HETATM    3  C15 UNL     1      -5.047  24.956  12.037  1.00  0.00     0.243 C 
HETATM    4  O2  UNL     1      -4.600  23.839  12.401  1.00  0.00    -0.271 OA
ENDROOT
BRANCH   1   5
HETATM    5  C5  UNL     1      -5.118  25.638  14.437  1.00  0.00     0.263 C 
BRANCH   5   6
HETATM    6  N1  UNL     1      -6.242  25.810  15.226  1.00  0.00    -0.386 N 
ATOM      7  H1  UNL     1      -6.090  26.137  16.180  1.00  0.00     0.156 HD
BRANCH   6   8
HETATM    8  C3  UNL     1      -7.553  25.580  14.844  1.00  0.00     0.099 C 
HETATM    9  C4  UNL     1      -8.341  24.843  15.913  1.00  0.00     0.034 C 
BRANCH   8  10
HETATM   10  C2  UNL     1      -8.310  26.784  14.398  1.00  0.00     0.191 C 
BRANCH  10  11
HETATM   11  O1  UNL     1      -8.183  27.143  13.125  1.00  0.00    -0.394 OA
HETATM   12  C1  UNL     1      -8.002  28.391  12.689  1.00  0.00     0.201 C 
ENDBRANCH  10  11
ENDBRANCH   8  10
ENDBRANCH   6   8
ENDBRANCH   5   6
BRANCH   5  13
HETATM   13  C6  UNL     1      -3.941  26.417  14.804  1.00  0.00    -0.046 C 
BRANCH  13  14
HETATM   14  C7  UNL     1      -2.938  27.076  15.069  1.00  0.00    -0.011 C 
BRANCH  14  15
HETATM   15  C8  UNL     1      -1.784  27.847  15.351  1.00  0.00    -0.006 C 
BRANCH  15  16
HETATM   16  C9  UNL     1      -0.806  28.519  15.576  1.00  0.00    -0.016 C 
BRANCH  16  17
HETATM   17  C10 UNL     1       0.341  29.332  15.860  1.00  0.00     0.164 A 
HETATM   18  N2  UNL     1       1.258  29.776  14.975  1.00  0.00    -0.329 N 
HETATM   19  C11 UNL     1       2.188  30.506  15.600  1.00  0.00     0.123 A 
ATOM     20  H2  UNL     1       1.244  29.582  13.974  1.00  0.00     0.168 HD
HETATM   21  C12 UNL     1       3.331  31.197  15.240  1.00  0.00     0.131 A 
HETATM   22  C14 UNL     1       1.842  30.524  16.934  1.00  0.00     0.139 A 
HETATM   23  N4  UNL     1       4.060  31.851  16.171  1.00  0.00    -0.337 N 
HETATM   24  C13 UNL     1       3.703  31.851  17.451  1.00  0.00     0.183 A 
ATOM     25  H4  UNL     1       4.900  32.355  15.885  1.00  0.00     0.168 HD
HETATM   26  N5  UNL     1       2.593  31.184  17.817  1.00  0.00    -0.337 N 
ATOM     27  H5  UNL     1       2.319  31.183  18.799  1.00  0.00     0.168 HD
HETATM   28  N6  UNL     1       0.731  29.814  17.074  1.00  0.00    -0.319 N 
ATOM     29  H6  UNL     1       0.243  29.653  17.955  1.00  0.00     0.169 HD
BRANCH  21  30
HETATM   30  N3  UNL     1       3.708  31.219  14.013  1.00  0.00    -0.383 N 
ATOM     31  H32 UNL     1       3.278  30.580  13.345  1.00  0.00     0.157 HD
ATOM     32  H31 UNL     1       4.431  31.874  13.713  1.00  0.00     0.157 HD
ENDBRANCH  21  30
ENDBRANCH  16  17
ENDBRANCH  15  16
ENDBRANCH  14  15
ENDBRANCH  13  14
ENDBRANCH   5  13
ENDBRANCH   1   5
BRANCH   3  33
HETATM   33  C16 UNL     1      -5.246  25.186  10.589  1.00  0.00     0.184 C 
BRANCH  33  34
HETATM   34  C17 UNL     1      -5.599  26.642  10.338  1.00  0.00     0.037 C 
BRANCH  34  35
HETATM   35  C18 UNL     1      -5.480  27.028   8.893  1.00  0.00     0.022 C 
BRANCH  35  36
HETATM   36  C19 UNL     1      -6.584  27.963   8.455  1.00  0.00     0.122 C 
BRANCH  36  37
HETATM   37  N8  UNL     1      -7.849  27.264   8.442  1.00  0.00    -0.365 N 
HETATM   38  C20 UNL     1      -9.087  27.965   8.544  1.00  0.00     0.181 C 
HETATM   39  N9  UNL     1      -9.484  28.818   7.665  1.00  0.00    -0.374 N 
HETATM   40  N10 UNL     1      -9.946  27.728   9.663  1.00  0.00    -0.064 NA
ATOM     41  H92 UNL     1      -8.872  28.987   6.867  1.00  0.00     0.158 HD
ATOM     42  H91 UNL     1     -10.369  29.319   7.739  1.00  0.00     0.158 HD
ATOM     43  H8  UNL     1      -7.856  26.248   8.357  1.00  0.00     0.162 HD
ENDBRANCH  36  37
ENDBRANCH  35  36
ENDBRANCH  34  35
ENDBRANCH  33  34
BRANCH  33  44
HETATM   44  N11 UNL     1      -6.196  24.290  10.005  1.00  0.00    -0.313 N 
HETATM   45  C21 UNL     1      -5.932  23.311   9.131  1.00  0.00     0.186 A 
HETATM   46  N12 UNL     1      -7.088  22.686   8.816  1.00  0.00    -0.348 N 
HETATM   47  C22 UNL     1      -8.101  23.252   9.479  1.00  0.00     0.094 A 
ATOM     48  H12 UNL     1      -7.175  21.902   8.170  1.00  0.00     0.167 HD
HETATM   49  C23 UNL     1      -9.454  23.007   9.521  1.00  0.00     0.139 A 
HETATM   50  C25 UNL     1      -7.529  24.266  10.229  1.00  0.00     0.153 A 
HETATM   51  N13 UNL     1     -10.250  23.776  10.317  1.00  0.00    -0.200 N 
HETATM   52  C24 UNL     1      -9.688  24.762  11.045  1.00  0.00     0.677 A 
ATOM     53  H13 UNL     1     -11.255  23.609  10.361  1.00  0.00     0.183 HD
HETATM   54  N15 UNL     1      -8.352  25.000  11.000  1.00  0.00    -0.174 N 
ATOM     55  H15 UNL     1      -7.962  25.753  11.565  1.00  0.00     0.186 HD
BRANCH  52  56
HETATM   56  N14 UNL     1     -10.480  25.458  11.778  1.00  0.00    -0.234 N 
ATOM     57 2H14 UNL     1     -11.321  25.896  11.402  1.00  0.00     0.174 HD
ATOM     58 1H14 UNL     1     -10.227  25.553  12.762  1.00  0.00     0.174 HD
ENDBRANCH  52  56
ENDBRANCH  33  44
ENDBRANCH   3  33
TORSDOF 18
ENDMDL
MODEL 4
REMARK VINA RESULT: -5.476736630      2.945      5.486
REMARK  18 active torsions:
REMARK  status: ('A' for Active; 'I' for Inactive)
REMARK    1  A    between atoms: O1_2  and  C2_3 
REMARK    2  A    between atoms: C2_3  and  C3_4 
REMARK    3  A    between atoms: C3_4  and  N1_6 
REMARK    4  A    between atoms: N1_6  and  C5_8 
REMARK    5  A    between atoms: C5_8  and  C6_9 
REMARK    6  A    between atoms: C5_8  and  N7_29 
REMARK    7  A    between atoms: C6_9  and  C7_10 
REMARK    8  A    between atoms: C7_10  and  C8_11 
REMARK    9  A    between atoms: C8_11  and  C9_12 
REMARK   10  A    between atoms: C9_12  and  C10_13 
REMARK   11  A    between atoms: C12_17  and  N3_18 
REMARK       I    between atoms: N7_29  and  C15_31 
REMARK   12  A    between atoms: C15_31  and  C16_33 
REMARK   13  A    between atoms: C16_33  and  C17_34 
REMARK   14  A    between atoms: C16_33  and  N11_44 
REMARK   15  A    between atoms: C17_34  and  C18_35 
REMARK   16  A    between atoms: C18_35  and  C19_36 
REMARK   17  A    between atoms: C19_36  and  N8_37 
REMARK       I    between atoms: N8_37  and  C20_39 
REMARK       I    between atoms: C20_39  and  N9_40 
REMARK   18  A    between atoms: C24_52  and  N14_53 
ROOT
HETATM    1  N7  UNL     1      -6.548  27.235  10.521  1.00  0.00    -0.328 N 
ATOM      2  H7  UNL     1      -6.576  28.013  11.179  1.00  0.00     0.165 HD
HETATM    3  C15 UNL     1      -7.728  26.836   9.848  1.00  0.00     0.243 C 
HETATM    4  O2  UNL     1      -7.673  25.875   9.040  1.00  0.00    -0.271 OA
ENDROOT
BRANCH   1   5
HETATM    5  C5  UNL     1      -5.287  26.533  10.275  1.00  0.00     0.263 C 
BRANCH   5   6
HETATM    6  N1  UNL     1      -5.365  25.163  10.454  1.00  0.00    -0.386 N 
ATOM      7  H1  UNL     1      -6.247  24.715  10.205  1.00  0.00     0.156 HD
BRANCH   6   8
HETATM    8  C3  UNL     1      -4.359  24.342  10.936  1.00  0.00     0.099 C 
HETATM    9  C4  UNL     1      -4.561  23.990  12.399  1.00  0.00     0.034 C 
BRANCH   8  10
HETATM   10  C2  UNL     1      -4.111  23.103  10.147  1.00  0.00     0.191 C 
BRANCH  10  11
HETATM   11  O1  UNL     1      -4.760  22.977   8.994  1.00  0.00    -0.394 OA
HETATM   12  C1  UNL     1      -5.940  22.375   8.834  1.00  0.00     0.201 C 
ENDBRANCH  10  11
ENDBRANCH   8  10
ENDBRANCH   6   8
ENDBRANCH   5   6
BRANCH   5  13
HETATM   13  C6  UNL     1      -4.301  27.240  11.084  1.00  0.00    -0.046 C 
BRANCH  13  14
HETATM   14  C7  UNL     1      -3.502  27.865  11.778  1.00  0.00    -0.011 C 
BRANCH  14  15
HETATM   15  C8  UNL     1      -2.595  28.608  12.572  1.00  0.00    -0.006 C 
BRANCH  15  16
HETATM   16  C9  UNL     1      -1.826  29.229  13.266  1.00  0.00    -0.016 C 
BRANCH  16  17
HETATM   17  C10 UNL     1      -0.897  29.945  14.092  1.00  0.00     0.164 A 
HETATM   18  N2  UNL     1       0.440  30.023  13.927  1.00  0.00    -0.329 N 
HETATM   19  C11 UNL     1       0.982  30.777  14.890  1.00  0.00     0.123 A 
ATOM     20  H2  UNL     1       0.963  29.572  13.176  1.00  0.00     0.168 HD
HETATM   21  C12 UNL     1       2.250  31.204  15.237  1.00  0.00     0.131 A 
HETATM   22  C14 UNL     1      -0.058  31.192  15.695  1.00  0.00     0.139 A 
HETATM   23  N4  UNL     1       2.439  31.991  16.318  1.00  0.00    -0.337 N 
HETATM   24  C13 UNL     1       1.418  32.376  17.077  1.00  0.00     0.183 A 
ATOM     25  H4  UNL     1       3.383  32.295  16.557  1.00  0.00     0.168 HD
HETATM   26  N5  UNL     1       0.177  31.969  16.753  1.00  0.00    -0.337 N 
ATOM     27  H5  UNL     1      -0.607  32.263  17.335  1.00  0.00     0.168 HD
HETATM   28  N6  UNL     1      -1.179  30.683  15.202  1.00  0.00    -0.319 N 
ATOM     29  H6  UNL     1      -2.111  30.823  15.594  1.00  0.00     0.169 HD
BRANCH  21  30
HETATM   30  N3  UNL     1       3.262  30.853  14.528  1.00  0.00    -0.383 N 
ATOM     31  H32 UNL     1       3.247  29.955  14.044  1.00  0.00     0.157 HD
ATOM     32  H31 UNL     1       4.071  31.470  14.452  1.00  0.00     0.157 HD
ENDBRANCH  21  30
ENDBRANCH  16  17
ENDBRANCH  15  16
ENDBRANCH  14  15
ENDBRANCH  13  14
ENDBRANCH   5  13
ENDBRANCH   1   5
BRANCH   3  33
HETATM   33  C16 UNL     1      -9.035  27.500  10.049  1.00  0.00     0.184 C 
BRANCH  33  34
HETATM   34  C17 UNL     1     -10.157  26.484   9.925  1.00  0.00     0.037 C 
BRANCH  34  35
HETATM   35  C18 UNL     1     -10.567  25.906  11.249  1.00  0.00     0.022 C 
BRANCH  35  36
HETATM   36  C19 UNL     1     -10.636  24.396  11.220  1.00  0.00     0.122 C 
BRANCH  36  37
HETATM   37  N8  UNL     1      -9.699  23.877  10.249  1.00  0.00    -0.365 N 
HETATM   38  C20 UNL     1     -10.080  22.872   9.312  1.00  0.00     0.181 C 
HETATM   39  N9  UNL     1     -10.990  23.054   8.420  1.00  0.00    -0.374 N 
HETATM   40  N10 UNL     1      -9.437  21.594   9.341  1.00  0.00    -0.064 NA
ATOM     41  H92 UNL     1     -11.449  23.965   8.399  1.00  0.00     0.158 HD
ATOM     42  H91 UNL     1     -11.263  22.335   7.750  1.00  0.00     0.158 HD
ATOM     43  H8  UNL     1      -8.745  24.237  10.234  1.00  0.00     0.162 HD
ENDBRANCH  36  37
ENDBRANCH  35  36
ENDBRANCH  34  35
ENDBRANCH  33  34
BRANCH  33  44
HETATM   44  N11 UNL     1      -9.228  28.629   9.193  1.00  0.00    -0.313 N 
HETATM   45  C21 UNL     1      -9.073  28.653   7.863  1.00  0.00     0.186 A 
HETATM   46  N12 UNL     1      -9.349  29.899   7.416  1.00  0.00    -0.348 N 
HETATM   47  C22 UNL     1      -9.682  30.683   8.446  1.00  0.00     0.094 A 
ATOM     48  H12 UNL     1      -9.309  30.195   6.441  1.00  0.00     0.167 HD
HETATM   49  C23 UNL     1     -10.046  32.006   8.543  1.00  0.00     0.139 A 
HETATM   50  C25 UNL     1      -9.603  29.872   9.566  1.00  0.00     0.153 A 
HETATM   51  N13 UNL     1     -10.335  32.532   9.768  1.00  0.00    -0.200 N 
HETATM   52  C24 UNL     1     -10.257  31.739  10.855  1.00  0.00     0.677 A 
ATOM     53  H13 UNL     1     -10.606  33.511   9.859  1.00  0.00     0.183 HD
HETATM   54  N15 UNL     1      -9.898  30.434  10.753  1.00  0.00    -0.174 N 
ATOM     55  H15 UNL     1      -9.850  29.865  11.597  1.00  0.00     0.186 HD
BRANCH  52  56
HETATM   56  N14 UNL     1     -10.539  32.283  11.984  1.00  0.00    -0.234 N 
ATOM     57 2H14 UNL     1     -10.189  33.204  12.243  1.00  0.00     0.174 HD
ATOM     58 1H14 UNL     1     -11.134  31.744  12.614  1.00  0.00     0.174 HD
ENDBRANCH  52  56
ENDBRANCH  33  44
ENDBRANCH   3  33
TORSDOF 18
ENDMDL
MODEL 5
REMARK VINA RESULT: -5.458261122      3.805      9.306
REMARK  18 active torsions:
REMARK  status: ('A' for Active; 'I' for Inactive)
REMARK    1  A    between atoms: O1_2  and  C2_3 
REMARK    2  A    between atoms: C2_3  and  C3_4 
REMARK    3  A    between atoms: C3_4  and  N1_6 
REMARK    4  A    between atoms: N1_6  and  C5_8 
REMARK    5  A    between atoms: C5_8  and  C6_9 
REMARK    6  A    between atoms: C5_8  and  N7_29 
REMARK    7  A    between atoms: C6_9  and  C7_10 
REMARK    8  A    between atoms: C7_10  and  C8_11 
REMARK    9  A    between atoms: C8_11  and  C9_12 
REMARK   10  A    between atoms: C9_12  and  C10_13 
REMARK   11  A    between atoms: C12_17  and  N3_18 
REMARK       I    between atoms: N7_29  and  C15_31 
REMARK   12  A    between atoms: C15_31  and  C16_33 
REMARK   13  A    between atoms: C16_33  and  C17_34 
REMARK   14  A    between atoms: C16_33  and  N11_44 
REMARK   15  A    between atoms: C17_34  and  C18_35 
REMARK   16  A    between atoms: C18_35  and  C19_36 
REMARK   17  A    between atoms: C19_36  and  N8_37 
REMARK       I    between atoms: N8_37  and  C20_39 
REMARK       I    between atoms: C20_39  and  N9_40 
REMARK   18  A    between atoms: C24_52  and  N14_53 
ROOT
HETATM    1  N7  UNL     1      -6.847  27.108  13.614  1.00  0.00    -0.328 N 
ATOM      2  H7  UNL     1      -7.184  28.071  13.625  1.00  0.00     0.165 HD
HETATM    3  C15 UNL     1      -6.791  26.395  12.392  1.00  0.00     0.243 C 
HETATM    4  O2  UNL     1      -6.372  25.210  12.398  1.00  0.00    -0.271 OA
ENDROOT
BRANCH   1   5
HETATM    5  C5  UNL     1      -6.423  26.469  14.860  1.00  0.00     0.263 C 
BRANCH   5   6
HETATM    6  N1  UNL     1      -5.149  25.932  14.809  1.00  0.00    -0.386 N 
ATOM      7  H1  UNL     1      -5.079  24.924  14.669  1.00  0.00     0.156 HD
BRANCH   6   8
HETATM    8  C3  UNL     1      -3.960  26.632  14.930  1.00  0.00     0.099 C 
HETATM    9  C4  UNL     1      -2.798  25.728  15.303  1.00  0.00     0.034 C 
BRANCH   8  10
HETATM   10  C2  UNL     1      -3.590  27.471  13.756  1.00  0.00     0.191 C 
BRANCH  10  11
HETATM   11  O1  UNL     1      -4.091  28.702  13.707  1.00  0.00    -0.394 OA
HETATM   12  C1  UNL     1      -4.236  29.518  14.753  1.00  0.00     0.201 C 
ENDBRANCH  10  11
ENDBRANCH   8  10
ENDBRANCH   6   8
ENDBRANCH   5   6
BRANCH   5  13
HETATM   13  C6  UNL     1      -7.504  25.549  15.195  1.00  0.00    -0.046 C 
BRANCH  13  14
HETATM   14  C7  UNL     1      -8.439  24.790  15.443  1.00  0.00    -0.011 C 
BRANCH  14  15
HETATM   15  C8  UNL     1      -9.515  23.908  15.703  1.00  0.00    -0.006 C 
BRANCH  15  16
HETATM   16  C9  UNL     1     -10.419  23.139  15.925  1.00  0.00    -0.016 C 
BRANCH  16  17
HETATM   17  C10 UNL     1     -11.511  22.242  16.175  1.00  0.00     0.164 A 
HETATM   18  N2  UNL     1     -11.906  21.211  15.398  1.00  0.00    -0.329 N 
HETATM   19  C11 UNL     1     -12.960  20.597  15.947  1.00  0.00     0.123 A 
ATOM     20  H2  UNL     1     -11.464  20.939  14.520  1.00  0.00     0.168 HD
HETATM   21  C12 UNL     1     -13.771  19.522  15.632  1.00  0.00     0.131 A 
HETATM   22  C14 UNL     1     -13.240  21.267  17.118  1.00  0.00     0.139 A 
HETATM   23  N4  UNL     1     -14.786  19.165  16.448  1.00  0.00    -0.337 N 
HETATM   24  C13 UNL     1     -15.034  19.830  17.572  1.00  0.00     0.183 A 
ATOM     25  H4  UNL     1     -15.374  18.369  16.198  1.00  0.00     0.168 HD
HETATM   26  N5  UNL     1     -14.253  20.878  17.893  1.00  0.00    -0.337 N 
ATOM     27  H5  UNL     1     -14.443  21.390  18.754  1.00  0.00     0.168 HD
HETATM   28  N6  UNL     1     -12.361  22.253  17.240  1.00  0.00    -0.319 N 
ATOM     29  H6  UNL     1     -12.326  22.918  18.013  1.00  0.00     0.169 HD
BRANCH  21  30
HETATM   30  N3  UNL     1     -13.563  18.855  14.554  1.00  0.00    -0.383 N 
ATOM     31  H32 UNL     1     -12.607  18.637  14.277  1.00  0.00     0.157 HD
ATOM     32  H31 UNL     1     -14.352  18.548  13.985  1.00  0.00     0.157 HD
ENDBRANCH  21  30
ENDBRANCH  16  17
ENDBRANCH  15  16
ENDBRANCH  14  15
ENDBRANCH  13  14
ENDBRANCH   5  13
ENDBRANCH   1   5
BRANCH   3  33
HETATM   33  C16 UNL     1      -7.204  26.979  11.097  1.00  0.00     0.184 C 
BRANCH  33  34
HETATM   34  C17 UNL     1      -7.070  28.491  11.143  1.00  0.00     0.037 C 
BRANCH  34  35
HETATM   35  C18 UNL     1      -6.015  29.010  10.209  1.00  0.00     0.022 C 
BRANCH  35  36
HETATM   36  C19 UNL     1      -4.753  28.180  10.249  1.00  0.00     0.122 C 
BRANCH  36  37
HETATM   37  N8  UNL     1      -4.665  27.357   9.064  1.00  0.00    -0.365 N 
HETATM   38  C20 UNL     1      -4.015  26.087   9.087  1.00  0.00     0.181 C 
HETATM   39  N9  UNL     1      -4.425  25.103   9.808  1.00  0.00    -0.374 N 
HETATM   40  N10 UNL     1      -2.854  25.870   8.280  1.00  0.00    -0.064 NA
ATOM     41  H92 UNL     1      -5.253  25.258  10.384  1.00  0.00     0.158 HD
ATOM     42  H91 UNL     1      -3.960  24.196   9.825  1.00  0.00     0.158 HD
ATOM     43  H8  UNL     1      -5.076  27.692   8.192  1.00  0.00     0.162 HD
ENDBRANCH  36  37
ENDBRANCH  35  36
ENDBRANCH  34  35
ENDBRANCH  33  34
BRANCH  33  44
HETATM   44  N11 UNL     1      -8.509  26.563  10.686  1.00  0.00    -0.313 N 
HETATM   45  C21 UNL     1      -9.620  27.311  10.688  1.00  0.00     0.186 A 
HETATM   46  N12 UNL     1     -10.648  26.564  10.228  1.00  0.00    -0.348 N 
HETATM   47  C22 UNL     1     -10.213  25.337   9.927  1.00  0.00     0.094 A 
ATOM     48  H12 UNL     1     -11.609  26.888  10.126  1.00  0.00     0.167 HD
HETATM   49  C23 UNL     1     -10.834  24.213   9.433  1.00  0.00     0.139 A 
HETATM   50  C25 UNL     1      -8.860  25.344  10.220  1.00  0.00     0.153 A 
HETATM   51  N13 UNL     1     -10.102  23.080   9.226  1.00  0.00    -0.200 N 
HETATM   52  C24 UNL     1      -8.784  23.093   9.512  1.00  0.00     0.677 A 
ATOM     53  H13 UNL     1     -10.545  22.238   8.860  1.00  0.00     0.183 HD
HETATM   54  N15 UNL     1      -8.177  24.205  10.000  1.00  0.00    -0.174 N 
ATOM     55  H15 UNL     1      -7.179  24.176  10.204  1.00  0.00     0.186 HD
BRANCH  52  56
HETATM   56  N14 UNL     1      -8.140  22.001   9.300  1.00  0.00    -0.234 N 
ATOM     57 2H14 UNL     1      -8.430  21.332   8.587  1.00  0.00     0.174 HD
ATOM     58 1H14 UNL     1      -7.320  21.835   9.883  1.00  0.00     0.174 HD
ENDBRANCH  52  56
ENDBRANCH  33  44
ENDBRANCH   3  33
TORSDOF 18
ENDMDL
