MODEL 1
REMARK VINA RESULT: -7.017268633      0.000      0.000
REMARK  12 active torsions:
REMARK  status: ('A' for Active; 'I' for Inactive)
REMARK       I    between atoms: N1_1  and  C1_4 
REMARK       I    between atoms: C1_4  and  N3_6 
REMARK    1  A    between atoms: N3_6  and  C2_8 
REMARK       I    between atoms: N6_15  and  C4_16 
REMARK       I    between atoms: C4_16  and  N7_18 
REMARK    2  A    between atoms: N7_18  and  N8_20 
REMARK    3  A    between atoms: N8_20  and  C5_22 
REMARK    4  A    between atoms: C8_25  and  S1_26 
REMARK    5  A    between atoms: S1_26  and  N9_29 
REMARK    6  A    between atoms: N9_29  and  N10_31 
REMARK       I    between atoms: N10_31  and  C9_33 
REMARK    7  A    between atoms: C9_33  and  C10_35 
REMARK    8  A    between atoms: C10_35  and  N11_36 
REMARK    9  A    between atoms: C10_35  and  C11_40 
REMARK   10  A    between atoms: C11_40  and  C12_41 
REMARK   11  A    between atoms: C12_41  and  C13_42 
REMARK   12  A    between atoms: C13_42  and  N12_43 
ROOT
HETATM    1  C5  UNL     1      -9.529  26.900   9.993  1.00  0.00     0.059 A 
HETATM    2  C6  UNL     1      -8.998  27.537   8.912  1.00  0.00     0.033 A 
HETATM    3  C7  UNL     1      -9.227  28.875   8.672  1.00  0.00     0.028 A 
HETATM    4  C8  UNL     1     -10.014  29.660   9.518  1.00  0.00     0.092 A 
HETATM    5  C15 UNL     1     -10.533  28.979  10.598  1.00  0.00    -0.000 A 
HETATM    6  C16 UNL     1     -11.333  29.658  11.487  1.00  0.00     0.014 A 
HETATM    7  C17 UNL     1     -11.915  29.090  12.596  1.00  0.00     0.001 A 
HETATM    8  C18 UNL     1     -11.681  27.758  12.830  1.00  0.00     0.001 A 
HETATM    9  C19 UNL     1     -10.872  27.035  11.945  1.00  0.00     0.014 A 
HETATM   10  C20 UNL     1     -10.311  27.639  10.848  1.00  0.00     0.004 A 
ENDROOT
BRANCH   4  11
HETATM   11  S1  UNL     1     -10.261  31.334   9.176  1.00  0.00     0.277 S 
HETATM   12  O3  UNL     1     -11.750  31.680   9.149  1.00  0.00    -0.199 OA
HETATM   13  O4  UNL     1      -9.832  31.584   7.725  1.00  0.00    -0.199 OA
BRANCH  11  14
HETATM   14  N9  UNL     1      -9.375  32.428  10.110  1.00  0.00    -0.220 N 
ATOM     15  H9  UNL     1      -9.567  33.428  10.159  1.00  0.00     0.200 HD
BRANCH  14  16
HETATM   16  N10 UNL     1      -8.363  31.799  10.796  1.00  0.00    -0.259 N 
HETATM   17  C9  UNL     1      -7.082  31.555  10.262  1.00  0.00     0.267 C 
HETATM   18  O5  UNL     1      -6.801  31.913   9.108  1.00  0.00    -0.269 OA
ATOM     19  H10 UNL     1      -8.550  31.489  11.749  1.00  0.00     0.190 HD
BRANCH  17  20
HETATM   20  C10 UNL     1      -6.051  30.862  11.072  1.00  0.00     0.276 C 
BRANCH  20  21
HETATM   21  N11 UNL     1      -5.621  31.805  12.086  1.00  0.00    -0.066 N 
ATOM     22 3H11 UNL     1      -4.670  32.147  11.942  1.00  0.00     0.275 HD
ATOM     23 2H11 UNL     1      -6.092  32.708  12.024  1.00  0.00     0.275 HD
ATOM     24 1H11 UNL     1      -5.751  31.343  12.986  1.00  0.00     0.275 HD
ENDBRANCH  20  21
BRANCH  20  25
HETATM   25  C11 UNL     1      -6.663  29.609  11.627  1.00  0.00     0.044 C 
BRANCH  25  26
HETATM   26  C12 UNL     1      -6.082  28.331  11.160  1.00  0.00     0.022 C 
BRANCH  26  27
HETATM   27  C13 UNL     1      -5.448  28.298   9.817  1.00  0.00     0.122 C 
BRANCH  27  28
HETATM   28  N12 UNL     1      -4.373  27.391   9.671  1.00  0.00    -0.367 N 
HETATM   29  C14 UNL     1      -4.091  26.530   8.805  1.00  0.00     0.196 C 
HETATM   30  N13 UNL     1      -4.963  26.330   7.689  1.00  0.00    -0.067 NA
HETATM   31  N14 UNL     1      -2.932  25.702   8.850  1.00  0.00    -0.067 NA
ATOM     32  H12 UNL     1      -3.687  27.450  10.423  1.00  0.00     0.161 HD
ENDBRANCH  27  28
ENDBRANCH  26  27
ENDBRANCH  25  26
ENDBRANCH  20  25
ENDBRANCH  17  20
ENDBRANCH  14  16
ENDBRANCH  11  14
ENDBRANCH   4  11
BRANCH   1  33
HETATM   33  N8  UNL     1      -9.264  25.531  10.217  1.00  0.00    -0.296 N 
ATOM     34  H8  UNL     1      -9.983  24.821  10.078  1.00  0.00     0.187 HD
BRANCH  33  35
HETATM   35  N7  UNL     1      -7.944  25.181  10.648  1.00  0.00    -0.250 N 
HETATM   36  C4  UNL     1      -7.205  24.301   9.852  1.00  0.00     0.364 C 
HETATM   37  N6  UNL     1      -5.887  23.867  10.167  1.00  0.00    -0.039 N 
HETATM   38  O2  UNL     1      -7.754  23.872   8.791  1.00  0.00    -0.244 OA
HETATM   39  C2  UNL     1      -5.086  24.187  11.180  1.00  0.00     0.714 A 
HETATM   40  C3  UNL     1      -5.227  22.950   9.399  1.00  0.00     0.364 A 
HETATM   41  N4  UNL     1      -3.949  23.495  11.063  1.00  0.00    -0.127 N 
HETATM   42  N5  UNL     1      -4.043  22.754   9.991  1.00  0.00    -0.236 N 
ATOM     43  H4  UNL     1      -3.152  23.537  11.697  1.00  0.00     0.205 HD
ATOM     44  H5  UNL     1      -3.319  22.118   9.655  1.00  0.00     0.192 HD
HETATM   45  O1  UNL     1      -5.639  22.394   8.344  1.00  0.00    -0.244 OA
ATOM     46  H7  UNL     1      -7.555  25.562  11.510  1.00  0.00     0.192 HD
BRANCH  39  47
HETATM   47  N3  UNL     1      -5.347  25.033  12.109  1.00  0.00    -0.162 N 
HETATM   48  C1  UNL     1      -4.359  25.402  13.081  1.00  0.00     0.200 C 
HETATM   49  N1  UNL     1      -4.238  24.840  14.222  1.00  0.00    -0.373 N 
HETATM   50  N2  UNL     1      -3.483  26.449  12.725  1.00  0.00    -0.063 NA
ATOM     51  H12 UNL     1      -3.535  25.103  14.912  1.00  0.00     0.158 HD
ATOM     52  H11 UNL     1      -4.871  24.083  14.479  1.00  0.00     0.158 HD
ATOM     53  H3  UNL     1      -6.275  25.451  12.158  1.00  0.00     0.187 HD
ENDBRANCH  39  47
ENDBRANCH  33  35
ENDBRANCH   1  33
TORSDOF 12
ENDMDL
MODEL 2
REMARK VINA RESULT: -6.905670745      3.578      5.366
REMARK  12 active torsions:
REMARK  status: ('A' for Active; 'I' for Inactive)
REMARK       I    between atoms: N1_1  and  C1_4 
REMARK       I    between atoms: C1_4  and  N3_6 
REMARK    1  A    between atoms: N3_6  and  C2_8 
REMARK       I    between atoms: N6_15  and  C4_16 
REMARK       I    between atoms: C4_16  and  N7_18 
REMARK    2  A    between atoms: N7_18  and  N8_20 
REMARK    3  A    between atoms: N8_20  and  C5_22 
REMARK    4  A    between atoms: C8_25  and  S1_26 
REMARK    5  A    between atoms: S1_26  and  N9_29 
REMARK    6  A    between atoms: N9_29  and  N10_31 
REMARK       I    between atoms: N10_31  and  C9_33 
REMARK    7  A    between atoms: C9_33  and  C10_35 
REMARK    8  A    between atoms: C10_35  and  N11_36 
REMARK    9  A    between atoms: C10_35  and  C11_40 
REMARK   10  A    between atoms: C11_40  and  C12_41 
REMARK   11  A    between atoms: C12_41  and  C13_42 
REMARK   12  A    between atoms: C13_42  and  N12_43 
ROOT
HETATM    1  C5  UNL     1      -9.467  26.084  10.634  1.00  0.00     0.059 A 
HETATM    2  C6  UNL     1      -8.452  25.212  10.376  1.00  0.00     0.033 A 
HETATM    3  C7  UNL     1      -7.302  25.607   9.727  1.00  0.00     0.028 A 
HETATM    4  C8  UNL     1      -7.104  26.921   9.296  1.00  0.00     0.092 A 
HETATM    5  C15 UNL     1      -8.153  27.770   9.574  1.00  0.00    -0.000 A 
HETATM    6  C16 UNL     1      -8.063  29.084   9.180  1.00  0.00     0.014 A 
HETATM    7  C17 UNL     1      -9.043  30.027   9.392  1.00  0.00     0.001 A 
HETATM    8  C18 UNL     1     -10.185  29.626  10.040  1.00  0.00     0.001 A 
HETATM    9  C19 UNL     1     -10.310  28.295  10.455  1.00  0.00     0.014 A 
HETATM   10  C20 UNL     1      -9.310  27.386  10.222  1.00  0.00     0.004 A 
ENDROOT
BRANCH   4  11
HETATM   11  S1  UNL     1      -5.640  27.365   8.496  1.00  0.00     0.277 S 
HETATM   12  O3  UNL     1      -5.905  28.360   7.366  1.00  0.00    -0.199 OA
HETATM   13  O4  UNL     1      -5.125  26.133   7.743  1.00  0.00    -0.199 OA
BRANCH  11  14
HETATM   14  N9  UNL     1      -4.365  27.860   9.488  1.00  0.00    -0.220 N 
ATOM     15  H9  UNL     1      -3.475  28.219   9.144  1.00  0.00     0.200 HD
BRANCH  14  16
HETATM   16  N10 UNL     1      -4.680  27.718  10.819  1.00  0.00    -0.259 N 
HETATM   17  C9  UNL     1      -3.746  27.380  11.817  1.00  0.00     0.267 C 
HETATM   18  O5  UNL     1      -2.554  27.192  11.529  1.00  0.00    -0.269 OA
ATOM     19  H10 UNL     1      -5.648  27.866  11.101  1.00  0.00     0.190 HD
BRANCH  17  20
HETATM   20  C10 UNL     1      -4.176  27.241  13.231  1.00  0.00     0.276 C 
BRANCH  20  21
HETATM   21  N11 UNL     1      -5.543  27.719  13.295  1.00  0.00    -0.066 N 
ATOM     22 3H11 UNL     1      -5.637  28.707  13.058  1.00  0.00     0.275 HD
ATOM     23 2H11 UNL     1      -6.135  27.353  12.549  1.00  0.00     0.275 HD
ATOM     24 1H11 UNL     1      -5.885  27.494  14.229  1.00  0.00     0.275 HD
ENDBRANCH  20  21
BRANCH  20  25
HETATM   25  C11 UNL     1      -4.016  25.801  13.623  1.00  0.00     0.044 C 
BRANCH  25  26
HETATM   26  C12 UNL     1      -5.022  24.858  13.088  1.00  0.00     0.022 C 
BRANCH  26  27
HETATM   27  C13 UNL     1      -4.578  23.853  12.089  1.00  0.00     0.122 C 
BRANCH  27  28
HETATM   28  N12 UNL     1      -3.648  24.314  11.129  1.00  0.00    -0.367 N 
HETATM   29  C14 UNL     1      -3.467  24.053   9.916  1.00  0.00     0.196 C 
HETATM   30  N13 UNL     1      -4.313  23.106   9.258  1.00  0.00    -0.067 NA
HETATM   31  N14 UNL     1      -2.446  24.642   9.116  1.00  0.00    -0.067 NA
ATOM     32  H12 UNL     1      -2.989  24.999  11.499  1.00  0.00     0.161 HD
ENDBRANCH  27  28
ENDBRANCH  26  27
ENDBRANCH  25  26
ENDBRANCH  20  25
ENDBRANCH  17  20
ENDBRANCH  14  16
ENDBRANCH  11  14
ENDBRANCH   4  11
BRANCH   1  33
HETATM   33  N8  UNL     1     -10.627  25.650  11.313  1.00  0.00    -0.296 N 
ATOM     34  H8  UNL     1     -11.467  25.374  10.805  1.00  0.00     0.187 HD
BRANCH  33  35
HETATM   35  N7  UNL     1     -10.574  25.612  12.743  1.00  0.00    -0.250 N 
HETATM   36  C4  UNL     1     -10.968  24.433  13.384  1.00  0.00     0.364 C 
HETATM   37  N6  UNL     1     -10.970  24.264  14.797  1.00  0.00    -0.039 N 
HETATM   38  O2  UNL     1     -11.344  23.467  12.651  1.00  0.00    -0.244 OA
HETATM   39  C2  UNL     1     -10.597  25.090  15.771  1.00  0.00     0.714 A 
HETATM   40  C3  UNL     1     -11.430  23.121  15.386  1.00  0.00     0.364 A 
HETATM   41  N4  UNL     1     -10.814  24.493  16.946  1.00  0.00    -0.127 N 
HETATM   42  N5  UNL     1     -11.315  23.310  16.706  1.00  0.00    -0.236 N 
ATOM     43  H4  UNL     1     -10.623  24.889  17.866  1.00  0.00     0.205 HD
ATOM     44  H5  UNL     1     -11.580  22.631  17.419  1.00  0.00     0.192 HD
HETATM   45  O1  UNL     1     -11.876  22.089  14.813  1.00  0.00    -0.244 OA
ATOM     46  H7  UNL     1     -10.259  26.420  13.278  1.00  0.00     0.192 HD
BRANCH  39  47
HETATM   47  N3  UNL     1     -10.094  26.261  15.616  1.00  0.00    -0.162 N 
HETATM   48  C1  UNL     1      -8.676  26.470  15.619  1.00  0.00     0.200 C 
HETATM   49  N1  UNL     1      -8.007  26.793  16.658  1.00  0.00    -0.373 N 
HETATM   50  N2  UNL     1      -8.010  26.300  14.388  1.00  0.00    -0.063 NA
ATOM     51  H12 UNL     1      -6.998  26.942  16.660  1.00  0.00     0.158 HD
ATOM     52  H11 UNL     1      -8.489  26.917  17.549  1.00  0.00     0.158 HD
ATOM     53  H3  UNL     1     -10.717  27.059  15.488  1.00  0.00     0.187 HD
ENDBRANCH  39  47
ENDBRANCH  33  35
ENDBRANCH   1  33
TORSDOF 12
ENDMDL
MODEL 3
REMARK VINA RESULT: -6.863995324      3.548      5.769
REMARK  12 active torsions:
REMARK  status: ('A' for Active; 'I' for Inactive)
REMARK       I    between atoms: N1_1  and  C1_4 
REMARK       I    between atoms: C1_4  and  N3_6 
REMARK    1  A    between atoms: N3_6  and  C2_8 
REMARK       I    between atoms: N6_15  and  C4_16 
REMARK       I    between atoms: C4_16  and  N7_18 
REMARK    2  A    between atoms: N7_18  and  N8_20 
REMARK    3  A    between atoms: N8_20  and  C5_22 
REMARK    4  A    between atoms: C8_25  and  S1_26 
REMARK    5  A    between atoms: S1_26  and  N9_29 
REMARK    6  A    between atoms: N9_29  and  N10_31 
REMARK       I    between atoms: N10_31  and  C9_33 
REMARK    7  A    between atoms: C9_33  and  C10_35 
REMARK    8  A    between atoms: C10_35  and  N11_36 
REMARK    9  A    between atoms: C10_35  and  C11_40 
REMARK   10  A    between atoms: C11_40  and  C12_41 
REMARK   11  A    between atoms: C12_41  and  C13_42 
REMARK   12  A    between atoms: C13_42  and  N12_43 
ROOT
HETATM    1  C5  UNL     1      -6.044  25.779  12.715  1.00  0.00     0.059 A 
HETATM    2  C6  UNL     1      -6.839  26.572  13.486  1.00  0.00     0.033 A 
HETATM    3  C7  UNL     1      -8.182  26.731  13.222  1.00  0.00     0.028 A 
HETATM    4  C8  UNL     1      -8.812  26.091  12.152  1.00  0.00     0.092 A 
HETATM    5  C15 UNL     1      -7.975  25.300  11.396  1.00  0.00    -0.000 A 
HETATM    6  C16 UNL     1      -8.493  24.634  10.311  1.00  0.00     0.014 A 
HETATM    7  C17 UNL     1      -7.761  23.822   9.476  1.00  0.00     0.001 A 
HETATM    8  C18 UNL     1      -6.424  23.667   9.746  1.00  0.00     0.001 A 
HETATM    9  C19 UNL     1      -5.862  24.331  10.844  1.00  0.00     0.014 A 
HETATM   10  C20 UNL     1      -6.627  25.134  11.651  1.00  0.00     0.004 A 
ENDROOT
BRANCH   4  11
HETATM   11  S1  UNL     1     -10.500  26.318  11.871  1.00  0.00     0.277 S 
HETATM   12  O3  UNL     1     -11.215  26.788  13.138  1.00  0.00    -0.199 OA
HETATM   13  O4  UNL     1     -11.124  24.940  11.626  1.00  0.00    -0.199 OA
BRANCH  11  14
HETATM   14  N9  UNL     1     -10.916  27.255  10.528  1.00  0.00    -0.220 N 
ATOM     15  H9  UNL     1     -11.845  27.275  10.107  1.00  0.00     0.200 HD
BRANCH  14  16
HETATM   16  N10 UNL     1      -9.844  27.987  10.074  1.00  0.00    -0.259 N 
HETATM   17  C9  UNL     1      -9.294  27.860   8.783  1.00  0.00     0.267 C 
HETATM   18  O5  UNL     1      -9.772  27.055   7.970  1.00  0.00    -0.269 OA
ATOM     19  H10 UNL     1      -9.421  28.662  10.710  1.00  0.00     0.190 HD
BRANCH  17  20
HETATM   20  C10 UNL     1      -8.130  28.687   8.380  1.00  0.00     0.276 C 
BRANCH  20  21
HETATM   21  N11 UNL     1      -8.549  30.071   8.491  1.00  0.00    -0.066 N 
ATOM     22 3H11 UNL     1      -8.644  30.538   7.589  1.00  0.00     0.275 HD
ATOM     23 2H11 UNL     1      -9.517  30.177   8.792  1.00  0.00     0.275 HD
ATOM     24 1H11 UNL     1      -7.881  30.527   9.112  1.00  0.00     0.275 HD
ENDBRANCH  20  21
BRANCH  20  25
HETATM   25  C11 UNL     1      -6.976  28.327   9.269  1.00  0.00     0.044 C 
BRANCH  25  26
HETATM   26  C12 UNL     1      -6.009  27.348   8.727  1.00  0.00     0.022 C 
BRANCH  26  27
HETATM   27  C13 UNL     1      -4.623  27.362   9.263  1.00  0.00     0.122 C 
BRANCH  27  28
HETATM   28  N12 UNL     1      -3.798  26.290   8.851  1.00  0.00    -0.367 N 
HETATM   29  C14 UNL     1      -2.969  25.566   9.451  1.00  0.00     0.196 C 
HETATM   30  N13 UNL     1      -2.720  25.775  10.844  1.00  0.00    -0.067 NA
HETATM   31  N14 UNL     1      -2.226  24.520   8.833  1.00  0.00    -0.067 NA
ATOM     32  H12 UNL     1      -3.897  26.058   7.862  1.00  0.00     0.161 HD
ENDBRANCH  27  28
ENDBRANCH  26  27
ENDBRANCH  25  26
ENDBRANCH  20  25
ENDBRANCH  17  20
ENDBRANCH  14  16
ENDBRANCH  11  14
ENDBRANCH   4  11
BRANCH   1  33
HETATM   33  N8  UNL     1      -4.674  25.627  13.021  1.00  0.00    -0.296 N 
ATOM     34  H8  UNL     1      -4.193  24.738  12.879  1.00  0.00     0.187 HD
BRANCH  33  35
HETATM   35  N7  UNL     1      -3.987  26.770  13.540  1.00  0.00    -0.250 N 
HETATM   36  C4  UNL     1      -2.995  26.561  14.503  1.00  0.00     0.364 C 
HETATM   37  N6  UNL     1      -2.242  27.607  15.104  1.00  0.00    -0.039 N 
HETATM   38  O2  UNL     1      -2.764  25.362  14.852  1.00  0.00    -0.244 OA
HETATM   39  C2  UNL     1      -2.261  28.921  14.896  1.00  0.00     0.714 A 
HETATM   40  C3  UNL     1      -1.332  27.365  16.094  1.00  0.00     0.364 A 
HETATM   41  N4  UNL     1      -1.391  29.500  15.727  1.00  0.00    -0.127 N 
HETATM   42  N5  UNL     1      -0.837  28.558  16.444  1.00  0.00    -0.236 N 
ATOM     43  H4  UNL     1      -1.193  30.499  15.791  1.00  0.00     0.205 HD
ATOM     44  H5  UNL     1      -0.132  28.710  17.165  1.00  0.00     0.192 HD
HETATM   45  O1  UNL     1      -1.014  26.248  16.586  1.00  0.00    -0.244 OA
ATOM     46  H7  UNL     1      -4.214  27.711  13.217  1.00  0.00     0.192 HD
BRANCH  39  47
HETATM   47  N3  UNL     1      -2.980  29.537  14.028  1.00  0.00    -0.162 N 
HETATM   48  C1  UNL     1      -2.425  29.996  12.789  1.00  0.00     0.200 C 
HETATM   49  N1  UNL     1      -1.967  31.175  12.608  1.00  0.00    -0.373 N 
HETATM   50  N2  UNL     1      -2.394  29.068  11.728  1.00  0.00    -0.063 NA
ATOM     51  H12 UNL     1      -1.572  31.501  11.726  1.00  0.00     0.158 HD
ATOM     52  H11 UNL     1      -1.989  31.847  13.376  1.00  0.00     0.158 HD
ATOM     53  H3  UNL     1      -3.967  29.703  14.225  1.00  0.00     0.187 HD
ENDBRANCH  39  47
ENDBRANCH  33  35
ENDBRANCH   1  33
TORSDOF 12
ENDMDL
MODEL 4
REMARK VINA RESULT: -6.816502354      2.981      7.953
REMARK  12 active torsions:
REMARK  status: ('A' for Active; 'I' for Inactive)
REMARK       I    between atoms: N1_1  and  C1_4 
REMARK       I    between atoms: C1_4  and  N3_6 
REMARK    1  A    between atoms: N3_6  and  C2_8 
REMARK       I    between atoms: N6_15  and  C4_16 
REMARK       I    between atoms: C4_16  and  N7_18 
REMARK    2  A    between atoms: N7_18  and  N8_20 
REMARK    3  A    between atoms: N8_20  and  C5_22 
REMARK    4  A    between atoms: C8_25  and  S1_26 
REMARK    5  A    between atoms: S1_26  and  N9_29 
REMARK    6  A    between atoms: N9_29  and  N10_31 
REMARK       I    between atoms: N10_31  and  C9_33 
REMARK    7  A    between atoms: C9_33  and  C10_35 
REMARK    8  A    between atoms: C10_35  and  N11_36 
REMARK    9  A    between atoms: C10_35  and  C11_40 
REMARK   10  A    between atoms: C11_40  and  C12_41 
REMARK   11  A    between atoms: C12_41  and  C13_42 
REMARK   12  A    between atoms: C13_42  and  N12_43 
ROOT
HETATM    1  C5  UNL     1      -6.192  28.354  11.782  1.00  0.00     0.059 A 
HETATM    2  C6  UNL     1      -5.881  28.411  10.457  1.00  0.00     0.033 A 
HETATM    3  C7  UNL     1      -5.032  27.496   9.870  1.00  0.00     0.028 A 
HETATM    4  C8  UNL     1      -4.440  26.459  10.594  1.00  0.00     0.092 A 
HETATM    5  C15 UNL     1      -4.779  26.437  11.930  1.00  0.00    -0.000 A 
HETATM    6  C16 UNL     1      -4.239  25.462  12.734  1.00  0.00     0.014 A 
HETATM    7  C17 UNL     1      -4.493  25.338  14.080  1.00  0.00     0.001 A 
HETATM    8  C18 UNL     1      -5.340  26.251  14.657  1.00  0.00     0.001 A 
HETATM    9  C19 UNL     1      -5.907  27.259  13.868  1.00  0.00     0.014 A 
HETATM   10  C20 UNL     1      -5.627  27.348  12.528  1.00  0.00     0.004 A 
ENDROOT
BRANCH   4  11
HETATM   11  S1  UNL     1      -3.391  25.335   9.808  1.00  0.00     0.277 S 
HETATM   12  O3  UNL     1      -2.023  25.284  10.488  1.00  0.00    -0.199 OA
HETATM   13  O4  UNL     1      -3.055  25.899   8.422  1.00  0.00    -0.199 OA
BRANCH  11  14
HETATM   14  N9  UNL     1      -4.018  23.790   9.535  1.00  0.00    -0.220 N 
ATOM     15  H9  UNL     1      -3.464  22.992   9.228  1.00  0.00     0.200 HD
BRANCH  14  16
HETATM   16  N10 UNL     1      -5.371  23.747   9.779  1.00  0.00    -0.259 N 
HETATM   17  C9  UNL     1      -6.354  24.078   8.827  1.00  0.00     0.267 C 
HETATM   18  O5  UNL     1      -6.031  24.436   7.684  1.00  0.00    -0.269 OA
ATOM     19  H10 UNL     1      -5.681  23.456  10.705  1.00  0.00     0.190 HD
BRANCH  17  20
HETATM   20  C10 UNL     1      -7.793  24.009   9.180  1.00  0.00     0.276 C 
BRANCH  20  21
HETATM   21  N11 UNL     1      -8.100  22.608   9.389  1.00  0.00    -0.066 N 
ATOM     22 3H11 UNL     1      -8.186  22.079   8.521  1.00  0.00     0.275 HD
ATOM     23 2H11 UNL     1      -7.322  22.079   9.783  1.00  0.00     0.275 HD
ATOM     24 1H11 UNL     1      -8.941  22.577   9.965  1.00  0.00     0.275 HD
ENDBRANCH  20  21
BRANCH  20  25
HETATM   25  C11 UNL     1      -8.015  24.868  10.390  1.00  0.00     0.044 C 
BRANCH  25  26
HETATM   26  C12 UNL     1      -8.949  26.003  10.229  1.00  0.00     0.022 C 
BRANCH  26  27
HETATM   27  C13 UNL     1     -10.343  25.839  10.717  1.00  0.00     0.122 C 
BRANCH  27  28
HETATM   28  N12 UNL     1     -10.491  25.727  12.119  1.00  0.00    -0.367 N 
HETATM   29  C14 UNL     1     -10.883  24.802  12.868  1.00  0.00     0.196 C 
HETATM   30  N13 UNL     1     -11.295  23.555  12.302  1.00  0.00    -0.067 NA
HETATM   31  N14 UNL     1     -10.959  24.901  14.287  1.00  0.00    -0.067 NA
ATOM     32  H12 UNL     1     -10.223  26.572  12.624  1.00  0.00     0.161 HD
ENDBRANCH  27  28
ENDBRANCH  26  27
ENDBRANCH  25  26
ENDBRANCH  20  25
ENDBRANCH  17  20
ENDBRANCH  14  16
ENDBRANCH  11  14
ENDBRANCH   4  11
BRANCH   1  33
HETATM   33  N8  UNL     1      -7.076  29.299  12.349  1.00  0.00    -0.296 N 
ATOM     34  H8  UNL     1      -6.927  29.669  13.288  1.00  0.00     0.187 HD
BRANCH  33  35
HETATM   35  N7  UNL     1      -8.191  29.714  11.553  1.00  0.00    -0.250 N 
HETATM   36  C4  UNL     1      -9.465  29.274  11.924  1.00  0.00     0.364 C 
HETATM   37  N6  UNL     1     -10.654  29.606  11.217  1.00  0.00    -0.039 N 
HETATM   38  O2  UNL     1      -9.550  28.533  12.952  1.00  0.00    -0.244 OA
HETATM   39  C2  UNL     1     -10.843  30.378  10.150  1.00  0.00     0.714 A 
HETATM   40  C3  UNL     1     -11.870  29.096  11.572  1.00  0.00     0.364 A 
HETATM   41  N4  UNL     1     -12.140  30.360   9.832  1.00  0.00    -0.127 N 
HETATM   42  N5  UNL     1     -12.750  29.587  10.691  1.00  0.00    -0.236 N 
ATOM     43  H4  UNL     1     -12.577  30.860   9.058  1.00  0.00     0.205 HD
ATOM     44  H5  UNL     1     -13.750  29.386  10.690  1.00  0.00     0.192 HD
HETATM   45  O1  UNL     1     -12.126  28.318  12.532  1.00  0.00    -0.244 OA
ATOM     46  H7  UNL     1      -8.059  30.314  10.738  1.00  0.00     0.192 HD
BRANCH  39  47
HETATM   47  N3  UNL     1      -9.938  31.047   9.533  1.00  0.00    -0.162 N 
HETATM   48  C1  UNL     1     -10.149  31.539   8.203  1.00  0.00     0.200 C 
HETATM   49  N1  UNL     1      -9.794  30.913   7.148  1.00  0.00    -0.373 N 
HETATM   50  N2  UNL     1     -10.792  32.789   8.087  1.00  0.00    -0.063 NA
ATOM     51  H12 UNL     1      -9.945  31.263   6.202  1.00  0.00     0.158 HD
ATOM     52  H11 UNL     1      -9.329  30.009   7.232  1.00  0.00     0.158 HD
ATOM     53  H3  UNL     1      -9.049  31.233   9.999  1.00  0.00     0.187 HD
ENDBRANCH  39  47
ENDBRANCH  33  35
ENDBRANCH   1  33
TORSDOF 12
ENDMDL
MODEL 5
REMARK VINA RESULT: -6.708140149      3.651      5.912
REMARK  12 active torsions:
REMARK  status: ('A' for Active; 'I' for Inactive)
REMARK       I    between atoms: N1_1  and  C1_4 
REMARK       I    between atoms: C1_4  and  N3_6 
REMARK    1  A    between atoms: N3_6  and  C2_8 
REMARK       I    between atoms: N6_15  and  C4_16 
REMARK       I    between atoms: C4_16  and  N7_18 
REMARK    2  A    between atoms: N7_18  and  N8_20 
REMARK    3  A    between atoms: N8_20  and  C5_22 
REMARK    4  A    between atoms: C8_25  and  S1_26 
REMARK    5  A    between atoms: S1_26  and  N9_29 
REMARK    6  A    between atoms: N9_29  and  N10_31 
REMARK       I    between atoms: N10_31  and  C9_33 
REMARK    7  A    between atoms: C9_33  and  C10_35 
REMARK    8  A    between atoms: C10_35  and  N11_36 
REMARK    9  A    between atoms: C10_35  and  C11_40 
REMARK   10  A    between atoms: C11_40  and  C12_41 
REMARK   11  A    between atoms: C12_41  and  C13_42 
REMARK   12  A    between atoms: C13_42  and  N12_43 
ROOT
HETATM    1  C5  UNL     1      -9.413  26.244  10.414  1.00  0.00     0.059 A 
HETATM    2  C6  UNL     1      -8.691  25.301   9.746  1.00  0.00     0.033 A 
HETATM    3  C7  UNL     1      -7.589  25.632   8.987  1.00  0.00     0.028 A 
HETATM    4  C8  UNL     1      -7.143  26.949   8.856  1.00  0.00     0.092 A 
HETATM    5  C15 UNL     1      -7.900  27.872   9.545  1.00  0.00    -0.000 A 
HETATM    6  C16 UNL     1      -7.553  29.200   9.472  1.00  0.00     0.014 A 
HETATM    7  C17 UNL     1      -8.230  30.215  10.107  1.00  0.00     0.001 A 
HETATM    8  C18 UNL     1      -9.326  29.878  10.862  1.00  0.00     0.001 A 
HETATM    9  C19 UNL     1      -9.708  28.534  10.958  1.00  0.00     0.014 A 
HETATM   10  C20 UNL     1      -9.006  27.552  10.308  1.00  0.00     0.004 A 
ENDROOT
BRANCH   4  11
HETATM   11  S1  UNL     1      -5.751  27.308   7.899  1.00  0.00     0.277 S 
HETATM   12  O3  UNL     1      -6.036  28.436   6.907  1.00  0.00    -0.199 OA
HETATM   13  O4  UNL     1      -5.494  26.109   6.979  1.00  0.00    -0.199 OA
BRANCH  11  14
HETATM   14  N9  UNL     1      -4.309  27.557   8.743  1.00  0.00    -0.220 N 
ATOM     15  H9  UNL     1      -3.576  28.203   8.449  1.00  0.00     0.200 HD
BRANCH  14  16
HETATM   16  N10 UNL     1      -4.246  26.778   9.874  1.00  0.00    -0.259 N 
HETATM   17  C9  UNL     1      -3.449  25.623   9.993  1.00  0.00     0.267 C 
HETATM   18  O5  UNL     1      -2.741  25.245   9.047  1.00  0.00    -0.269 OA
ATOM     19  H10 UNL     1      -4.812  27.054  10.676  1.00  0.00     0.190 HD
BRANCH  17  20
HETATM   20  C10 UNL     1      -3.449  24.838  11.251  1.00  0.00     0.276 C 
BRANCH  20  21
HETATM   21  N11 UNL     1      -3.483  25.799  12.337  1.00  0.00    -0.066 N 
ATOM     22 3H11 UNL     1      -2.565  25.986  12.740  1.00  0.00     0.275 HD
ATOM     23 2H11 UNL     1      -3.683  26.750  12.028  1.00  0.00     0.275 HD
ATOM     24 1H11 UNL     1      -4.157  25.445  13.017  1.00  0.00     0.275 HD
ENDBRANCH  20  21
BRANCH  20  25
HETATM   25  C11 UNL     1      -4.631  23.914  11.220  1.00  0.00     0.044 C 
BRANCH  25  26
HETATM   26  C12 UNL     1      -4.609  22.851  10.191  1.00  0.00     0.022 C 
BRANCH  26  27
HETATM   27  C13 UNL     1      -5.729  22.795   9.218  1.00  0.00     0.122 C 
BRANCH  27  28
HETATM   28  N12 UNL     1      -6.130  21.498   8.821  1.00  0.00    -0.367 N 
HETATM   29  C14 UNL     1      -7.234  20.904   8.819  1.00  0.00     0.196 C 
HETATM   30  N13 UNL     1      -8.403  21.575   9.298  1.00  0.00    -0.067 NA
HETATM   31  N14 UNL     1      -7.421  19.566   8.368  1.00  0.00    -0.067 NA
ATOM     32  H12 UNL     1      -5.363  20.928   8.462  1.00  0.00     0.161 HD
ENDBRANCH  27  28
ENDBRANCH  26  27
ENDBRANCH  25  26
ENDBRANCH  20  25
ENDBRANCH  17  20
ENDBRANCH  14  16
ENDBRANCH  11  14
ENDBRANCH   4  11
BRANCH   1  33
HETATM   33  N8  UNL     1     -10.529  25.869  11.194  1.00  0.00    -0.296 N 
ATOM     34  H8  UNL     1     -11.448  25.732  10.774  1.00  0.00     0.187 HD
BRANCH  33  35
HETATM   35  N7  UNL     1     -10.317  25.689  12.598  1.00  0.00    -0.250 N 
HETATM   36  C4  UNL     1     -10.820  24.530  13.196  1.00  0.00     0.364 C 
HETATM   37  N6  UNL     1     -10.685  24.231  14.580  1.00  0.00    -0.039 N 
HETATM   38  O2  UNL     1     -11.431  23.705  12.448  1.00  0.00    -0.244 OA
HETATM   39  C2  UNL     1     -10.072  24.895  15.557  1.00  0.00     0.714 A 
HETATM   40  C3  UNL     1     -11.254  23.121  15.138  1.00  0.00     0.364 A 
HETATM   41  N4  UNL     1     -10.245  24.231  16.702  1.00  0.00    -0.127 N 
HETATM   42  N5  UNL     1     -10.957  23.166  16.442  1.00  0.00    -0.236 N 
ATOM     43  H4  UNL     1      -9.886  24.505  17.617  1.00  0.00     0.205 HD
ATOM     44  H5  UNL     1     -11.244  22.472  17.131  1.00  0.00     0.192 HD
HETATM   45  O1  UNL     1     -11.926  22.227  14.552  1.00  0.00    -0.244 OA
ATOM     46  H7  UNL     1      -9.814  26.387  13.147  1.00  0.00     0.192 HD
BRANCH  39  47
HETATM   47  N3  UNL     1      -9.407  25.985  15.425  1.00  0.00    -0.162 N 
HETATM   48  C1  UNL     1      -8.724  26.582  16.536  1.00  0.00     0.200 C 
HETATM   49  N1  UNL     1      -9.232  27.489  17.278  1.00  0.00    -0.373 N 
HETATM   50  N2  UNL     1      -7.420  26.117  16.799  1.00  0.00    -0.063 NA
ATOM     51  H12 UNL     1      -8.746  27.914  18.068  1.00  0.00     0.158 HD
ATOM     52  H11 UNL     1     -10.176  27.826  17.088  1.00  0.00     0.158 HD
ATOM     53  H3  UNL     1      -9.363  26.436  14.511  1.00  0.00     0.187 HD
ENDBRANCH  39  47
ENDBRANCH  33  35
ENDBRANCH   1  33
TORSDOF 12
ENDMDL
