MODEL 1
REMARK VINA RESULT: -7.151112699      0.000      0.000
REMARK  11 active torsions:
REMARK  status: ('A' for Active; 'I' for Inactive)
REMARK    1  A    between atoms: N1_1  and  C1_4 
REMARK    2  A    between atoms: C2_7  and  C3_8 
REMARK    3  A    between atoms: C3_8  and  C4_9 
REMARK    4  A    between atoms: C4_9  and  C5_10 
REMARK    5  A    between atoms: C5_10  and  O1_11 
REMARK    6  A    between atoms: C5_10  and  N3_13 
REMARK    7  A    between atoms: N3_13  and  C6_15 
REMARK    8  A    between atoms: C8_21  and  N6_22 
REMARK       I    between atoms: N7_25  and  C11_26 
REMARK    9  A    between atoms: C11_26  and  C12_28 
REMARK   10  A    between atoms: C12_28  and  N8_29 
REMARK       I    between atoms: N8_29  and  C13_31 
REMARK       I    between atoms: C13_31  and  N9_33 
REMARK   11  A    between atoms: N9_33  and  N10_35 
ROOT
HETATM    1  C6  UNL     1      55.366  -4.943  20.349  1.00  0.00     0.682 A 
HETATM    2  N4  UNL     1      54.760  -3.727  20.281  1.00  0.00    -0.174 N 
ATOM      3  H4  UNL     1      54.231  -3.285  21.033  1.00  0.00     0.186 HD
HETATM    4  C7  UNL     1      54.970  -3.208  19.072  1.00  0.00     0.167 A 
HETATM    5  N5  UNL     1      54.626  -2.075  18.454  1.00  0.00    -0.173 N 
ATOM      6  H5  UNL     1      54.066  -1.389  18.960  1.00  0.00     0.186 HD
HETATM    7  C8  UNL     1      54.993  -1.806  17.184  1.00  0.00     0.684 A 
HETATM    8  N11 UNL     1      55.743  -2.735  16.514  1.00  0.00    -0.175 N 
ATOM      9  H11 UNL     1      56.033  -2.555  15.552  1.00  0.00     0.186 HD
HETATM   10  C15 UNL     1      56.094  -3.861  17.106  1.00  0.00     0.146 A 
HETATM   11  N12 UNL     1      56.807  -4.730  16.465  1.00  0.00    -0.383 N 
ATOM     12 1H12 UNL     1      57.078  -5.601  16.923  1.00  0.00     0.157 HD
ATOM     13 2H12 UNL     1      57.082  -4.523  15.505  1.00  0.00     0.157 HD
HETATM   14  C16 UNL     1      55.724  -4.139  18.397  1.00  0.00     0.138 A 
HETATM   15  N13 UNL     1      55.962  -5.202  19.193  1.00  0.00    -0.184 N 
ATOM     16  H13 UNL     1      56.494  -6.038  18.953  1.00  0.00     0.184 HD
ENDROOT
BRANCH   7  17
HETATM   17  N6  UNL     1      54.682  -0.627  16.492  1.00  0.00    -0.200 N 
HETATM   18  C9  UNL     1      53.361  -0.189  16.102  1.00  0.00     0.163 C 
HETATM   19  C10 UNL     1      53.475   1.303  16.438  1.00  0.00     0.148 C 
HETATM   20  N7  UNL     1      54.875   1.614  16.300  1.00  0.00    -0.332 N 
HETATM   21  C11 UNL     1      55.449   2.899  16.417  1.00  0.00     0.238 C 
HETATM   22  C14 UNL     1      55.583   0.383  16.031  1.00  0.00     0.270 C 
HETATM   23  O2  UNL     1      56.674   3.057  16.250  1.00  0.00    -0.271 OA
BRANCH  21  24
HETATM   24  C12 UNL     1      54.584   4.045  16.737  1.00  0.00     0.227 C 
BRANCH  24  25
HETATM   25  N8  UNL     1      54.840   4.572  18.036  1.00  0.00    -0.333 N 
HETATM   26  C13 UNL     1      53.935   4.369  19.101  1.00  0.00     0.334 C 
HETATM   27  O3  UNL     1      52.871   3.704  18.899  1.00  0.00    -0.246 OA
HETATM   28  N9  UNL     1      54.156   4.878  20.402  1.00  0.00    -0.258 N 
ATOM     29  H9  UNL     1      54.997   5.425  20.587  1.00  0.00     0.191 HD
ATOM     30  H8  UNL     1      55.693   5.106  18.199  1.00  0.00     0.164 HD
BRANCH  28  31
HETATM   31  N10 UNL     1      53.257   4.651  21.434  1.00  0.00    -0.341 N 
ATOM     32 2H10 UNL     1      52.304   5.001  21.327  1.00  0.00     0.177 HD
ATOM     33 1H10 UNL     1      53.529   4.150  22.279  1.00  0.00     0.177 HD
ENDBRANCH  28  31
ENDBRANCH  24  25
ENDBRANCH  21  24
ENDBRANCH   7  17
BRANCH   1  34
HETATM   34  N3  UNL     1      55.322  -5.671  21.412  1.00  0.00    -0.200 N 
ATOM     35  H3  UNL     1      55.113  -5.206  22.296  1.00  0.00     0.180 HD
BRANCH  34  36
HETATM   36  C5  UNL     1      55.542  -7.074  21.443  1.00  0.00     0.235 C 
BRANCH  36  37
HETATM   37  C4  UNL     1      55.103  -7.645  22.746  1.00  0.00     0.060 C 
BRANCH  37  38
HETATM   38  C3  UNL     1      55.078  -6.747  23.916  1.00  0.00     0.062 C 
BRANCH  38  39
HETATM   39  C2  UNL     1      56.313  -6.751  24.770  1.00  0.00     0.018 A 
HETATM   40  N2  UNL     1      56.680  -5.707  25.489  1.00  0.00    -0.340 N 
HETATM   41  C1  UNL     1      57.784  -5.798  26.222  1.00  0.00     0.142 A 
ATOM     42  H2  UNL     1      56.128  -4.849  25.481  1.00  0.00     0.167 HD
HETATM   43  S1  UNL     1      58.336  -7.376  25.914  1.00  0.00    -0.064 SA
HETATM   44  C17 UNL     1      57.106  -7.864  24.835  1.00  0.00     0.078 A 
BRANCH  41  45
HETATM   45  N1  UNL     1      58.291  -4.859  26.998  1.00  0.00    -0.380 N 
ATOM     46  H12 UNL     1      58.501  -4.876  27.997  1.00  0.00     0.158 HD
ATOM     47  H11 UNL     1      58.563  -3.918  26.714  1.00  0.00     0.158 HD
ENDBRANCH  41  45
ENDBRANCH  38  39
ENDBRANCH  37  38
ENDBRANCH  36  37
BRANCH  36  48
HETATM   48  O1  UNL     1      55.134  -7.762  20.323  1.00  0.00    -0.376 OA
ATOM     49  H1  UNL     1      55.750  -7.775  19.600  1.00  0.00     0.212 HD
ENDBRANCH  36  48
ENDBRANCH  34  36
ENDBRANCH   1  34
TORSDOF 11
ENDMDL
MODEL 2
REMARK VINA RESULT: -6.842160402      3.127      9.806
REMARK  11 active torsions:
REMARK  status: ('A' for Active; 'I' for Inactive)
REMARK    1  A    between atoms: N1_1  and  C1_4 
REMARK    2  A    between atoms: C2_7  and  C3_8 
REMARK    3  A    between atoms: C3_8  and  C4_9 
REMARK    4  A    between atoms: C4_9  and  C5_10 
REMARK    5  A    between atoms: C5_10  and  O1_11 
REMARK    6  A    between atoms: C5_10  and  N3_13 
REMARK    7  A    between atoms: N3_13  and  C6_15 
REMARK    8  A    between atoms: C8_21  and  N6_22 
REMARK       I    between atoms: N7_25  and  C11_26 
REMARK    9  A    between atoms: C11_26  and  C12_28 
REMARK   10  A    between atoms: C12_28  and  N8_29 
REMARK       I    between atoms: N8_29  and  C13_31 
REMARK       I    between atoms: C13_31  and  N9_33 
REMARK   11  A    between atoms: N9_33  and  N10_35 
ROOT
HETATM    1  C6  UNL     1      53.017   1.946  16.503  1.00  0.00     0.682 A 
HETATM    2  N4  UNL     1      52.901   0.860  17.314  1.00  0.00    -0.174 N 
ATOM      3  H4  UNL     1      52.354   0.817  18.174  1.00  0.00     0.186 HD
HETATM    4  C7  UNL     1      53.619  -0.138  16.802  1.00  0.00     0.167 A 
HETATM    5  N5  UNL     1      53.873  -1.402  17.155  1.00  0.00    -0.173 N 
ATOM      6  H5  UNL     1      53.454  -1.767  18.009  1.00  0.00     0.186 HD
HETATM    7  C8  UNL     1      54.663  -2.211  16.420  1.00  0.00     0.684 A 
HETATM    8  N11 UNL     1      55.221  -1.709  15.274  1.00  0.00    -0.175 N 
ATOM      9  H11 UNL     1      55.823  -2.301  14.701  1.00  0.00     0.186 HD
HETATM   10  C15 UNL     1      54.984  -0.464  14.908  1.00  0.00     0.146 A 
HETATM   11  N12 UNL     1      55.513  -0.001  13.821  1.00  0.00    -0.383 N 
ATOM     12 1H12 UNL     1      55.330   0.963  13.538  1.00  0.00     0.157 HD
ATOM     13 2H12 UNL     1      56.110  -0.615  13.269  1.00  0.00     0.157 HD
HETATM   14  C16 UNL     1      54.181   0.363  15.652  1.00  0.00     0.138 A 
HETATM   15  N13 UNL     1      53.803   1.646  15.478  1.00  0.00    -0.184 N 
ATOM     16  H13 UNL     1      54.068   2.263  14.710  1.00  0.00     0.184 HD
ENDROOT
BRANCH   7  17
HETATM   17  N6  UNL     1      54.946  -3.550  16.725  1.00  0.00    -0.200 N 
HETATM   18  C9  UNL     1      56.251  -4.170  16.713  1.00  0.00     0.163 C 
HETATM   19  C10 UNL     1      56.147  -5.014  17.989  1.00  0.00     0.148 C 
HETATM   20  N7  UNL     1      54.742  -5.298  18.138  1.00  0.00    -0.332 N 
HETATM   21  C11 UNL     1      54.171  -6.132  19.124  1.00  0.00     0.238 C 
HETATM   22  C14 UNL     1      54.027  -4.575  17.111  1.00  0.00     0.270 C 
HETATM   23  O2  UNL     1      52.940  -6.330  19.143  1.00  0.00    -0.271 OA
BRANCH  21  24
HETATM   24  C12 UNL     1      55.045  -6.763  20.125  1.00  0.00     0.227 C 
BRANCH  24  25
HETATM   25  N8  UNL     1      55.214  -5.953  21.285  1.00  0.00    -0.333 N 
HETATM   26  C13 UNL     1      55.801  -6.471  22.462  1.00  0.00     0.334 C 
HETATM   27  O3  UNL     1      56.185  -7.681  22.487  1.00  0.00    -0.246 OA
HETATM   28  N9  UNL     1      55.984  -5.696  23.631  1.00  0.00    -0.258 N 
ATOM     29  H9  UNL     1      55.673  -4.725  23.639  1.00  0.00     0.191 HD
ATOM     30  H8  UNL     1      54.906  -4.981  21.266  1.00  0.00     0.164 HD
BRANCH  28  31
HETATM   31  N10 UNL     1      56.577  -6.226  24.768  1.00  0.00    -0.341 N 
ATOM     32 2H10 UNL     1      57.558  -6.011  24.943  1.00  0.00     0.177 HD
ATOM     33 1H10 UNL     1      56.055  -6.815  25.417  1.00  0.00     0.177 HD
ENDBRANCH  28  31
ENDBRANCH  24  25
ENDBRANCH  21  24
ENDBRANCH   7  17
BRANCH   1  34
HETATM   34  N3  UNL     1      52.421   3.060  16.762  1.00  0.00    -0.200 N 
ATOM     35  H3  UNL     1      51.491   3.014  17.179  1.00  0.00     0.180 HD
BRANCH  34  36
HETATM   36  C5  UNL     1      52.966   4.348  16.508  1.00  0.00     0.235 C 
BRANCH  36  37
HETATM   37  C4  UNL     1      53.693   4.853  17.705  1.00  0.00     0.060 C 
BRANCH  37  38
HETATM   38  C3  UNL     1      55.142   5.098  17.575  1.00  0.00     0.062 C 
BRANCH  38  39
HETATM   39  C2  UNL     1      55.991   3.884  17.330  1.00  0.00     0.018 A 
HETATM   40  N2  UNL     1      56.589   3.660  16.175  1.00  0.00    -0.340 N 
HETATM   41  C1  UNL     1      57.327   2.563  16.045  1.00  0.00     0.142 A 
ATOM     42  H2  UNL     1      56.486   4.314  15.399  1.00  0.00     0.167 HD
HETATM   43  S1  UNL     1      57.196   1.814  17.565  1.00  0.00    -0.064 SA
HETATM   44  C17 UNL     1      56.179   2.959  18.320  1.00  0.00     0.078 A 
BRANCH  41  45
HETATM   45  N1  UNL     1      57.994   2.188  14.970  1.00  0.00    -0.380 N 
ATOM     46  H12 UNL     1      57.776   2.324  13.982  1.00  0.00     0.158 HD
ATOM     47  H11 UNL     1      58.874   1.671  14.950  1.00  0.00     0.158 HD
ENDBRANCH  41  45
ENDBRANCH  38  39
ENDBRANCH  37  38
ENDBRANCH  36  37
BRANCH  36  48
HETATM   48  O1  UNL     1      53.623   4.486  15.307  1.00  0.00    -0.376 OA
ATOM     49  H1  UNL     1      53.859   5.374  15.067  1.00  0.00     0.212 HD
ENDBRANCH  36  48
ENDBRANCH  34  36
ENDBRANCH   1  34
TORSDOF 11
ENDMDL
MODEL 3
REMARK VINA RESULT: -6.829855926      3.069      3.854
REMARK  11 active torsions:
REMARK  status: ('A' for Active; 'I' for Inactive)
REMARK    1  A    between atoms: N1_1  and  C1_4 
REMARK    2  A    between atoms: C2_7  and  C3_8 
REMARK    3  A    between atoms: C3_8  and  C4_9 
REMARK    4  A    between atoms: C4_9  and  C5_10 
REMARK    5  A    between atoms: C5_10  and  O1_11 
REMARK    6  A    between atoms: C5_10  and  N3_13 
REMARK    7  A    between atoms: N3_13  and  C6_15 
REMARK    8  A    between atoms: C8_21  and  N6_22 
REMARK       I    between atoms: N7_25  and  C11_26 
REMARK    9  A    between atoms: C11_26  and  C12_28 
REMARK   10  A    between atoms: C12_28  and  N8_29 
REMARK       I    between atoms: N8_29  and  C13_31 
REMARK       I    between atoms: C13_31  and  N9_33 
REMARK   11  A    between atoms: N9_33  and  N10_35 
ROOT
HETATM    1  C6  UNL     1      55.443  -4.085  18.873  1.00  0.00     0.682 A 
HETATM    2  N4  UNL     1      54.417  -3.437  18.257  1.00  0.00    -0.174 N 
ATOM      3  H4  UNL     1      53.464  -3.787  18.166  1.00  0.00     0.186 HD
HETATM    4  C7  UNL     1      54.862  -2.270  17.794  1.00  0.00     0.167 A 
HETATM    5  N5  UNL     1      54.321  -1.247  17.126  1.00  0.00    -0.173 N 
ATOM      6  H5  UNL     1      53.335  -1.293  16.870  1.00  0.00     0.186 HD
HETATM    7  C8  UNL     1      55.033  -0.156  16.777  1.00  0.00     0.684 A 
HETATM    8  N11 UNL     1      56.357  -0.105  17.125  1.00  0.00    -0.175 N 
ATOM      9  H11 UNL     1      56.917   0.709  16.872  1.00  0.00     0.186 HD
HETATM   10  C15 UNL     1      56.911  -1.105  17.784  1.00  0.00     0.146 A 
HETATM   11  N12 UNL     1      58.162  -1.044  18.111  1.00  0.00    -0.383 N 
ATOM     12 1H12 UNL     1      58.590  -1.817  18.622  1.00  0.00     0.157 HD
ATOM     13 2H12 UNL     1      58.697  -0.218  17.846  1.00  0.00     0.157 HD
HETATM   14  C16 UNL     1      56.191  -2.216  18.141  1.00  0.00     0.138 A 
HETATM   15  N13 UNL     1      56.537  -3.338  18.805  1.00  0.00    -0.184 N 
ATOM     16  H13 UNL     1      57.457  -3.567  19.181  1.00  0.00     0.184 HD
ENDROOT
BRANCH   7  17
HETATM   17  N6  UNL     1      54.516   0.957  16.098  1.00  0.00    -0.200 N 
HETATM   18  C9  UNL     1      55.031   1.523  14.872  1.00  0.00     0.163 C 
HETATM   19  C10 UNL     1      53.711   1.805  14.144  1.00  0.00     0.148 C 
HETATM   20  N7  UNL     1      52.743   2.019  15.191  1.00  0.00    -0.332 N 
HETATM   21  C11 UNL     1      51.399   2.408  15.001  1.00  0.00     0.238 C 
HETATM   22  C14 UNL     1      53.387   1.758  16.457  1.00  0.00     0.270 C 
HETATM   23  O2  UNL     1      50.655   2.592  15.985  1.00  0.00    -0.271 OA
BRANCH  21  24
HETATM   24  C12 UNL     1      50.890   2.594  13.633  1.00  0.00     0.227 C 
BRANCH  24  25
HETATM   25  N8  UNL     1      50.142   3.798  13.492  1.00  0.00    -0.333 N 
HETATM   26  C13 UNL     1      50.772   5.018  13.162  1.00  0.00     0.334 C 
HETATM   27  O3  UNL     1      52.030   5.044  12.987  1.00  0.00    -0.246 OA
HETATM   28  N9  UNL     1      50.061   6.232  13.014  1.00  0.00    -0.258 N 
ATOM     29  H9  UNL     1      49.052   6.239  13.160  1.00  0.00     0.191 HD
ATOM     30  H8  UNL     1      49.131   3.778  13.632  1.00  0.00     0.164 HD
BRANCH  28  31
HETATM   31  N10 UNL     1      50.704   7.413  12.675  1.00  0.00    -0.341 N 
ATOM     32 2H10 UNL     1      51.416   7.774  13.310  1.00  0.00     0.177 HD
ATOM     33 1H10 UNL     1      50.479   7.917  11.817  1.00  0.00     0.177 HD
ENDBRANCH  28  31
ENDBRANCH  24  25
ENDBRANCH  21  24
ENDBRANCH   7  17
BRANCH   1  34
HETATM   34  N3  UNL     1      55.293  -5.245  19.415  1.00  0.00    -0.200 N 
ATOM     35  H3  UNL     1      55.676  -6.051  18.921  1.00  0.00     0.180 HD
BRANCH  34  36
HETATM   36  C5  UNL     1      54.633  -5.483  20.650  1.00  0.00     0.235 C 
BRANCH  36  37
HETATM   37  C4  UNL     1      55.576  -6.065  21.644  1.00  0.00     0.060 C 
BRANCH  37  38
HETATM   38  C3  UNL     1      55.028  -6.998  22.647  1.00  0.00     0.062 C 
BRANCH  38  39
HETATM   39  C2  UNL     1      55.378  -6.701  24.076  1.00  0.00     0.018 A 
HETATM   40  N2  UNL     1      56.313  -5.831  24.410  1.00  0.00    -0.340 N 
HETATM   41  C1  UNL     1      56.554  -5.624  25.701  1.00  0.00     0.142 A 
ATOM     42  H2  UNL     1      56.839  -5.331  23.695  1.00  0.00     0.167 HD
HETATM   43  S1  UNL     1      55.455  -6.660  26.481  1.00  0.00    -0.064 SA
HETATM   44  C17 UNL     1      54.717  -7.330  25.095  1.00  0.00     0.078 A 
BRANCH  41  45
HETATM   45  N1  UNL     1      57.444  -4.794  26.210  1.00  0.00    -0.380 N 
ATOM     46  H12 UNL     1      57.341  -4.087  26.938  1.00  0.00     0.158 HD
ATOM     47  H11 UNL     1      58.426  -4.717  25.941  1.00  0.00     0.158 HD
ENDBRANCH  41  45
ENDBRANCH  38  39
ENDBRANCH  37  38
ENDBRANCH  36  37
BRANCH  36  48
HETATM   48  O1  UNL     1      53.845  -4.451  21.108  1.00  0.00    -0.376 OA
ATOM     49  H1  UNL     1      52.958  -4.429  20.770  1.00  0.00     0.212 HD
ENDBRANCH  36  48
ENDBRANCH  34  36
ENDBRANCH   1  34
TORSDOF 11
ENDMDL
MODEL 4
REMARK VINA RESULT: -6.635003845      5.096     10.129
REMARK  11 active torsions:
REMARK  status: ('A' for Active; 'I' for Inactive)
REMARK    1  A    between atoms: N1_1  and  C1_4 
REMARK    2  A    between atoms: C2_7  and  C3_8 
REMARK    3  A    between atoms: C3_8  and  C4_9 
REMARK    4  A    between atoms: C4_9  and  C5_10 
REMARK    5  A    between atoms: C5_10  and  O1_11 
REMARK    6  A    between atoms: C5_10  and  N3_13 
REMARK    7  A    between atoms: N3_13  and  C6_15 
REMARK    8  A    between atoms: C8_21  and  N6_22 
REMARK       I    between atoms: N7_25  and  C11_26 
REMARK    9  A    between atoms: C11_26  and  C12_28 
REMARK   10  A    between atoms: C12_28  and  N8_29 
REMARK       I    between atoms: N8_29  and  C13_31 
REMARK       I    between atoms: C13_31  and  N9_33 
REMARK   11  A    between atoms: N9_33  and  N10_35 
ROOT
HETATM    1  C6  UNL     1      52.922   3.466  17.736  1.00  0.00     0.682 A 
HETATM    2  N4  UNL     1      52.525   2.232  18.150  1.00  0.00    -0.174 N 
ATOM      3  H4  UNL     1      52.528   1.901  19.115  1.00  0.00     0.186 HD
HETATM    4  C7  UNL     1      52.132   1.529  17.090  1.00  0.00     0.167 A 
HETATM    5  N5  UNL     1      51.656   0.295  16.894  1.00  0.00    -0.173 N 
ATOM      6  H5  UNL     1      51.536  -0.320  17.699  1.00  0.00     0.186 HD
HETATM    7  C8  UNL     1      51.328  -0.165  15.669  1.00  0.00     0.684 A 
HETATM    8  N11 UNL     1      51.493   0.668  14.595  1.00  0.00    -0.175 N 
ATOM      9  H11 UNL     1      51.253   0.343  13.659  1.00  0.00     0.186 HD
HETATM   10  C15 UNL     1      51.962   1.890  14.767  1.00  0.00     0.146 A 
HETATM   11  N12 UNL     1      52.110   2.671  13.745  1.00  0.00    -0.383 N 
ATOM     12 1H12 UNL     1      52.473   3.616  13.878  1.00  0.00     0.157 HD
ATOM     13 2H12 UNL     1      51.862   2.319  12.821  1.00  0.00     0.157 HD
HETATM   14  C16 UNL     1      52.296   2.363  16.010  1.00  0.00     0.138 A 
HETATM   15  N13 UNL     1      52.783   3.553  16.420  1.00  0.00    -0.184 N 
ATOM     16  H13 UNL     1      53.001   4.358  15.834  1.00  0.00     0.184 HD
ENDROOT
BRANCH   7  17
HETATM   17  N6  UNL     1      50.803  -1.439  15.405  1.00  0.00    -0.200 N 
HETATM   18  C9  UNL     1      51.194  -2.315  14.324  1.00  0.00     0.163 C 
HETATM   19  C10 UNL     1      51.221  -3.652  15.072  1.00  0.00     0.148 C 
HETATM   20  N7  UNL     1      50.267  -3.503  16.142  1.00  0.00    -0.332 N 
HETATM   21  C11 UNL     1      49.878  -4.517  17.045  1.00  0.00     0.238 C 
HETATM   22  C14 UNL     1      49.791  -2.139  16.132  1.00  0.00     0.270 C 
HETATM   23  O2  UNL     1      49.019  -4.284  17.919  1.00  0.00    -0.271 OA
BRANCH  21  24
HETATM   24  C12 UNL     1      50.496  -5.848  16.940  1.00  0.00     0.227 C 
BRANCH  24  25
HETATM   25  N8  UNL     1      51.743  -5.922  17.625  1.00  0.00    -0.333 N 
HETATM   26  C13 UNL     1      51.947  -6.838  18.681  1.00  0.00     0.334 C 
HETATM   27  O3  UNL     1      51.001  -7.611  19.029  1.00  0.00    -0.246 OA
HETATM   28  N9  UNL     1      53.171  -6.939  19.383  1.00  0.00    -0.258 N 
ATOM     29  H9  UNL     1      53.943  -6.321  19.130  1.00  0.00     0.191 HD
ATOM     30  H8  UNL     1      52.504  -5.302  17.347  1.00  0.00     0.164 HD
BRANCH  28  31
HETATM   31  N10 UNL     1      53.348  -7.857  20.406  1.00  0.00    -0.341 N 
ATOM     32 2H10 UNL     1      52.848  -7.704  21.282  1.00  0.00     0.177 HD
ATOM     33 1H10 UNL     1      53.960  -8.666  20.299  1.00  0.00     0.177 HD
ENDBRANCH  28  31
ENDBRANCH  24  25
ENDBRANCH  21  24
ENDBRANCH   7  17
BRANCH   1  34
HETATM   34  N3  UNL     1      53.355   4.358  18.560  1.00  0.00    -0.200 N 
ATOM     35  H3  UNL     1      52.691   4.743  19.232  1.00  0.00     0.180 HD
BRANCH  34  36
HETATM   36  C5  UNL     1      54.689   4.844  18.600  1.00  0.00     0.235 C 
BRANCH  36  37
HETATM   37  C4  UNL     1      55.626   3.769  19.026  1.00  0.00     0.060 C 
BRANCH  37  38
HETATM   38  C3  UNL     1      56.719   3.404  18.105  1.00  0.00     0.062 C 
BRANCH  38  39
HETATM   39  C2  UNL     1      56.331   2.541  16.940  1.00  0.00     0.018 A 
HETATM   40  N2  UNL     1      56.239   3.012  15.710  1.00  0.00    -0.340 N 
HETATM   41  C1  UNL     1      55.896   2.176  14.736  1.00  0.00     0.142 A 
ATOM     42  H2  UNL     1      56.428   3.994  15.512  1.00  0.00     0.167 HD
HETATM   43  S1  UNL     1      55.693   0.692  15.538  1.00  0.00    -0.064 SA
HETATM   44  C17 UNL     1      56.063   1.213  17.122  1.00  0.00     0.078 A 
BRANCH  41  45
HETATM   45  N1  UNL     1      55.762   2.474  13.457  1.00  0.00    -0.380 N 
ATOM     46  H12 UNL     1      56.373   3.010  12.841  1.00  0.00     0.158 HD
ATOM     47  H11 UNL     1      54.986   2.208  12.849  1.00  0.00     0.158 HD
ENDBRANCH  41  45
ENDBRANCH  38  39
ENDBRANCH  37  38
ENDBRANCH  36  37
BRANCH  36  48
HETATM   48  O1  UNL     1      55.084   5.580  17.506  1.00  0.00    -0.376 OA
ATOM     49  H1  UNL     1      55.360   6.471  17.687  1.00  0.00     0.212 HD
ENDBRANCH  36  48
ENDBRANCH  34  36
ENDBRANCH   1  34
TORSDOF 11
ENDMDL
MODEL 5
REMARK VINA RESULT: -6.574889027      7.055      9.210
REMARK  11 active torsions:
REMARK  status: ('A' for Active; 'I' for Inactive)
REMARK    1  A    between atoms: N1_1  and  C1_4 
REMARK    2  A    between atoms: C2_7  and  C3_8 
REMARK    3  A    between atoms: C3_8  and  C4_9 
REMARK    4  A    between atoms: C4_9  and  C5_10 
REMARK    5  A    between atoms: C5_10  and  O1_11 
REMARK    6  A    between atoms: C5_10  and  N3_13 
REMARK    7  A    between atoms: N3_13  and  C6_15 
REMARK    8  A    between atoms: C8_21  and  N6_22 
REMARK       I    between atoms: N7_25  and  C11_26 
REMARK    9  A    between atoms: C11_26  and  C12_28 
REMARK   10  A    between atoms: C12_28  and  N8_29 
REMARK       I    between atoms: N8_29  and  C13_31 
REMARK       I    between atoms: C13_31  and  N9_33 
REMARK   11  A    between atoms: N9_33  and  N10_35 
ROOT
HETATM    1  C6  UNL     1      55.546   0.570  15.811  1.00  0.00     0.682 A 
HETATM    2  N4  UNL     1      55.320   1.354  14.722  1.00  0.00    -0.174 N 
ATOM      3  H4  UNL     1      56.033   1.691  14.076  1.00  0.00     0.186 HD
HETATM    4  C7  UNL     1      54.016   1.610  14.640  1.00  0.00     0.167 A 
HETATM    5  N5  UNL     1      53.237   2.304  13.804  1.00  0.00    -0.173 N 
ATOM      6  H5  UNL     1      53.668   2.785  13.015  1.00  0.00     0.186 HD
HETATM    7  C8  UNL     1      51.901   2.393  13.969  1.00  0.00     0.684 A 
HETATM    8  N11 UNL     1      51.333   1.745  15.034  1.00  0.00    -0.175 N 
ATOM      9  H11 UNL     1      50.325   1.797  15.181  1.00  0.00     0.186 HD
HETATM   10  C15 UNL     1      52.084   1.054  15.871  1.00  0.00     0.146 A 
HETATM   11  N12 UNL     1      51.537   0.442  16.871  1.00  0.00    -0.383 N 
ATOM     12 1H12 UNL     1      52.117  -0.092  17.518  1.00  0.00     0.157 HD
ATOM     13 2H12 UNL     1      50.527   0.512  16.993  1.00  0.00     0.157 HD
HETATM   14  C16 UNL     1      53.443   0.961  15.707  1.00  0.00     0.138 A 
HETATM   15  N13 UNL     1      54.394   0.324  16.421  1.00  0.00    -0.184 N 
ATOM     16  H13 UNL     1      54.255  -0.236  17.261  1.00  0.00     0.184 HD
ENDROOT
BRANCH   7  17
HETATM   17  N6  UNL     1      51.031   3.085  13.115  1.00  0.00    -0.200 N 
HETATM   18  C9  UNL     1      49.735   3.619  13.467  1.00  0.00     0.163 C 
HETATM   19  C10 UNL     1      49.807   4.969  12.744  1.00  0.00     0.148 C 
HETATM   20  N7  UNL     1      50.695   4.751  11.630  1.00  0.00    -0.332 N 
HETATM   21  C11 UNL     1      50.992   5.691  10.618  1.00  0.00     0.238 C 
HETATM   22  C14 UNL     1      51.231   3.413  11.738  1.00  0.00     0.270 C 
HETATM   23  O2  UNL     1      51.758   5.384   9.682  1.00  0.00    -0.271 OA
BRANCH  21  24
HETATM   24  C12 UNL     1      50.389   7.031  10.682  1.00  0.00     0.227 C 
BRANCH  24  25
HETATM   25  N8  UNL     1      51.309   8.058  10.324  1.00  0.00    -0.333 N 
HETATM   26  C13 UNL     1      52.099   8.708  11.299  1.00  0.00     0.334 C 
HETATM   27  O3  UNL     1      51.987   8.371  12.519  1.00  0.00    -0.246 OA
HETATM   28  N9  UNL     1      53.021   9.731  10.980  1.00  0.00    -0.258 N 
ATOM     29  H9  UNL     1      53.121  10.028  10.009  1.00  0.00     0.191 HD
ATOM     30  H8  UNL     1      51.399   8.330   9.345  1.00  0.00     0.164 HD
BRANCH  28  31
HETATM   31  N10 UNL     1      53.794  10.343  11.956  1.00  0.00    -0.341 N 
ATOM     32 2H10 UNL     1      54.807  10.357  11.829  1.00  0.00     0.177 HD
ATOM     33 1H10 UNL     1      53.374  10.769  12.781  1.00  0.00     0.177 HD
ENDBRANCH  28  31
ENDBRANCH  24  25
ENDBRANCH  21  24
ENDBRANCH   7  17
BRANCH   1  34
HETATM   34  N3  UNL     1      56.728   0.169  16.132  1.00  0.00    -0.200 N 
ATOM     35  H3  UNL     1      56.967  -0.804  15.937  1.00  0.00     0.180 HD
BRANCH  34  36
HETATM   36  C5  UNL     1      57.723   0.982  16.739  1.00  0.00     0.235 C 
BRANCH  36  37
HETATM   37  C4  UNL     1      57.133   1.802  17.832  1.00  0.00     0.060 C 
BRANCH  37  38
HETATM   38  C3  UNL     1      56.970   3.248  17.595  1.00  0.00     0.062 C 
BRANCH  38  39
HETATM   39  C2  UNL     1      55.658   3.838  18.026  1.00  0.00     0.018 A 
HETATM   40  N2  UNL     1      55.331   3.981  19.297  1.00  0.00    -0.340 N 
HETATM   41  C1  UNL     1      54.152   4.519  19.591  1.00  0.00     0.142 A 
ATOM     42  H2  UNL     1      55.968   3.686  20.036  1.00  0.00     0.167 HD
HETATM   43  S1  UNL     1      53.471   4.840  18.068  1.00  0.00    -0.064 SA
HETATM   44  C17 UNL     1      54.749   4.259  17.096  1.00  0.00     0.078 A 
BRANCH  41  45
HETATM   45  N1  UNL     1      53.668   4.738  20.799  1.00  0.00    -0.380 N 
ATOM     46  H12 UNL     1      54.155   4.926  21.677  1.00  0.00     0.158 HD
ATOM     47  H11 UNL     1      52.683   4.752  21.066  1.00  0.00     0.158 HD
ENDBRANCH  41  45
ENDBRANCH  38  39
ENDBRANCH  37  38
ENDBRANCH  36  37
BRANCH  36  48
HETATM   48  O1  UNL     1      58.904   0.344  17.042  1.00  0.00    -0.376 OA
ATOM     49  H1  UNL     1      59.303   0.587  17.868  1.00  0.00     0.212 HD
ENDBRANCH  36  48
ENDBRANCH  34  36
ENDBRANCH   1  34
TORSDOF 11
ENDMDL
