MODEL 1
REMARK VINA RESULT: -6.460248360      0.000      0.000
REMARK  15 active torsions:
REMARK  status: ('A' for Active; 'I' for Inactive)
REMARK    1  A    between atoms: C2_2  and  C4_4 
REMARK    2  A    between atoms: C4_4  and  C5_5 
REMARK    3  A    between atoms: C5_5  and  N1_6 
REMARK    4  A    between atoms: C5_5  and  C19_43 
REMARK    5  A    between atoms: N1_6  and  C6_8 
REMARK    6  A    between atoms: C7_11  and  N3_12 
REMARK    7  A    between atoms: N3_12  and  C8_14 
REMARK    8  A    between atoms: C10_18  and  C11_19 
REMARK    9  A    between atoms: C11_19  and  N5_20 
REMARK   10  A    between atoms: C11_19  and  O1_23 
REMARK   11  A    between atoms: C12_25  and  N6_26 
REMARK   12  A    between atoms: C18_37  and  N9_38 
REMARK   13  A    between atoms: C19_43  and  O2_44 
REMARK   14  A    between atoms: C19_43  and  N11_46 
REMARK       I    between atoms: N11_46  and  C20_47 
REMARK       I    between atoms: C20_47  and  N12_48 
REMARK       I    between atoms: C20_47  and  N13_52 
REMARK   15  A    between atoms: N13_52  and  N14_53 
ROOT
HETATM    1  C6  UNL     1      56.258   1.993  15.799  1.00  0.00     0.681 A 
HETATM    2  N2  UNL     1      55.977   0.733  16.166  1.00  0.00    -0.177 N 
ATOM      3  H2  UNL     1      55.950   0.561  17.171  1.00  0.00     0.186 HD
HETATM    4  C7  UNL     1      55.726  -0.333  15.383  1.00  0.00     0.126 A 
HETATM    5  C17 UNL     1      55.764  -0.050  14.034  1.00  0.00     0.097 A 
HETATM    6  C18 UNL     1      56.060   1.271  13.588  1.00  0.00     0.118 A 
HETATM    7  N10 UNL     1      56.304   2.245  14.444  1.00  0.00    -0.177 N 
ATOM      8  H10 UNL     1      56.525   3.181  14.105  1.00  0.00     0.185 HD
ENDROOT
BRANCH   4   9
HETATM    9  N3  UNL     1      55.428  -1.578  15.905  1.00  0.00    -0.327 N 
ATOM     10  H3  UNL     1      56.290  -2.054  16.169  1.00  0.00     0.169 HD
BRANCH   9  11
HETATM   11  C8  UNL     1      54.458  -2.305  16.156  1.00  0.00     0.123 A 
HETATM   12  C9  UNL     1      54.445  -3.491  16.818  1.00  0.00     0.137 A 
HETATM   13  N4  UNL     1      53.319  -4.237  16.931  1.00  0.00    -0.356 N 
HETATM   14  C10 UNL     1      52.169  -3.857  16.396  1.00  0.00     0.127 A 
ATOM     15  H4  UNL     1      53.359  -5.119  17.442  1.00  0.00     0.165 HD
HETATM   16  C12 UNL     1      52.136  -2.629  15.710  1.00  0.00     0.136 A 
HETATM   17  N8  UNL     1      53.222  -1.857  15.583  1.00  0.00    -0.326 N 
ATOM     18  H8  UNL     1      53.171  -0.966  15.089  1.00  0.00     0.169 HD
BRANCH  14  19
HETATM   19  C11 UNL     1      51.051  -4.685  16.411  1.00  0.00     0.165 C 
BRANCH  19  20
HETATM   20  N5  UNL     1      50.380  -5.547  15.586  1.00  0.00    -0.378 N 
ATOM     21  H52 UNL     1      49.579  -5.018  15.241  1.00  0.00     0.158 HD
ATOM     22  H51 UNL     1      50.452  -6.503  15.235  1.00  0.00     0.158 HD
ENDBRANCH  19  20
BRANCH  19  23
HETATM   23  O1  UNL     1      50.324  -4.682  17.605  1.00  0.00    -0.345 OA
ATOM     24  H1  UNL     1      49.816  -3.896  17.768  1.00  0.00     0.219 HD
ENDBRANCH  19  23
ENDBRANCH  14  19
BRANCH  16  25
HETATM   25  N6  UNL     1      50.905  -2.198  15.104  1.00  0.00    -0.362 N 
HETATM   26  C13 UNL     1      50.576  -2.525  13.729  1.00  0.00     0.152 C 
HETATM   27  C14 UNL     1      49.109  -2.188  13.489  1.00  0.00     0.252 C 
HETATM   28  N7  UNL     1      48.308  -2.782  14.515  1.00  0.00    -0.072 N 
HETATM   29  C15 UNL     1      48.579  -2.174  15.820  1.00  0.00     0.252 C 
ATOM     30  H72 UNL     1      47.315  -2.747  14.284  1.00  0.00     0.277 HD
ATOM     31  H71 UNL     1      48.425  -3.795  14.543  1.00  0.00     0.277 HD
HETATM   32  C16 UNL     1      49.904  -1.426  15.821  1.00  0.00     0.152 C 
ENDBRANCH  16  25
ENDBRANCH   9  11
ENDBRANCH   4   9
BRANCH   1  33
HETATM   33  N1  UNL     1      56.320   2.804  16.722  1.00  0.00    -0.213 N 
ATOM     34  H1  UNL     1      56.847   3.606  16.375  1.00  0.00     0.178 HD
BRANCH  33  35
HETATM   35  C5  UNL     1      55.968   3.095  18.061  1.00  0.00     0.189 C 
BRANCH  35  36
HETATM   36  C4  UNL     1      55.592   4.500  18.182  1.00  0.00     0.039 C 
BRANCH  36  37
HETATM   37  C2  UNL     1      54.404   5.085  18.783  1.00  0.00    -0.020 C 
HETATM   38  C1  UNL     1      53.990   4.635  20.123  1.00  0.00     0.009 C 
HETATM   39  C3  UNL     1      53.200   5.159  17.878  1.00  0.00     0.009 C 
ENDBRANCH  36  37
ENDBRANCH  35  36
BRANCH  35  40
HETATM   40  C19 UNL     1      57.170   2.631  18.871  1.00  0.00     0.211 C 
BRANCH  40  41
HETATM   41  O2  UNL     1      57.747   3.631  19.483  1.00  0.00    -0.338 OA
ATOM     42  H2  UNL     1      57.490   3.674  20.397  1.00  0.00     0.220 HD
ENDBRANCH  40  41
BRANCH  40  43
HETATM   43  N11 UNL     1      57.605   1.337  18.942  1.00  0.00    -0.375 NA
HETATM   44  C20 UNL     1      58.048   0.044  19.013  1.00  0.00     0.474 C 
HETATM   45  N12 UNL     1      58.459  -0.357  20.395  1.00  0.00    -0.031 N 
HETATM   46  N13 UNL     1      57.012  -0.901  18.634  1.00  0.00    -0.081 NA
ATOM     47 3H12 UNL     1      59.155   0.288  20.770  1.00  0.00     0.279 HD
ATOM     48 2H12 UNL     1      57.704  -0.193  21.061  1.00  0.00     0.279 HD
ATOM     49 1H12 UNL     1      58.789  -1.321  20.448  1.00  0.00     0.279 HD
BRANCH  46  50
HETATM   50  N14 UNL     1      57.447  -2.227  18.857  1.00  0.00    -0.344 N 
ATOM     51 2H14 UNL     1      57.740  -2.863  18.115  1.00  0.00     0.172 HD
ATOM     52 1H14 UNL     1      57.423  -2.447  19.853  1.00  0.00     0.172 HD
ENDBRANCH  46  50
ENDBRANCH  40  43
ENDBRANCH  35  40
ENDBRANCH  33  35
ENDBRANCH   1  33
BRANCH   6  53
HETATM   53  N9  UNL     1      56.084   1.423  12.300  1.00  0.00    -0.385 N 
ATOM     54  H92 UNL     1      56.471   0.733  11.656  1.00  0.00     0.157 HD
ATOM     55  H91 UNL     1      55.671   2.291  11.960  1.00  0.00     0.157 HD
ENDBRANCH   6  53
TORSDOF 15
ENDMDL
MODEL 2
REMARK VINA RESULT: -6.124751219      2.719      4.383
REMARK  15 active torsions:
REMARK  status: ('A' for Active; 'I' for Inactive)
REMARK    1  A    between atoms: C2_2  and  C4_4 
REMARK    2  A    between atoms: C4_4  and  C5_5 
REMARK    3  A    between atoms: C5_5  and  N1_6 
REMARK    4  A    between atoms: C5_5  and  C19_43 
REMARK    5  A    between atoms: N1_6  and  C6_8 
REMARK    6  A    between atoms: C7_11  and  N3_12 
REMARK    7  A    between atoms: N3_12  and  C8_14 
REMARK    8  A    between atoms: C10_18  and  C11_19 
REMARK    9  A    between atoms: C11_19  and  N5_20 
REMARK   10  A    between atoms: C11_19  and  O1_23 
REMARK   11  A    between atoms: C12_25  and  N6_26 
REMARK   12  A    between atoms: C18_37  and  N9_38 
REMARK   13  A    between atoms: C19_43  and  O2_44 
REMARK   14  A    between atoms: C19_43  and  N11_46 
REMARK       I    between atoms: N11_46  and  C20_47 
REMARK       I    between atoms: C20_47  and  N12_48 
REMARK       I    between atoms: C20_47  and  N13_52 
REMARK   15  A    between atoms: N13_52  and  N14_53 
ROOT
HETATM    1  C6  UNL     1      55.007   2.929  16.336  1.00  0.00     0.681 A 
HETATM    2  N2  UNL     1      55.397   1.652  16.479  1.00  0.00    -0.177 N 
ATOM      3  H2  UNL     1      54.688   1.011  16.836  1.00  0.00     0.186 HD
HETATM    4  C7  UNL     1      56.599   1.107  16.215  1.00  0.00     0.126 A 
HETATM    5  C17 UNL     1      57.521   2.008  15.727  1.00  0.00     0.097 A 
HETATM    6  C18 UNL     1      57.162   3.378  15.556  1.00  0.00     0.118 A 
HETATM    7  N10 UNL     1      55.954   3.812  15.859  1.00  0.00    -0.177 N 
ATOM      8  H10 UNL     1      55.719   4.797  15.740  1.00  0.00     0.185 HD
ENDROOT
BRANCH   4   9
HETATM    9  N3  UNL     1      56.853  -0.240  16.394  1.00  0.00    -0.327 N 
ATOM     10  H3  UNL     1      57.640  -0.521  15.809  1.00  0.00     0.169 HD
BRANCH   9  11
HETATM   11  C8  UNL     1      56.439  -1.218  17.032  1.00  0.00     0.123 A 
HETATM   12  C9  UNL     1      56.862  -1.674  18.239  1.00  0.00     0.137 A 
HETATM   13  N4  UNL     1      56.389  -2.825  18.776  1.00  0.00    -0.356 N 
HETATM   14  C10 UNL     1      55.493  -3.575  18.153  1.00  0.00     0.127 A 
ATOM     15  H4  UNL     1      56.734  -3.124  19.688  1.00  0.00     0.165 HD
HETATM   16  C12 UNL     1      55.020  -3.132  16.903  1.00  0.00     0.136 A 
HETATM   17  N8  UNL     1      55.453  -1.997  16.341  1.00  0.00    -0.326 N 
ATOM     18  H8  UNL     1      55.089  -1.692  15.438  1.00  0.00     0.169 HD
BRANCH  14  19
HETATM   19  C11 UNL     1      55.105  -4.813  18.652  1.00  0.00     0.165 C 
BRANCH  19  20
HETATM   20  N5  UNL     1      54.080  -5.378  19.362  1.00  0.00    -0.378 N 
ATOM     21  H52 UNL     1      53.397  -4.631  19.484  1.00  0.00     0.158 HD
ATOM     22  H51 UNL     1      53.819  -6.276  19.770  1.00  0.00     0.158 HD
ENDBRANCH  19  20
BRANCH  19  23
HETATM   23  O1  UNL     1      55.996  -5.861  18.401  1.00  0.00    -0.345 OA
ATOM     24  H1  UNL     1      55.639  -6.584  17.900  1.00  0.00     0.219 HD
ENDBRANCH  19  23
ENDBRANCH  14  19
BRANCH  16  25
HETATM   25  N6  UNL     1      54.060  -3.933  16.194  1.00  0.00    -0.362 N 
HETATM   26  C13 UNL     1      52.632  -3.708  16.326  1.00  0.00     0.152 C 
HETATM   27  C14 UNL     1      51.914  -4.504  15.242  1.00  0.00     0.252 C 
HETATM   28  N7  UNL     1      52.508  -4.225  13.971  1.00  0.00    -0.072 N 
HETATM   29  C15 UNL     1      53.880  -4.734  13.902  1.00  0.00     0.252 C 
ATOM     30  H72 UNL     1      51.937  -4.581  13.204  1.00  0.00     0.277 HD
ATOM     31  H71 UNL     1      52.466  -3.231  13.748  1.00  0.00     0.277 HD
HETATM   32  C16 UNL     1      54.443  -5.004  15.289  1.00  0.00     0.152 C 
ENDBRANCH  16  25
ENDBRANCH   9  11
ENDBRANCH   4   9
BRANCH   1  33
HETATM   33  N1  UNL     1      53.810   3.134  16.530  1.00  0.00    -0.213 N 
ATOM     34  H1  UNL     1      53.351   3.078  15.621  1.00  0.00     0.178 HD
BRANCH  33  35
HETATM   35  C5  UNL     1      52.802   3.416  17.481  1.00  0.00     0.189 C 
BRANCH  35  36
HETATM   36  C4  UNL     1      53.398   3.576  18.804  1.00  0.00     0.039 C 
BRANCH  36  37
HETATM   37  C2  UNL     1      54.048   4.740  19.384  1.00  0.00    -0.020 C 
HETATM   38  C1  UNL     1      54.102   5.988  18.603  1.00  0.00     0.009 C 
HETATM   39  C3  UNL     1      55.396   4.475  20.008  1.00  0.00     0.009 C 
ENDBRANCH  36  37
ENDBRANCH  35  36
BRANCH  35  40
HETATM   40  C19 UNL     1      51.801   2.283  17.309  1.00  0.00     0.211 C 
BRANCH  40  41
HETATM   41  O2  UNL     1      50.690   2.526  17.954  1.00  0.00    -0.338 OA
ATOM     42  H2  UNL     1      50.526   1.870  18.622  1.00  0.00     0.220 HD
ENDBRANCH  40  41
BRANCH  40  43
HETATM   43  N11 UNL     1      52.032   1.146  16.586  1.00  0.00    -0.375 NA
HETATM   44  C20 UNL     1      52.260   0.004  15.868  1.00  0.00     0.474 C 
HETATM   45  N12 UNL     1      51.047  -0.477  15.135  1.00  0.00    -0.031 N 
HETATM   46  N13 UNL     1      53.270   0.205  14.843  1.00  0.00    -0.081 NA
ATOM     47 3H12 UNL     1      50.260  -0.599  15.773  1.00  0.00     0.279 HD
ATOM     48 2H12 UNL     1      50.666   0.257  14.540  1.00  0.00     0.279 HD
ATOM     49 1H12 UNL     1      51.218  -1.329  14.600  1.00  0.00     0.279 HD
BRANCH  46  50
HETATM   50  N14 UNL     1      53.379  -0.941  14.024  1.00  0.00    -0.344 N 
ATOM     51 2H14 UNL     1      52.981  -1.850  14.261  1.00  0.00     0.172 HD
ATOM     52 1H14 UNL     1      53.906  -0.726  13.177  1.00  0.00     0.172 HD
ENDBRANCH  46  50
ENDBRANCH  40  43
ENDBRANCH  35  40
ENDBRANCH  33  35
ENDBRANCH   1  33
BRANCH   6  53
HETATM   53  N9  UNL     1      58.108   4.140  15.105  1.00  0.00    -0.385 N 
ATOM     54  H92 UNL     1      58.278   4.306  14.113  1.00  0.00     0.157 HD
ATOM     55  H91 UNL     1      58.680   4.588  15.820  1.00  0.00     0.157 HD
ENDBRANCH   6  53
TORSDOF 15
ENDMDL
MODEL 3
REMARK VINA RESULT: -6.120045705      2.917      3.919
REMARK  15 active torsions:
REMARK  status: ('A' for Active; 'I' for Inactive)
REMARK    1  A    between atoms: C2_2  and  C4_4 
REMARK    2  A    between atoms: C4_4  and  C5_5 
REMARK    3  A    between atoms: C5_5  and  N1_6 
REMARK    4  A    between atoms: C5_5  and  C19_43 
REMARK    5  A    between atoms: N1_6  and  C6_8 
REMARK    6  A    between atoms: C7_11  and  N3_12 
REMARK    7  A    between atoms: N3_12  and  C8_14 
REMARK    8  A    between atoms: C10_18  and  C11_19 
REMARK    9  A    between atoms: C11_19  and  N5_20 
REMARK   10  A    between atoms: C11_19  and  O1_23 
REMARK   11  A    between atoms: C12_25  and  N6_26 
REMARK   12  A    between atoms: C18_37  and  N9_38 
REMARK   13  A    between atoms: C19_43  and  O2_44 
REMARK   14  A    between atoms: C19_43  and  N11_46 
REMARK       I    between atoms: N11_46  and  C20_47 
REMARK       I    between atoms: C20_47  and  N12_48 
REMARK       I    between atoms: C20_47  and  N13_52 
REMARK   15  A    between atoms: N13_52  and  N14_53 
ROOT
HETATM    1  C6  UNL     1      56.243   2.140  15.566  1.00  0.00     0.681 A 
HETATM    2  N2  UNL     1      55.807   0.879  15.712  1.00  0.00    -0.177 N 
ATOM      3  H2  UNL     1      55.782   0.528  16.670  1.00  0.00     0.186 HD
HETATM    4  C7  UNL     1      55.398   0.017  14.763  1.00  0.00     0.126 A 
HETATM    5  C17 UNL     1      55.440   0.538  13.487  1.00  0.00     0.097 A 
HETATM    6  C18 UNL     1      55.898   1.872  13.273  1.00  0.00     0.118 A 
HETATM    7  N10 UNL     1      56.289   2.631  14.279  1.00  0.00    -0.177 N 
ATOM      8  H10 UNL     1      56.624   3.578  14.104  1.00  0.00     0.185 HD
ENDROOT
BRANCH   4   9
HETATM    9  N3  UNL     1      54.951  -1.256  15.064  1.00  0.00    -0.327 N 
ATOM     10  H3  UNL     1      54.631  -1.717  14.213  1.00  0.00     0.169 HD
BRANCH   9  11
HETATM   11  C8  UNL     1      54.812  -2.020  16.028  1.00  0.00     0.123 A 
HETATM   12  C9  UNL     1      54.417  -1.717  17.291  1.00  0.00     0.137 A 
HETATM   13  N4  UNL     1      54.410  -2.641  18.283  1.00  0.00    -0.356 N 
HETATM   14  C10 UNL     1      54.795  -3.892  18.079  1.00  0.00     0.127 A 
ATOM     15  H4  UNL     1      54.099  -2.365  19.214  1.00  0.00     0.165 HD
HETATM   16  C12 UNL     1      55.203  -4.251  16.781  1.00  0.00     0.136 A 
HETATM   17  N8  UNL     1      55.216  -3.372  15.771  1.00  0.00    -0.326 N 
ATOM     18  H8  UNL     1      55.508  -3.659  14.836  1.00  0.00     0.169 HD
BRANCH  14  19
HETATM   19  C11 UNL     1      54.902  -4.800  19.127  1.00  0.00     0.165 C 
BRANCH  19  20
HETATM   20  N5  UNL     1      54.183  -5.808  19.712  1.00  0.00    -0.378 N 
ATOM     21  H52 UNL     1      53.279  -5.799  19.241  1.00  0.00     0.158 HD
ATOM     22  H51 UNL     1      54.290  -6.522  20.433  1.00  0.00     0.158 HD
ENDBRANCH  19  20
BRANCH  19  23
HETATM   23  O1  UNL     1      56.083  -4.713  19.871  1.00  0.00    -0.345 OA
ATOM     24  H1  UNL     1      56.738  -5.369  19.666  1.00  0.00     0.219 HD
ENDBRANCH  19  23
ENDBRANCH  14  19
BRANCH  16  25
HETATM   25  N6  UNL     1      55.643  -5.597  16.533  1.00  0.00    -0.362 N 
HETATM   26  C13 UNL     1      54.710  -6.655  16.194  1.00  0.00     0.152 C 
HETATM   27  C14 UNL     1      55.503  -7.864  15.709  1.00  0.00     0.252 C 
HETATM   28  N7  UNL     1      56.428  -7.455  14.697  1.00  0.00    -0.072 N 
HETATM   29  C15 UNL     1      57.464  -6.578  15.247  1.00  0.00     0.252 C 
ATOM     30  H72 UNL     1      56.833  -8.256  14.214  1.00  0.00     0.277 HD
ATOM     31  H71 UNL     1      55.951  -7.021  13.907  1.00  0.00     0.277 HD
HETATM   32  C16 UNL     1      57.042  -5.990  16.586  1.00  0.00     0.152 C 
ENDBRANCH  16  25
ENDBRANCH   9  11
ENDBRANCH   4   9
BRANCH   1  33
HETATM   33  N1  UNL     1      56.434   2.751  16.617  1.00  0.00    -0.213 N 
ATOM     34  H1  UNL     1      57.252   3.342  16.469  1.00  0.00     0.178 HD
BRANCH  33  35
HETATM   35  C5  UNL     1      55.998   2.980  17.943  1.00  0.00     0.189 C 
BRANCH  35  36
HETATM   36  C4  UNL     1      55.437   4.323  18.056  1.00  0.00     0.039 C 
BRANCH  36  37
HETATM   37  C2  UNL     1      54.463   4.835  19.007  1.00  0.00    -0.020 C 
HETATM   38  C1  UNL     1      53.290   4.009  19.340  1.00  0.00     0.009 C 
HETATM   39  C3  UNL     1      54.029   6.261  18.772  1.00  0.00     0.009 C 
ENDBRANCH  36  37
ENDBRANCH  35  36
BRANCH  35  40
HETATM   40  C19 UNL     1      57.220   2.670  18.796  1.00  0.00     0.211 C 
BRANCH  40  41
HETATM   41  O2  UNL     1      57.784   3.764  19.236  1.00  0.00    -0.338 OA
ATOM     42  H2  UNL     1      57.754   3.811  20.185  1.00  0.00     0.220 HD
ENDBRANCH  40  41
BRANCH  40  43
HETATM   43  N11 UNL     1      57.683   1.411  19.059  1.00  0.00    -0.375 NA
HETATM   44  C20 UNL     1      58.154   0.154  19.324  1.00  0.00     0.474 C 
HETATM   45  N12 UNL     1      58.228  -0.145  20.788  1.00  0.00    -0.031 N 
HETATM   46  N13 UNL     1      57.289  -0.872  18.768  1.00  0.00    -0.081 NA
ATOM     47 3H12 UNL     1      58.779   0.561  21.277  1.00  0.00     0.279 HD
ATOM     48 2H12 UNL     1      57.325   0.008  21.237  1.00  0.00     0.279 HD
ATOM     49 1H12 UNL     1      58.579  -1.082  20.985  1.00  0.00     0.279 HD
BRANCH  46  50
HETATM   50  N14 UNL     1      57.716  -2.155  19.180  1.00  0.00    -0.344 N 
ATOM     51 2H14 UNL     1      58.629  -2.346  19.594  1.00  0.00     0.172 HD
ATOM     52 1H14 UNL     1      56.987  -2.847  19.004  1.00  0.00     0.172 HD
ENDBRANCH  46  50
ENDBRANCH  40  43
ENDBRANCH  35  40
ENDBRANCH  33  35
ENDBRANCH   1  33
BRANCH   6  53
HETATM   53  N9  UNL     1      55.911   2.255  12.035  1.00  0.00    -0.385 N 
ATOM     54  H92 UNL     1      56.598   1.938  11.351  1.00  0.00     0.157 HD
ATOM     55  H91 UNL     1      55.166   2.901  11.775  1.00  0.00     0.157 HD
ENDBRANCH   6  53
TORSDOF 15
ENDMDL
MODEL 4
REMARK VINA RESULT: -6.105389353      2.141      4.605
REMARK  15 active torsions:
REMARK  status: ('A' for Active; 'I' for Inactive)
REMARK    1  A    between atoms: C2_2  and  C4_4 
REMARK    2  A    between atoms: C4_4  and  C5_5 
REMARK    3  A    between atoms: C5_5  and  N1_6 
REMARK    4  A    between atoms: C5_5  and  C19_43 
REMARK    5  A    between atoms: N1_6  and  C6_8 
REMARK    6  A    between atoms: C7_11  and  N3_12 
REMARK    7  A    between atoms: N3_12  and  C8_14 
REMARK    8  A    between atoms: C10_18  and  C11_19 
REMARK    9  A    between atoms: C11_19  and  N5_20 
REMARK   10  A    between atoms: C11_19  and  O1_23 
REMARK   11  A    between atoms: C12_25  and  N6_26 
REMARK   12  A    between atoms: C18_37  and  N9_38 
REMARK   13  A    between atoms: C19_43  and  O2_44 
REMARK   14  A    between atoms: C19_43  and  N11_46 
REMARK       I    between atoms: N11_46  and  C20_47 
REMARK       I    between atoms: C20_47  and  N12_48 
REMARK       I    between atoms: C20_47  and  N13_52 
REMARK   15  A    between atoms: N13_52  and  N14_53 
ROOT
HETATM    1  C6  UNL     1      54.174   3.021  16.414  1.00  0.00     0.681 A 
HETATM    2  N2  UNL     1      53.362   2.061  15.946  1.00  0.00    -0.177 N 
ATOM      3  H2  UNL     1      53.574   1.720  15.008  1.00  0.00     0.186 HD
HETATM    4  C7  UNL     1      52.304   1.488  16.551  1.00  0.00     0.126 A 
HETATM    5  C17 UNL     1      52.061   1.974  17.818  1.00  0.00     0.097 A 
HETATM    6  C18 UNL     1      52.891   2.997  18.364  1.00  0.00     0.118 A 
HETATM    7  N10 UNL     1      53.900   3.499  17.678  1.00  0.00    -0.177 N 
ATOM      8  H10 UNL     1      54.476   4.238  18.081  1.00  0.00     0.185 HD
ENDROOT
BRANCH   4   9
HETATM    9  N3  UNL     1      51.564   0.486  15.951  1.00  0.00    -0.327 N 
ATOM     10  H3  UNL     1      50.918   0.895  15.276  1.00  0.00     0.169 HD
BRANCH   9  11
HETATM   11  C8  UNL     1      51.427  -0.744  15.965  1.00  0.00     0.123 A 
HETATM   12  C9  UNL     1      50.275  -1.463  15.953  1.00  0.00     0.137 A 
HETATM   13  N4  UNL     1      50.271  -2.813  16.079  1.00  0.00    -0.356 N 
HETATM   14  C10 UNL     1      51.388  -3.508  16.228  1.00  0.00     0.127 A 
ATOM     15  H4  UNL     1      49.379  -3.308  16.059  1.00  0.00     0.165 HD
HETATM   16  C12 UNL     1      52.605  -2.802  16.235  1.00  0.00     0.136 A 
HETATM   17  N8  UNL     1      52.656  -1.471  16.104  1.00  0.00    -0.326 N 
ATOM     18  H8  UNL     1      53.552  -0.982  16.104  1.00  0.00     0.169 HD
BRANCH  14  19
HETATM   19  C11 UNL     1      51.366  -4.875  16.479  1.00  0.00     0.165 C 
BRANCH  19  20
HETATM   20  N5  UNL     1      51.607  -6.059  15.835  1.00  0.00    -0.378 N 
ATOM     21  H52 UNL     1      52.558  -6.317  16.096  1.00  0.00     0.158 HD
ATOM     22  H51 UNL     1      51.134  -6.718  15.215  1.00  0.00     0.158 HD
ENDBRANCH  19  20
BRANCH  19  23
HETATM   23  O1  UNL     1      50.975  -5.236  17.772  1.00  0.00    -0.345 OA
ATOM     24  H1  UNL     1      51.468  -4.826  18.473  1.00  0.00     0.219 HD
ENDBRANCH  19  23
ENDBRANCH  14  19
BRANCH  16  25
HETATM   25  N6  UNL     1      53.834  -3.527  16.412  1.00  0.00    -0.362 N 
HETATM   26  C13 UNL     1      54.597  -4.023  15.282  1.00  0.00     0.152 C 
HETATM   27  C14 UNL     1      55.965  -4.474  15.782  1.00  0.00     0.252 C 
HETATM   28  N7  UNL     1      56.555  -3.432  16.566  1.00  0.00    -0.072 N 
HETATM   29  C15 UNL     1      55.806  -3.212  17.805  1.00  0.00     0.252 C 
ATOM     30  H72 UNL     1      57.541  -3.615  16.752  1.00  0.00     0.277 HD
ATOM     31  H71 UNL     1      56.655  -2.570  16.030  1.00  0.00     0.277 HD
HETATM   32  C16 UNL     1      54.405  -3.800  17.721  1.00  0.00     0.152 C 
ENDBRANCH  16  25
ENDBRANCH   9  11
ENDBRANCH   4   9
BRANCH   1  33
HETATM   33  N1  UNL     1      55.146   3.274  15.703  1.00  0.00    -0.213 N 
ATOM     34  H1  UNL     1      54.780   3.588  14.805  1.00  0.00     0.178 HD
BRANCH  33  35
HETATM   35  C5  UNL     1      56.557   3.313  15.607  1.00  0.00     0.189 C 
BRANCH  35  36
HETATM   36  C4  UNL     1      57.080   1.962  15.436  1.00  0.00     0.039 C 
BRANCH  36  37
HETATM   37  C2  UNL     1      56.724   0.742  16.145  1.00  0.00    -0.020 C 
HETATM   38  C1  UNL     1      57.762   0.040  16.919  1.00  0.00     0.009 C 
HETATM   39  C3  UNL     1      55.930  -0.256  15.339  1.00  0.00     0.009 C 
ENDBRANCH  36  37
ENDBRANCH  35  36
BRANCH  35  40
HETATM   40  C19 UNL     1      56.995   4.069  16.853  1.00  0.00     0.211 C 
BRANCH  40  41
HETATM   41  O2  UNL     1      57.528   5.223  16.548  1.00  0.00    -0.338 OA
ATOM     42  H2  UNL     1      57.086   5.937  16.992  1.00  0.00     0.220 HD
ENDBRANCH  40  41
BRANCH  40  43
HETATM   43  N11 UNL     1      56.865   3.601  18.130  1.00  0.00    -0.375 NA
HETATM   44  C20 UNL     1      56.730   3.126  19.407  1.00  0.00     0.474 C 
HETATM   45  N12 UNL     1      57.696   2.029  19.727  1.00  0.00    -0.031 N 
HETATM   46  N13 UNL     1      56.986   4.160  20.395  1.00  0.00    -0.081 NA
ATOM     47 3H12 UNL     1      57.626   1.272  19.047  1.00  0.00     0.279 HD
ATOM     48 2H12 UNL     1      58.655   2.325  19.547  1.00  0.00     0.279 HD
ATOM     49 1H12 UNL     1      57.596   1.676  20.678  1.00  0.00     0.279 HD
BRANCH  46  50
HETATM   50  N14 UNL     1      56.986   3.610  21.697  1.00  0.00    -0.344 N 
ATOM     51 2H14 UNL     1      56.374   2.849  21.994  1.00  0.00     0.172 HD
ATOM     52 1H14 UNL     1      57.676   4.081  22.283  1.00  0.00     0.172 HD
ENDBRANCH  46  50
ENDBRANCH  40  43
ENDBRANCH  35  40
ENDBRANCH  33  35
ENDBRANCH   1  33
BRANCH   6  53
HETATM   53  N9  UNL     1      52.566   3.390  19.556  1.00  0.00    -0.385 N 
ATOM     54  H92 UNL     1      51.604   3.553  19.855  1.00  0.00     0.157 HD
ATOM     55  H91 UNL     1      53.348   3.518  20.197  1.00  0.00     0.157 HD
ENDBRANCH   6  53
TORSDOF 15
ENDMDL
MODEL 5
REMARK VINA RESULT: -6.098453105      2.131      4.202
REMARK  15 active torsions:
REMARK  status: ('A' for Active; 'I' for Inactive)
REMARK    1  A    between atoms: C2_2  and  C4_4 
REMARK    2  A    between atoms: C4_4  and  C5_5 
REMARK    3  A    between atoms: C5_5  and  N1_6 
REMARK    4  A    between atoms: C5_5  and  C19_43 
REMARK    5  A    between atoms: N1_6  and  C6_8 
REMARK    6  A    between atoms: C7_11  and  N3_12 
REMARK    7  A    between atoms: N3_12  and  C8_14 
REMARK    8  A    between atoms: C10_18  and  C11_19 
REMARK    9  A    between atoms: C11_19  and  N5_20 
REMARK   10  A    between atoms: C11_19  and  O1_23 
REMARK   11  A    between atoms: C12_25  and  N6_26 
REMARK   12  A    between atoms: C18_37  and  N9_38 
REMARK   13  A    between atoms: C19_43  and  O2_44 
REMARK   14  A    between atoms: C19_43  and  N11_46 
REMARK       I    between atoms: N11_46  and  C20_47 
REMARK       I    between atoms: C20_47  and  N12_48 
REMARK       I    between atoms: C20_47  and  N13_52 
REMARK   15  A    between atoms: N13_52  and  N14_53 
ROOT
HETATM    1  C6  UNL     1      56.363   1.853  15.349  1.00  0.00     0.681 A 
HETATM    2  N2  UNL     1      55.124   1.437  15.655  1.00  0.00    -0.177 N 
ATOM      3  H2  UNL     1      54.935   1.304  16.649  1.00  0.00     0.186 HD
HETATM    4  C7  UNL     1      54.099   1.172  14.824  1.00  0.00     0.126 A 
HETATM    5  C17 UNL     1      54.398   1.374  13.493  1.00  0.00     0.097 A 
HETATM    6  C18 UNL     1      55.700   1.814  13.111  1.00  0.00     0.118 A 
HETATM    7  N10 UNL     1      56.640   2.034  14.010  1.00  0.00    -0.177 N 
ATOM      8  H10 UNL     1      57.568   2.337  13.716  1.00  0.00     0.185 HD
ENDROOT
BRANCH   4   9
HETATM    9  N3  UNL     1      52.860   0.767  15.286  1.00  0.00    -0.327 N 
ATOM     10  H3  UNL     1      52.330   1.578  15.602  1.00  0.00     0.169 HD
BRANCH   9  11
HETATM   11  C8  UNL     1      52.184  -0.258  15.440  1.00  0.00     0.123 A 
HETATM   12  C9  UNL     1      50.858  -0.357  15.719  1.00  0.00     0.137 A 
HETATM   13  N4  UNL     1      50.265  -1.550  15.968  1.00  0.00    -0.356 N 
HETATM   14  C10 UNL     1      50.943  -2.687  15.961  1.00  0.00     0.127 A 
ATOM     15  H4  UNL     1      49.265  -1.573  16.168  1.00  0.00     0.165 HD
HETATM   16  C12 UNL     1      52.318  -2.630  15.665  1.00  0.00     0.136 A 
HETATM   17  N8  UNL     1      52.942  -1.475  15.404  1.00  0.00    -0.326 N 
ATOM     18  H8  UNL     1      53.938  -1.461  15.184  1.00  0.00     0.169 HD
BRANCH  14  19
HETATM   19  C11 UNL     1      50.354  -3.889  16.337  1.00  0.00     0.165 C 
BRANCH  19  20
HETATM   20  N5  UNL     1      50.186  -4.666  17.452  1.00  0.00    -0.378 N 
ATOM     21  H52 UNL     1      51.119  -5.007  17.681  1.00  0.00     0.158 HD
ATOM     22  H51 UNL     1      49.445  -4.973  18.082  1.00  0.00     0.158 HD
ENDBRANCH  19  20
BRANCH  19  23
HETATM   23  O1  UNL     1      49.720  -4.590  15.306  1.00  0.00    -0.345 OA
ATOM     24  H1  UNL     1      48.779  -4.678  15.395  1.00  0.00     0.219 HD
ENDBRANCH  19  23
ENDBRANCH  14  19
BRANCH  16  25
HETATM   25  N6  UNL     1      53.085  -3.846  15.667  1.00  0.00    -0.362 N 
HETATM   26  C13 UNL     1      53.207  -4.673  14.480  1.00  0.00     0.152 C 
HETATM   27  C14 UNL     1      54.303  -5.705  14.719  1.00  0.00     0.252 C 
HETATM   28  N7  UNL     1      55.486  -5.047  15.186  1.00  0.00    -0.072 N 
HETATM   29  C15 UNL     1      55.281  -4.467  16.515  1.00  0.00     0.252 C 
ATOM     30  H72 UNL     1      56.293  -5.671  15.169  1.00  0.00     0.277 HD
ATOM     31  H71 UNL     1      55.814  -4.350  14.518  1.00  0.00     0.277 HD
HETATM   32  C16 UNL     1      53.801  -4.323  16.838  1.00  0.00     0.152 C 
ENDBRANCH  16  25
ENDBRANCH   9  11
ENDBRANCH   4   9
BRANCH   1  33
HETATM   33  N1  UNL     1      57.069   2.144  16.314  1.00  0.00    -0.213 N 
ATOM     34  H1  UNL     1      57.596   2.978  16.052  1.00  0.00     0.178 HD
BRANCH  33  35
HETATM   35  C5  UNL     1      57.459   1.811  17.632  1.00  0.00     0.189 C 
BRANCH  35  36
HETATM   36  C4  UNL     1      57.154   0.409  17.900  1.00  0.00     0.039 C 
BRANCH  36  37
HETATM   37  C2  UNL     1      57.921  -0.570  18.655  1.00  0.00    -0.020 C 
HETATM   38  C1  UNL     1      57.490  -1.978  18.638  1.00  0.00     0.009 C 
HETATM   39  C3  UNL     1      58.266  -0.162  20.066  1.00  0.00     0.009 C 
ENDBRANCH  36  37
ENDBRANCH  35  36
BRANCH  35  40
HETATM   40  C19 UNL     1      56.760   2.846  18.500  1.00  0.00     0.211 C 
BRANCH  40  41
HETATM   41  O2  UNL     1      57.606   3.459  19.287  1.00  0.00    -0.338 OA
ATOM     42  H2  UNL     1      57.214   3.656  20.130  1.00  0.00     0.220 HD
ENDBRANCH  40  41
BRANCH  40  43
HETATM   43  N11 UNL     1      55.417   3.099  18.477  1.00  0.00    -0.375 NA
HETATM   44  C20 UNL     1      54.073   3.359  18.457  1.00  0.00     0.474 C 
HETATM   45  N12 UNL     1      53.677   4.303  17.366  1.00  0.00    -0.031 N 
HETATM   46  N13 UNL     1      53.296   2.154  18.220  1.00  0.00    -0.081 NA
ATOM     47 3H12 UNL     1      54.215   5.168  17.419  1.00  0.00     0.279 HD
ATOM     48 2H12 UNL     1      53.996   3.965  16.458  1.00  0.00     0.279 HD
ATOM     49 1H12 UNL     1      52.676   4.496  17.351  1.00  0.00     0.279 HD
BRANCH  46  50
HETATM   50  N14 UNL     1      51.928   2.472  18.058  1.00  0.00    -0.344 N 
ATOM     51 2H14 UNL     1      51.239   2.425  18.809  1.00  0.00     0.172 HD
ATOM     52 1H14 UNL     1      51.739   2.750  17.094  1.00  0.00     0.172 HD
ENDBRANCH  46  50
ENDBRANCH  40  43
ENDBRANCH  35  40
ENDBRANCH  33  35
ENDBRANCH   1  33
BRANCH   6  53
HETATM   53  N9  UNL     1      55.877   1.958  11.835  1.00  0.00    -0.385 N 
ATOM     54  H92 UNL     1      55.402   1.395  11.130  1.00  0.00     0.157 HD
ATOM     55  H91 UNL     1      56.528   2.697  11.570  1.00  0.00     0.157 HD
ENDBRANCH   6  53
TORSDOF 15
ENDMDL
