MODEL 1
REMARK VINA RESULT: -6.749863938      0.000      0.000
REMARK  14 active torsions:
REMARK  status: ('A' for Active; 'I' for Inactive)
REMARK    1  A    between atoms: N1_5  and  C5_7 
REMARK    2  A    between atoms: C5_7  and  O1_8 
REMARK    3  A    between atoms: C5_7  and  C6_10 
REMARK       I    between atoms: C6_10  and  N2_12 
REMARK    4  A    between atoms: N2_12  and  C7_14 
REMARK    5  A    between atoms: C7_14  and  C8_15 
REMARK    6  A    between atoms: C7_14  and  C9_24 
REMARK    7  A    between atoms: C8_15  and  N3_16 
REMARK    8  A    between atoms: C8_15  and  N4_20 
REMARK    9  A    between atoms: C9_24  and  N5_26 
REMARK   10  A    between atoms: N5_26  and  C11_28 
REMARK   11  A    between atoms: C12_33  and  C13_34 
REMARK   12  A    between atoms: N9_37  and  N10_38 
REMARK   13  A    between atoms: C14_43  and  N12_44 
REMARK   14  A    between atoms: N12_44  and  C15_46 
ROOT
HETATM    1  C7  UNL     1      54.398   0.870  15.871  1.00  0.00     0.165 C 
ENDROOT
BRANCH   1   2
HETATM    2  N2  UNL     1      55.555   0.049  16.181  1.00  0.00    -0.347 N 
HETATM    3  C6  UNL     1      56.460   0.390  17.214  1.00  0.00     0.267 C 
HETATM    4  O2  UNL     1      56.333   1.405  17.923  1.00  0.00    -0.269 OA
ATOM      5  H2  UNL     1      55.721  -0.798  15.639  1.00  0.00     0.163 HD
BRANCH   3   6
HETATM    6  C5  UNL     1      57.622  -0.491  17.478  1.00  0.00     0.313 C 
BRANCH   6   7
HETATM    7  N1  UNL     1      57.562  -1.773  16.874  1.00  0.00    -0.342 N 
HETATM    8  C4  UNL     1      56.979  -2.782  17.380  1.00  0.00     0.121 A 
HETATM    9  C3  UNL     1      56.317  -2.801  18.582  1.00  0.00     0.074 A 
HETATM   10  N11 UNL     1      56.983  -3.981  16.704  1.00  0.00    -0.177 N 
HETATM   11  C2  UNL     1      55.689  -3.946  19.094  1.00  0.00     0.026 A 
HETATM   12  C1  UNL     1      54.984  -3.922  20.400  1.00  0.00     0.069 C 
HETATM   13  N13 UNL     1      55.757  -5.061  18.347  1.00  0.00    -0.196 N 
HETATM   14  C14 UNL     1      56.395  -5.089  17.162  1.00  0.00     0.684 A 
ATOM     15  H13 UNL     1      55.311  -5.912  18.688  1.00  0.00     0.184 HD
ATOM     16  H11 UNL     1      57.460  -4.025  15.804  1.00  0.00     0.186 HD
ATOM     17  H1  UNL     1      58.019  -1.894  15.970  1.00  0.00     0.164 HD
BRANCH  14  18
HETATM   18  N12 UNL     1      56.449  -6.177  16.458  1.00  0.00    -0.192 N 
ATOM     19  H12 UNL     1      55.826  -6.944  16.711  1.00  0.00     0.184 HD
BRANCH  18  20
HETATM   20  C15 UNL     1      57.312  -6.358  15.369  1.00  0.00     0.049 A 
HETATM   21  C16 UNL     1      56.789  -6.125  14.094  1.00  0.00     0.030 A 
HETATM   22  C17 UNL     1      57.624  -6.298  13.021  1.00  0.00     0.002 A 
HETATM   23  C18 UNL     1      58.939  -6.690  13.211  1.00  0.00     0.000 A 
HETATM   24  C19 UNL     1      59.440  -6.916  14.483  1.00  0.00     0.002 A 
HETATM   25  C20 UNL     1      58.614  -6.746  15.571  1.00  0.00     0.030 A 
ENDBRANCH  18  20
ENDBRANCH  14  18
ENDBRANCH   6   7
BRANCH   6  26
HETATM   26  O1  UNL     1      58.842   0.104  17.262  1.00  0.00    -0.368 OA
ATOM     27  H1  UNL     1      58.750   0.908  16.765  1.00  0.00     0.212 HD
ENDBRANCH   6  26
ENDBRANCH   3   6
ENDBRANCH   1   2
BRANCH   1  28
HETATM   28  C8  UNL     1      53.178   0.049  16.134  1.00  0.00     0.402 C 
BRANCH  28  29
HETATM   29  N3  UNL     1      53.465  -1.291  16.592  1.00  0.00    -0.048 N 
ATOM     30  H33 UNL     1      52.819  -1.960  16.174  1.00  0.00     0.276 HD
ATOM     31  H32 UNL     1      54.341  -1.627  16.194  1.00  0.00     0.276 HD
ATOM     32  H31 UNL     1      53.473  -1.385  17.608  1.00  0.00     0.276 HD
ENDBRANCH  28  29
BRANCH  28  33
HETATM   33  N4  UNL     1      52.247   0.711  17.029  1.00  0.00    -0.048 N 
ATOM     34  H43 UNL     1      51.553   1.247  16.507  1.00  0.00     0.276 HD
ATOM     35  H42 UNL     1      51.627   0.037  17.478  1.00  0.00     0.276 HD
ATOM     36  H41 UNL     1      52.718   1.295  17.720  1.00  0.00     0.276 HD
ENDBRANCH  28  33
ENDBRANCH   1  28
BRANCH   1  37
HETATM   37  C9  UNL     1      54.451   1.349  14.416  1.00  0.00     0.121 C 
HETATM   38  C10 UNL     1      55.674   0.778  13.735  1.00  0.00     0.035 C 
BRANCH  37  39
HETATM   39  N5  UNL     1      54.552   2.772  14.442  1.00  0.00    -0.217 N 
ATOM     40  H5  UNL     1      54.274   3.292  13.609  1.00  0.00     0.178 HD
BRANCH  39  41
HETATM   41  C11 UNL     1      54.977   3.434  15.464  1.00  0.00     0.716 A 
HETATM   42  N6  UNL     1      56.243   3.667  15.856  1.00  0.00    -0.129 N 
HETATM   43  N7  UNL     1      56.245   4.392  16.962  1.00  0.00    -0.265 N 
ATOM     44  H6  UNL     1      57.078   3.335  15.372  1.00  0.00     0.205 HD
HETATM   45  C12 UNL     1      54.967   4.657  17.327  1.00  0.00     0.225 A 
ATOM     46  H7  UNL     1      57.078   4.704  17.462  1.00  0.00     0.189 HD
HETATM   47  N9  UNL     1      54.202   4.046  16.374  1.00  0.00    -0.069 N 
BRANCH  45  48
HETATM   48  C13 UNL     1      54.506   5.417  18.473  1.00  0.00     0.302 C 
HETATM   49  N8  UNL     1      54.940   5.067  19.762  1.00  0.00    -0.054 NA
HETATM   50  O3  UNL     1      53.729   6.374  18.311  1.00  0.00    -0.268 OA
ENDBRANCH  45  48
BRANCH  47  51
HETATM   51  N10 UNL     1      52.816   4.062  16.359  1.00  0.00    -0.322 N 
ATOM     52 2H10 UNL     1      52.256   4.798  15.927  1.00  0.00     0.178 HD
ATOM     53 1H10 UNL     1      52.217   3.349  16.774  1.00  0.00     0.178 HD
ENDBRANCH  47  51
ENDBRANCH  39  41
ENDBRANCH  37  39
ENDBRANCH   1  37
TORSDOF 14
ENDMDL
MODEL 2
REMARK VINA RESULT: -6.664815327      3.828      7.026
REMARK  14 active torsions:
REMARK  status: ('A' for Active; 'I' for Inactive)
REMARK    1  A    between atoms: N1_5  and  C5_7 
REMARK    2  A    between atoms: C5_7  and  O1_8 
REMARK    3  A    between atoms: C5_7  and  C6_10 
REMARK       I    between atoms: C6_10  and  N2_12 
REMARK    4  A    between atoms: N2_12  and  C7_14 
REMARK    5  A    between atoms: C7_14  and  C8_15 
REMARK    6  A    between atoms: C7_14  and  C9_24 
REMARK    7  A    between atoms: C8_15  and  N3_16 
REMARK    8  A    between atoms: C8_15  and  N4_20 
REMARK    9  A    between atoms: C9_24  and  N5_26 
REMARK   10  A    between atoms: N5_26  and  C11_28 
REMARK   11  A    between atoms: C12_33  and  C13_34 
REMARK   12  A    between atoms: N9_37  and  N10_38 
REMARK   13  A    between atoms: C14_43  and  N12_44 
REMARK   14  A    between atoms: N12_44  and  C15_46 
ROOT
HETATM    1  C7  UNL     1      55.137   3.559  18.420  1.00  0.00     0.165 C 
ENDROOT
BRANCH   1   2
HETATM    2  N2  UNL     1      53.794   3.341  17.912  1.00  0.00    -0.347 N 
HETATM    3  C6  UNL     1      53.317   2.049  17.587  1.00  0.00     0.267 C 
HETATM    4  O2  UNL     1      54.003   1.018  17.710  1.00  0.00    -0.269 OA
ATOM      5  H2  UNL     1      53.176   4.142  17.786  1.00  0.00     0.163 HD
BRANCH   3   6
HETATM    6  C5  UNL     1      51.935   1.897  17.071  1.00  0.00     0.313 C 
BRANCH   6   7
HETATM    7  N1  UNL     1      51.504   0.559  16.879  1.00  0.00    -0.342 N 
HETATM    8  C4  UNL     1      51.378  -0.002  15.747  1.00  0.00     0.121 A 
HETATM    9  C3  UNL     1      51.634   0.585  14.533  1.00  0.00     0.074 A 
HETATM   10  N11 UNL     1      50.950  -1.308  15.677  1.00  0.00    -0.177 N 
HETATM   11  C2  UNL     1      51.476  -0.083  13.309  1.00  0.00     0.026 A 
HETATM   12  C1  UNL     1      51.765   0.591  12.019  1.00  0.00     0.069 C 
HETATM   13  N13 UNL     1      51.054  -1.357  13.364  1.00  0.00    -0.196 N 
HETATM   14  C14 UNL     1      50.790  -1.974  14.530  1.00  0.00     0.684 A 
ATOM     15  H13 UNL     1      50.929  -1.874  12.493  1.00  0.00     0.184 HD
ATOM     16  H11 UNL     1      50.745  -1.795  16.549  1.00  0.00     0.186 HD
ATOM     17  H1  UNL     1      51.279   0.009  17.708  1.00  0.00     0.164 HD
BRANCH  14  18
HETATM   18  N12 UNL     1      50.383  -3.205  14.559  1.00  0.00    -0.192 N 
ATOM     19  H12 UNL     1      50.730  -3.842  13.842  1.00  0.00     0.184 HD
BRANCH  18  20
HETATM   20  C15 UNL     1      49.494  -3.709  15.517  1.00  0.00     0.049 A 
HETATM   21  C16 UNL     1      48.164  -3.286  15.440  1.00  0.00     0.030 A 
HETATM   22  C17 UNL     1      47.285  -3.772  16.372  1.00  0.00     0.002 A 
HETATM   23  C18 UNL     1      47.716  -4.653  17.351  1.00  0.00     0.000 A 
HETATM   24  C19 UNL     1      49.039  -5.062  17.411  1.00  0.00     0.002 A 
HETATM   25  C20 UNL     1      49.934  -4.582  16.483  1.00  0.00     0.030 A 
ENDBRANCH  18  20
ENDBRANCH  14  18
ENDBRANCH   6   7
BRANCH   6  26
HETATM   26  O1  UNL     1      50.994   2.629  17.754  1.00  0.00    -0.368 OA
ATOM     27  H1  UNL     1      51.168   3.561  17.687  1.00  0.00     0.212 HD
ENDBRANCH   6  26
ENDBRANCH   3   6
ENDBRANCH   1   2
BRANCH   1  28
HETATM   28  C8  UNL     1      55.034   4.478  19.592  1.00  0.00     0.402 C 
BRANCH  28  29
HETATM   29  N3  UNL     1      53.693   4.603  20.118  1.00  0.00    -0.048 N 
ATOM     30  H33 UNL     1      53.131   3.790  19.866  1.00  0.00     0.276 HD
ATOM     31  H32 UNL     1      53.694   4.503  21.132  1.00  0.00     0.276 HD
ATOM     32  H31 UNL     1      53.222   5.464  19.841  1.00  0.00     0.276 HD
ENDBRANCH  28  29
BRANCH  28  33
HETATM   33  N4  UNL     1      55.971   4.140  20.647  1.00  0.00    -0.048 N 
ATOM     34  H43 UNL     1      56.857   3.814  20.260  1.00  0.00     0.276 HD
ATOM     35  H42 UNL     1      56.301   4.977  21.127  1.00  0.00     0.276 HD
ATOM     36  H41 UNL     1      55.588   3.464  21.308  1.00  0.00     0.276 HD
ENDBRANCH  28  33
ENDBRANCH   1  28
BRANCH   1  37
HETATM   37  C9  UNL     1      56.040   4.141  17.326  1.00  0.00     0.121 C 
HETATM   38  C10 UNL     1      55.312   4.123  16.001  1.00  0.00     0.035 C 
BRANCH  37  39
HETATM   39  N5  UNL     1      57.191   3.303  17.237  1.00  0.00    -0.217 N 
ATOM     40  H5  UNL     1      58.105   3.746  17.129  1.00  0.00     0.178 HD
BRANCH  39  41
HETATM   41  C11 UNL     1      57.138   2.015  17.286  1.00  0.00     0.716 A 
HETATM   42  N6  UNL     1      56.775   1.145  16.326  1.00  0.00    -0.129 N 
HETATM   43  N7  UNL     1      56.858  -0.093  16.785  1.00  0.00    -0.265 N 
ATOM     44  H6  UNL     1      56.480   1.401  15.383  1.00  0.00     0.205 HD
HETATM   45  C12 UNL     1      57.282  -0.066  18.072  1.00  0.00     0.225 A 
ATOM     46  H7  UNL     1      56.637  -0.936  16.254  1.00  0.00     0.189 HD
HETATM   47  N9  UNL     1      57.447   1.261  18.354  1.00  0.00    -0.069 N 
BRANCH  45  48
HETATM   48  C13 UNL     1      57.511  -1.189  18.959  1.00  0.00     0.302 C 
HETATM   49  N8  UNL     1      56.494  -2.137  19.161  1.00  0.00    -0.054 NA
HETATM   50  O3  UNL     1      58.605  -1.311  19.537  1.00  0.00    -0.268 OA
ENDBRANCH  45  48
BRANCH  47  51
HETATM   51  N10 UNL     1      57.874   1.750  19.578  1.00  0.00    -0.322 N 
ATOM     52 2H10 UNL     1      57.419   2.512  20.082  1.00  0.00     0.178 HD
ATOM     53 1H10 UNL     1      58.681   1.404  20.098  1.00  0.00     0.178 HD
ENDBRANCH  47  51
ENDBRANCH  39  41
ENDBRANCH  37  39
ENDBRANCH   1  37
TORSDOF 14
ENDMDL
MODEL 3
REMARK VINA RESULT: -6.638175732      2.819      4.931
REMARK  14 active torsions:
REMARK  status: ('A' for Active; 'I' for Inactive)
REMARK    1  A    between atoms: N1_5  and  C5_7 
REMARK    2  A    between atoms: C5_7  and  O1_8 
REMARK    3  A    between atoms: C5_7  and  C6_10 
REMARK       I    between atoms: C6_10  and  N2_12 
REMARK    4  A    between atoms: N2_12  and  C7_14 
REMARK    5  A    between atoms: C7_14  and  C8_15 
REMARK    6  A    between atoms: C7_14  and  C9_24 
REMARK    7  A    between atoms: C8_15  and  N3_16 
REMARK    8  A    between atoms: C8_15  and  N4_20 
REMARK    9  A    between atoms: C9_24  and  N5_26 
REMARK   10  A    between atoms: N5_26  and  C11_28 
REMARK   11  A    between atoms: C12_33  and  C13_34 
REMARK   12  A    between atoms: N9_37  and  N10_38 
REMARK   13  A    between atoms: C14_43  and  N12_44 
REMARK   14  A    between atoms: N12_44  and  C15_46 
ROOT
HETATM    1  C7  UNL     1      54.078   2.529  13.512  1.00  0.00     0.165 C 
ENDROOT
BRANCH   1   2
HETATM    2  N2  UNL     1      53.196   1.838  14.437  1.00  0.00    -0.347 N 
HETATM    3  C6  UNL     1      52.372   2.537  15.350  1.00  0.00     0.267 C 
HETATM    4  O2  UNL     1      52.342   3.779  15.427  1.00  0.00    -0.269 OA
ATOM      5  H2  UNL     1      53.170   0.819  14.428  1.00  0.00     0.163 HD
BRANCH   3   6
HETATM    6  C5  UNL     1      51.496   1.771  16.268  1.00  0.00     0.313 C 
BRANCH   6   7
HETATM    7  N1  UNL     1      51.993   0.502  16.663  1.00  0.00    -0.342 N 
HETATM    8  C4  UNL     1      51.658  -0.600  16.130  1.00  0.00     0.121 A 
HETATM    9  C3  UNL     1      50.770  -0.749  15.095  1.00  0.00     0.074 A 
HETATM   10  N11 UNL     1      52.204  -1.775  16.594  1.00  0.00    -0.177 N 
HETATM   11  C2  UNL     1      50.435  -1.995  14.543  1.00  0.00     0.026 A 
HETATM   12  C1  UNL     1      49.469  -2.109  13.423  1.00  0.00     0.069 C 
HETATM   13  N13 UNL     1      51.032  -3.074  15.077  1.00  0.00    -0.196 N 
HETATM   14  C14 UNL     1      51.909  -2.977  16.093  1.00  0.00     0.684 A 
ATOM     15  H13 UNL     1      50.813  -3.997  14.700  1.00  0.00     0.184 HD
ATOM     16  H11 UNL     1      52.872  -1.725  17.364  1.00  0.00     0.186 HD
ATOM     17  H1  UNL     1      52.667   0.474  17.429  1.00  0.00     0.164 HD
BRANCH  14  18
HETATM   18  N12 UNL     1      52.472  -4.033  16.593  1.00  0.00    -0.192 N 
ATOM     19  H12 UNL     1      51.871  -4.764  16.972  1.00  0.00     0.184 HD
BRANCH  18  20
HETATM   20  C15 UNL     1      53.859  -4.227  16.641  1.00  0.00     0.049 A 
HETATM   21  C16 UNL     1      54.561  -4.120  15.438  1.00  0.00     0.030 A 
HETATM   22  C17 UNL     1      55.918  -4.307  15.472  1.00  0.00     0.002 A 
HETATM   23  C18 UNL     1      56.558  -4.591  16.668  1.00  0.00     0.000 A 
HETATM   24  C19 UNL     1      55.844  -4.692  17.852  1.00  0.00     0.002 A 
HETATM   25  C20 UNL     1      54.481  -4.507  17.834  1.00  0.00     0.030 A 
ENDBRANCH  18  20
ENDBRANCH  14  18
ENDBRANCH   6   7
BRANCH   6  26
HETATM   26  O1  UNL     1      51.048   2.489  17.351  1.00  0.00    -0.368 OA
ATOM     27  H1  UNL     1      50.103   2.586  17.332  1.00  0.00     0.212 HD
ENDBRANCH   6  26
ENDBRANCH   3   6
ENDBRANCH   1   2
BRANCH   1  28
HETATM   28  C8  UNL     1      53.493   2.395  12.144  1.00  0.00     0.402 C 
BRANCH  28  29
HETATM   29  N3  UNL     1      54.482   2.305  11.094  1.00  0.00    -0.048 N 
ATOM     30  H33 UNL     1      54.913   1.381  11.086  1.00  0.00     0.276 HD
ATOM     31  H32 UNL     1      54.034   2.293  10.179  1.00  0.00     0.276 HD
ATOM     32  H31 UNL     1      55.195   3.033  11.137  1.00  0.00     0.276 HD
ENDBRANCH  28  29
BRANCH  28  33
HETATM   33  N4  UNL     1      52.541   1.304  12.051  1.00  0.00    -0.048 N 
ATOM     34  H43 UNL     1      52.076   1.146  12.945  1.00  0.00     0.276 HD
ATOM     35  H42 UNL     1      51.732   1.571  11.491  1.00  0.00     0.276 HD
ATOM     36  H41 UNL     1      52.965   0.446  11.701  1.00  0.00     0.276 HD
ENDBRANCH  28  33
ENDBRANCH   1  28
BRANCH   1  37
HETATM   37  C9  UNL     1      55.494   1.945  13.578  1.00  0.00     0.121 C 
HETATM   38  C10 UNL     1      55.486   0.681  14.409  1.00  0.00     0.035 C 
BRANCH  37  39
HETATM   39  N5  UNL     1      56.323   2.916  14.214  1.00  0.00    -0.217 N 
ATOM     40  H5  UNL     1      56.997   3.426  13.642  1.00  0.00     0.178 HD
BRANCH  39  41
HETATM   41  C11 UNL     1      56.265   3.183  15.475  1.00  0.00     0.716 A 
HETATM   42  N6  UNL     1      55.434   4.018  16.127  1.00  0.00    -0.129 N 
HETATM   43  N7  UNL     1      55.707   4.004  17.421  1.00  0.00    -0.265 N 
ATOM     44  H6  UNL     1      54.703   4.578  15.689  1.00  0.00     0.205 HD
HETATM   45  C12 UNL     1      56.734   3.150  17.654  1.00  0.00     0.225 A 
ATOM     46  H7  UNL     1      55.221   4.550  18.133  1.00  0.00     0.189 HD
HETATM   47  N9  UNL     1      57.058   2.656  16.422  1.00  0.00    -0.069 N 
BRANCH  45  48
HETATM   48  C13 UNL     1      57.356   2.828  18.923  1.00  0.00     0.302 C 
HETATM   49  N8  UNL     1      57.753   1.507  19.190  1.00  0.00    -0.054 NA
HETATM   50  O3  UNL     1      57.535   3.720  19.770  1.00  0.00    -0.268 OA
ENDBRANCH  45  48
BRANCH  47  51
HETATM   51  N10 UNL     1      58.070   1.737  16.193  1.00  0.00    -0.322 N 
ATOM     52 2H10 UNL     1      58.948   1.956  15.721  1.00  0.00     0.178 HD
ATOM     53 1H10 UNL     1      58.044   0.755  16.468  1.00  0.00     0.178 HD
ENDBRANCH  47  51
ENDBRANCH  39  41
ENDBRANCH  37  39
ENDBRANCH   1  37
TORSDOF 14
ENDMDL
MODEL 4
REMARK VINA RESULT: -6.596438531      3.392      6.044
REMARK  14 active torsions:
REMARK  status: ('A' for Active; 'I' for Inactive)
REMARK    1  A    between atoms: N1_5  and  C5_7 
REMARK    2  A    between atoms: C5_7  and  O1_8 
REMARK    3  A    between atoms: C5_7  and  C6_10 
REMARK       I    between atoms: C6_10  and  N2_12 
REMARK    4  A    between atoms: N2_12  and  C7_14 
REMARK    5  A    between atoms: C7_14  and  C8_15 
REMARK    6  A    between atoms: C7_14  and  C9_24 
REMARK    7  A    between atoms: C8_15  and  N3_16 
REMARK    8  A    between atoms: C8_15  and  N4_20 
REMARK    9  A    between atoms: C9_24  and  N5_26 
REMARK   10  A    between atoms: N5_26  and  C11_28 
REMARK   11  A    between atoms: C12_33  and  C13_34 
REMARK   12  A    between atoms: N9_37  and  N10_38 
REMARK   13  A    between atoms: C14_43  and  N12_44 
REMARK   14  A    between atoms: N12_44  and  C15_46 
ROOT
HETATM    1  C7  UNL     1      54.679   3.637  18.093  1.00  0.00     0.165 C 
ENDROOT
BRANCH   1   2
HETATM    2  N2  UNL     1      53.450   3.197  17.456  1.00  0.00    -0.347 N 
HETATM    3  C6  UNL     1      53.187   1.831  17.200  1.00  0.00     0.267 C 
HETATM    4  O2  UNL     1      53.979   0.917  17.497  1.00  0.00    -0.269 OA
ATOM      5  H2  UNL     1      52.756   3.893  17.186  1.00  0.00     0.163 HD
BRANCH   3   6
HETATM    6  C5  UNL     1      51.913   1.449  16.545  1.00  0.00     0.313 C 
BRANCH   6   7
HETATM    7  N1  UNL     1      51.478   0.121  16.793  1.00  0.00    -0.342 N 
HETATM    8  C4  UNL     1      51.419  -0.794  15.915  1.00  0.00     0.121 A 
HETATM    9  C3  UNL     1      51.762  -0.654  14.593  1.00  0.00     0.074 A 
HETATM   10  N11 UNL     1      50.980  -2.050  16.267  1.00  0.00    -0.177 N 
HETATM   11  C2  UNL     1      51.677  -1.702  13.664  1.00  0.00     0.026 A 
HETATM   12  C1  UNL     1      52.060  -1.506  12.243  1.00  0.00     0.069 C 
HETATM   13  N13 UNL     1      51.235  -2.885  14.122  1.00  0.00    -0.196 N 
HETATM   14  C14 UNL     1      50.887  -3.068  15.408  1.00  0.00     0.684 A 
ATOM     15  H13 UNL     1      51.161  -3.669  13.473  1.00  0.00     0.184 HD
ATOM     16  H11 UNL     1      50.711  -2.211  17.237  1.00  0.00     0.186 HD
ATOM     17  H1  UNL     1      51.192  -0.115  17.744  1.00  0.00     0.164 HD
BRANCH  14  18
HETATM   18  N12 UNL     1      50.462  -4.219  15.828  1.00  0.00    -0.192 N 
ATOM     19  H12 UNL     1      49.499  -4.482  15.618  1.00  0.00     0.184 HD
BRANCH  18  20
HETATM   20  C15 UNL     1      51.250  -5.123  16.554  1.00  0.00     0.049 A 
HETATM   21  C16 UNL     1      50.583  -6.103  17.292  1.00  0.00     0.030 A 
HETATM   22  C17 UNL     1      51.342  -6.993  18.005  1.00  0.00     0.002 A 
HETATM   23  C18 UNL     1      52.726  -6.909  17.984  1.00  0.00     0.000 A 
HETATM   24  C19 UNL     1      53.370  -5.930  17.245  1.00  0.00     0.002 A 
HETATM   25  C20 UNL     1      52.621  -5.029  16.524  1.00  0.00     0.030 A 
ENDBRANCH  18  20
ENDBRANCH  14  18
ENDBRANCH   6   7
BRANCH   6  26
HETATM   26  O1  UNL     1      50.892   2.350  16.729  1.00  0.00    -0.368 OA
ATOM     27  H1  UNL     1      51.209   3.154  17.122  1.00  0.00     0.212 HD
ENDBRANCH   6  26
ENDBRANCH   3   6
ENDBRANCH   1   2
BRANCH   1  28
HETATM   28  C8  UNL     1      54.306   4.564  19.204  1.00  0.00     0.402 C 
BRANCH  28  29
HETATM   29  N3  UNL     1      55.251   4.572  20.297  1.00  0.00    -0.048 N 
ATOM     30  H33 UNL     1      54.784   4.352  21.177  1.00  0.00     0.276 HD
ATOM     31  H32 UNL     1      55.881   3.774  20.234  1.00  0.00     0.276 HD
ATOM     32  H31 UNL     1      55.778   5.441  20.378  1.00  0.00     0.276 HD
ENDBRANCH  28  29
BRANCH  28  33
HETATM   33  N4  UNL     1      54.046   5.913  18.737  1.00  0.00    -0.048 N 
ATOM     34  H43 UNL     1      53.634   5.906  17.804  1.00  0.00     0.276 HD
ATOM     35  H42 UNL     1      53.276   6.338  19.253  1.00  0.00     0.276 HD
ATOM     36  H41 UNL     1      54.878   6.503  18.767  1.00  0.00     0.276 HD
ENDBRANCH  28  33
ENDBRANCH   1  28
BRANCH   1  37
HETATM   37  C9  UNL     1      55.600   4.319  17.076  1.00  0.00     0.121 C 
HETATM   38  C10 UNL     1      55.034   4.153  15.683  1.00  0.00     0.035 C 
BRANCH  37  39
HETATM   39  N5  UNL     1      56.866   3.665  17.146  1.00  0.00    -0.217 N 
ATOM     40  H5  UNL     1      57.709   4.241  17.138  1.00  0.00     0.178 HD
BRANCH  39  41
HETATM   41  C11 UNL     1      57.001   2.384  17.220  1.00  0.00     0.716 A 
HETATM   42  N6  UNL     1      56.814   1.456  16.263  1.00  0.00    -0.129 N 
HETATM   43  N7  UNL     1      57.057   0.252  16.752  1.00  0.00    -0.265 N 
ATOM     44  H6  UNL     1      56.528   1.652  15.304  1.00  0.00     0.205 HD
HETATM   45  C12 UNL     1      57.414   0.359  18.054  1.00  0.00     0.225 A 
ATOM     46  H7  UNL     1      56.987  -0.622  16.230  1.00  0.00     0.189 HD
HETATM   47  N9  UNL     1      57.369   1.700  18.315  1.00  0.00    -0.069 N 
BRANCH  45  48
HETATM   48  C13 UNL     1      57.766  -0.705  18.974  1.00  0.00     0.302 C 
HETATM   49  N8  UNL     1      56.895  -1.794  19.146  1.00  0.00    -0.054 NA
HETATM   50  O3  UNL     1      58.835  -0.651  19.606  1.00  0.00    -0.268 OA
ENDBRANCH  45  48
BRANCH  47  51
HETATM   51  N10 UNL     1      57.664   2.265  19.546  1.00  0.00    -0.322 N 
ATOM     52 2H10 UNL     1      57.295   1.928  20.435  1.00  0.00     0.178 HD
ATOM     53 1H10 UNL     1      58.275   3.069  19.691  1.00  0.00     0.178 HD
ENDBRANCH  47  51
ENDBRANCH  39  41
ENDBRANCH  37  39
ENDBRANCH   1  37
TORSDOF 14
ENDMDL
MODEL 5
REMARK VINA RESULT: -6.574592035      3.370      4.763
REMARK  14 active torsions:
REMARK  status: ('A' for Active; 'I' for Inactive)
REMARK    1  A    between atoms: N1_5  and  C5_7 
REMARK    2  A    between atoms: C5_7  and  O1_8 
REMARK    3  A    between atoms: C5_7  and  C6_10 
REMARK       I    between atoms: C6_10  and  N2_12 
REMARK    4  A    between atoms: N2_12  and  C7_14 
REMARK    5  A    between atoms: C7_14  and  C8_15 
REMARK    6  A    between atoms: C7_14  and  C9_24 
REMARK    7  A    between atoms: C8_15  and  N3_16 
REMARK    8  A    between atoms: C8_15  and  N4_20 
REMARK    9  A    between atoms: C9_24  and  N5_26 
REMARK   10  A    between atoms: N5_26  and  C11_28 
REMARK   11  A    between atoms: C12_33  and  C13_34 
REMARK   12  A    between atoms: N9_37  and  N10_38 
REMARK   13  A    between atoms: C14_43  and  N12_44 
REMARK   14  A    between atoms: N12_44  and  C15_46 
ROOT
HETATM    1  C7  UNL     1      53.315   2.393  16.866  1.00  0.00     0.165 C 
ENDROOT
BRANCH   1   2
HETATM    2  N2  UNL     1      53.802   1.316  16.023  1.00  0.00    -0.347 N 
HETATM    3  C6  UNL     1      54.941   0.551  16.368  1.00  0.00     0.267 C 
HETATM    4  O2  UNL     1      55.602   0.742  17.405  1.00  0.00    -0.269 OA
ATOM      5  H2  UNL     1      53.308   1.104  15.157  1.00  0.00     0.163 HD
BRANCH   3   6
HETATM    6  C5  UNL     1      55.386  -0.534  15.461  1.00  0.00     0.313 C 
BRANCH   6   7
HETATM    7  N1  UNL     1      54.438  -1.566  15.239  1.00  0.00    -0.342 N 
HETATM    8  C4  UNL     1      54.239  -2.544  16.025  1.00  0.00     0.121 A 
HETATM    9  C3  UNL     1      54.901  -2.765  17.207  1.00  0.00     0.074 A 
HETATM   10  N11 UNL     1      53.291  -3.490  15.709  1.00  0.00    -0.177 N 
HETATM   11  C2  UNL     1      54.641  -3.865  18.037  1.00  0.00     0.026 A 
HETATM   12  C1  UNL     1      55.381  -4.065  19.308  1.00  0.00     0.069 C 
HETATM   13  N13 UNL     1      53.693  -4.724  17.628  1.00  0.00    -0.196 N 
HETATM   14  C14 UNL     1      53.018  -4.549  16.476  1.00  0.00     0.684 A 
ATOM     15  H13 UNL     1      53.477  -5.535  18.208  1.00  0.00     0.184 HD
ATOM     16  H11 UNL     1      52.768  -3.377  14.841  1.00  0.00     0.186 HD
ATOM     17  H1  UNL     1      53.876  -1.519  14.389  1.00  0.00     0.164 HD
BRANCH  14  18
HETATM   18  N12 UNL     1      52.107  -5.391  16.100  1.00  0.00    -0.192 N 
ATOM     19  H12 UNL     1      52.375  -6.129  15.449  1.00  0.00     0.184 HD
BRANCH  18  20
HETATM   20  C15 UNL     1      50.777  -5.347  16.539  1.00  0.00     0.049 A 
HETATM   21  C16 UNL     1      50.182  -4.087  16.648  1.00  0.00     0.030 A 
HETATM   22  C17 UNL     1      48.882  -4.031  17.075  1.00  0.00     0.002 A 
HETATM   23  C18 UNL     1      48.193  -5.193  17.384  1.00  0.00     0.000 A 
HETATM   24  C19 UNL     1      48.800  -6.434  17.269  1.00  0.00     0.002 A 
HETATM   25  C20 UNL     1      50.106  -6.507  16.841  1.00  0.00     0.030 A 
ENDBRANCH  18  20
ENDBRANCH  14  18
ENDBRANCH   6   7
BRANCH   6  26
HETATM   26  O1  UNL     1      55.929  -0.095  14.278  1.00  0.00    -0.368 OA
ATOM     27  H1  UNL     1      56.879  -0.098  14.313  1.00  0.00     0.212 HD
ENDBRANCH   6  26
ENDBRANCH   3   6
ENDBRANCH   1   2
BRANCH   1  28
HETATM   28  C8  UNL     1      51.997   1.969  17.428  1.00  0.00     0.402 C 
BRANCH  28  29
HETATM   29  N3  UNL     1      51.522   0.708  16.905  1.00  0.00    -0.048 N 
ATOM     30  H33 UNL     1      51.832  -0.065  17.493  1.00  0.00     0.276 HD
ATOM     31  H32 UNL     1      50.513   0.624  17.031  1.00  0.00     0.276 HD
ATOM     32  H31 UNL     1      51.777   0.543  15.932  1.00  0.00     0.276 HD
ENDBRANCH  28  29
BRANCH  28  33
HETATM   33  N4  UNL     1      51.988   1.962  18.878  1.00  0.00    -0.048 N 
ATOM     34  H43 UNL     1      52.435   2.799  19.252  1.00  0.00     0.276 HD
ATOM     35  H42 UNL     1      51.045   2.104  19.240  1.00  0.00     0.276 HD
ATOM     36  H41 UNL     1      52.407   1.117  19.267  1.00  0.00     0.276 HD
ENDBRANCH  28  33
ENDBRANCH   1  28
BRANCH   1  37
HETATM   37  C9  UNL     1      53.192   3.694  16.064  1.00  0.00     0.121 C 
HETATM   38  C10 UNL     1      53.632   3.455  14.637  1.00  0.00     0.035 C 
BRANCH  37  39
HETATM   39  N5  UNL     1      54.064   4.648  16.668  1.00  0.00    -0.217 N 
ATOM     40  H5  UNL     1      54.375   5.442  16.108  1.00  0.00     0.178 HD
BRANCH  39  41
HETATM   41  C11 UNL     1      54.479   4.559  17.887  1.00  0.00     0.716 A 
HETATM   42  N6  UNL     1      53.861   4.935  19.022  1.00  0.00    -0.129 N 
HETATM   43  N7  UNL     1      54.633   4.669  20.063  1.00  0.00    -0.265 N 
ATOM     44  H6  UNL     1      52.936   5.361  19.073  1.00  0.00     0.205 HD
HETATM   45  C12 UNL     1      55.788   4.105  19.633  1.00  0.00     0.225 A 
ATOM     46  H7  UNL     1      54.396   4.858  21.037  1.00  0.00     0.189 HD
HETATM   47  N9  UNL     1      55.661   4.051  18.274  1.00  0.00    -0.069 N 
BRANCH  45  48
HETATM   48  C13 UNL     1      56.913   3.658  20.431  1.00  0.00     0.302 C 
HETATM   49  N8  UNL     1      57.465   2.386  20.205  1.00  0.00    -0.054 NA
HETATM   50  O3  UNL     1      57.384   4.399  21.310  1.00  0.00    -0.268 OA
ENDBRANCH  45  48
BRANCH  47  51
HETATM   51  N10 UNL     1      56.626   3.540  17.421  1.00  0.00    -0.322 N 
ATOM     52 2H10 UNL     1      56.814   3.901  16.485  1.00  0.00     0.178 HD
ATOM     53 1H10 UNL     1      57.244   2.757  17.636  1.00  0.00     0.178 HD
ENDBRANCH  47  51
ENDBRANCH  39  41
ENDBRANCH  37  39
ENDBRANCH   1  37
TORSDOF 14
ENDMDL
