MODEL 1
REMARK VINA RESULT: -8.411266518      0.000      0.000
REMARK  11 active torsions:
REMARK  status: ('A' for Active; 'I' for Inactive)
REMARK    1  A    between atoms: C4_4  and  N1_5 
REMARK    2  A    between atoms: N1_5  and  C5_7 
REMARK    3  A    between atoms: C8_12  and  N3_13 
REMARK    4  A    between atoms: N3_13  and  C9_15 
REMARK    5  A    between atoms: C9_15  and  S1_16 
REMARK    6  A    between atoms: S1_16  and  C10_17 
REMARK    7  A    between atoms: C10_17  and  C11_18 
REMARK       I    between atoms: C11_18  and  N4_20 
REMARK    8  A    between atoms: N4_20  and  N5_22 
REMARK    9  A    between atoms: N5_22  and  S2_24 
REMARK   10  A    between atoms: S2_24  and  C12_27 
REMARK   11  A    between atoms: C15_31  and  N6_32 
ROOT
HETATM    1  C11 UNL     1       3.331   6.001  23.559  1.00  0.00     0.245 C 
HETATM    2  O1  UNL     1       3.139   4.790  23.799  1.00  0.00    -0.271 OA
HETATM    3  N4  UNL     1       4.392   6.395  22.697  1.00  0.00    -0.260 N 
ATOM      4  H4  UNL     1       4.553   7.382  22.497  1.00  0.00     0.190 HD
ENDROOT
BRANCH   1   5
HETATM    5  C10 UNL     1       2.434   6.997  24.192  1.00  0.00     0.180 C 
BRANCH   5   6
HETATM    6  S1  UNL     1       3.185   8.643  23.947  1.00  0.00    -0.140 SA
BRANCH   6   7
HETATM    7  C9  UNL     1       4.227   9.053  25.401  1.00  0.00     0.212 C 
BRANCH   7   8
HETATM    8  N3  UNL     1       5.374   8.221  25.339  1.00  0.00    -0.217 N 
ATOM      9  H3  UNL     1       5.228   7.217  25.441  1.00  0.00     0.178 HD
BRANCH   8  10
HETATM   10  C8  UNL     1       6.574   8.623  25.168  1.00  0.00     0.680 A 
HETATM   11  N2  UNL     1       6.763   9.323  24.011  1.00  0.00    -0.177 N 
HETATM   12  C4  UNL     1       7.971   9.811  23.678  1.00  0.00     0.119 A 
ATOM     13  H2  UNL     1       5.972   9.479  23.386  1.00  0.00     0.185 HD
HETATM   14  C3  UNL     1       8.998   9.565  24.567  1.00  0.00     0.073 A 
HETATM   15  C2  UNL     1       8.829   8.860  25.741  1.00  0.00     0.026 A 
HETATM   16  C1  UNL     1       9.932   8.599  26.693  1.00  0.00     0.069 C 
HETATM   17  N7  UNL     1       7.596   8.400  26.015  1.00  0.00    -0.196 N 
ATOM     18  H7  UNL     1       7.433   7.876  26.874  1.00  0.00     0.184 HD
BRANCH  12  19
HETATM   19  N1  UNL     1       8.123  10.468  22.580  1.00  0.00    -0.371 N 
ATOM     20  H1  UNL     1       9.075  10.738  22.333  1.00  0.00     0.161 HD
BRANCH  19  21
HETATM   21  C5  UNL     1       7.098  10.850  21.682  1.00  0.00     0.083 A 
HETATM   22  C6  UNL     1       7.328  10.651  20.224  1.00  0.00     0.027 A 
HETATM   23  C7  UNL     1       7.307  12.021  20.754  1.00  0.00     0.027 A 
ENDBRANCH  19  21
ENDBRANCH  12  19
ENDBRANCH   8  10
ENDBRANCH   7   8
ENDBRANCH   6   7
ENDBRANCH   5   6
ENDBRANCH   1   5
BRANCH   3  24
HETATM   24  N5  UNL     1       5.211   5.416  22.127  1.00  0.00    -0.220 N 
ATOM     25  H5  UNL     1       5.963   4.952  22.635  1.00  0.00     0.200 HD
BRANCH  24  26
HETATM   26  S2  UNL     1       4.829   5.070  20.493  1.00  0.00     0.279 S 
HETATM   27  O2  UNL     1       3.438   4.508  20.438  1.00  0.00    -0.199 OA
HETATM   28  O3  UNL     1       4.838   6.336  19.676  1.00  0.00    -0.199 OA
BRANCH  26  29
HETATM   29  C12 UNL     1       5.942   3.925  19.793  1.00  0.00     0.124 A 
HETATM   30  C13 UNL     1       6.442   2.907  20.578  1.00  0.00     0.061 A 
HETATM   31 CL1  UNL     1       6.000   2.713  22.266  1.00  0.00    -0.083 Cl
HETATM   32  C14 UNL     1       7.320   1.994  20.027  1.00  0.00     0.061 A 
HETATM   33  C15 UNL     1       7.666   2.140  18.699  1.00  0.00     0.106 A 
HETATM   34  C16 UNL     1       7.162   3.165  17.916  1.00  0.00     0.061 A 
HETATM   35  C17 UNL     1       6.283   4.086  18.449  1.00  0.00     0.061 A 
HETATM   36 CL2  UNL     1       5.624   5.396  17.493  1.00  0.00    -0.083 Cl
BRANCH  33  37
HETATM   37  N6  UNL     1       8.575   1.193  18.124  1.00  0.00    -0.116 N 
HETATM   38  O4  UNL     1       8.314   0.690  17.018  1.00  0.00    -0.532 OA
HETATM   39  O5  UNL     1       9.714   0.826  18.760  1.00  0.00    -0.532 OA
ENDBRANCH  33  37
ENDBRANCH  26  29
ENDBRANCH  24  26
ENDBRANCH   3  24
TORSDOF 11
ENDMDL
MODEL 2
REMARK VINA RESULT: -8.395199370      1.701      3.643
REMARK  11 active torsions:
REMARK  status: ('A' for Active; 'I' for Inactive)
REMARK    1  A    between atoms: C4_4  and  N1_5 
REMARK    2  A    between atoms: N1_5  and  C5_7 
REMARK    3  A    between atoms: C8_12  and  N3_13 
REMARK    4  A    between atoms: N3_13  and  C9_15 
REMARK    5  A    between atoms: C9_15  and  S1_16 
REMARK    6  A    between atoms: S1_16  and  C10_17 
REMARK    7  A    between atoms: C10_17  and  C11_18 
REMARK       I    between atoms: C11_18  and  N4_20 
REMARK    8  A    between atoms: N4_20  and  N5_22 
REMARK    9  A    between atoms: N5_22  and  S2_24 
REMARK   10  A    between atoms: S2_24  and  C12_27 
REMARK   11  A    between atoms: C15_31  and  N6_32 
ROOT
HETATM    1  C11 UNL     1       6.211   6.883  20.877  1.00  0.00     0.245 C 
HETATM    2  O1  UNL     1       5.857   7.081  22.059  1.00  0.00    -0.271 OA
HETATM    3  N4  UNL     1       5.411   6.075  20.022  1.00  0.00    -0.260 N 
ATOM      4  H4  UNL     1       5.695   5.910  19.056  1.00  0.00     0.190 HD
ENDROOT
BRANCH   1   5
HETATM    5  C10 UNL     1       7.471   7.505  20.404  1.00  0.00     0.180 C 
BRANCH   5   6
HETATM    6  S1  UNL     1       7.087   9.225  19.929  1.00  0.00    -0.140 SA
BRANCH   6   7
HETATM    7  C9  UNL     1       7.492  10.341  21.328  1.00  0.00     0.212 C 
BRANCH   7   8
HETATM    8  N3  UNL     1       8.508   9.708  22.086  1.00  0.00    -0.217 N 
ATOM      9  H3  UNL     1       9.381   9.489  21.607  1.00  0.00     0.178 HD
BRANCH   8  10
HETATM   10  C8  UNL     1       8.422   9.386  23.320  1.00  0.00     0.680 A 
HETATM   11  N2  UNL     1       7.175   8.979  23.700  1.00  0.00    -0.177 N 
HETATM   12  C4  UNL     1       6.917   8.611  24.968  1.00  0.00     0.119 A 
ATOM     13  H2  UNL     1       6.426   8.953  23.010  1.00  0.00     0.185 HD
HETATM   14  C3  UNL     1       7.976   8.669  25.851  1.00  0.00     0.073 A 
HETATM   15  C2  UNL     1       9.243   9.077  25.489  1.00  0.00     0.026 A 
HETATM   16  C1  UNL     1      10.376   9.137  26.439  1.00  0.00     0.069 C 
HETATM   17  N7  UNL     1       9.434   9.431  24.206  1.00  0.00    -0.196 N 
ATOM     18  H7  UNL     1      10.358   9.737  23.900  1.00  0.00     0.184 HD
BRANCH  12  19
HETATM   19  N1  UNL     1       5.731   8.232  25.301  1.00  0.00    -0.371 N 
ATOM     20  H1  UNL     1       5.664   7.502  26.011  1.00  0.00     0.161 HD
BRANCH  19  21
HETATM   21  C5  UNL     1       4.514   8.729  24.780  1.00  0.00     0.083 A 
HETATM   22  C6  UNL     1       3.439   9.110  25.739  1.00  0.00     0.027 A 
HETATM   23  C7  UNL     1       3.251   7.913  24.907  1.00  0.00     0.027 A 
ENDBRANCH  19  21
ENDBRANCH  12  19
ENDBRANCH   8  10
ENDBRANCH   7   8
ENDBRANCH   6   7
ENDBRANCH   5   6
ENDBRANCH   1   5
BRANCH   3  24
HETATM   24  N5  UNL     1       4.233   5.509  20.519  1.00  0.00    -0.220 N 
ATOM     25  H5  UNL     1       3.622   5.984  21.183  1.00  0.00     0.200 HD
BRANCH  24  26
HETATM   26  S2  UNL     1       3.914   3.942  19.903  1.00  0.00     0.279 S 
HETATM   27  O2  UNL     1       3.254   3.133  20.980  1.00  0.00    -0.199 OA
HETATM   28  O3  UNL     1       2.953   4.023  18.744  1.00  0.00    -0.199 OA
BRANCH  26  29
HETATM   29  C12 UNL     1       5.373   3.138  19.387  1.00  0.00     0.124 A 
HETATM   30  C13 UNL     1       5.618   2.987  18.038  1.00  0.00     0.061 A 
HETATM   31 CL1  UNL     1       4.513   3.576  16.807  1.00  0.00    -0.083 Cl
HETATM   32  C14 UNL     1       6.774   2.356  17.625  1.00  0.00     0.061 A 
HETATM   33  C15 UNL     1       7.647   1.897  18.589  1.00  0.00     0.106 A 
HETATM   34  C16 UNL     1       7.397   2.050  19.942  1.00  0.00     0.061 A 
HETATM   35  C17 UNL     1       6.247   2.679  20.375  1.00  0.00     0.061 A 
HETATM   36 CL2  UNL     1       5.892   2.891  22.075  1.00  0.00    -0.083 Cl
BRANCH  33  37
HETATM   37  N6  UNL     1       8.850   1.243  18.163  1.00  0.00    -0.116 N 
HETATM   38  O4  UNL     1       9.951   1.691  18.527  1.00  0.00    -0.532 OA
HETATM   39  O5  UNL     1       8.819   0.147  17.366  1.00  0.00    -0.532 OA
ENDBRANCH  33  37
ENDBRANCH  26  29
ENDBRANCH  24  26
ENDBRANCH   3  24
TORSDOF 11
ENDMDL
MODEL 3
REMARK VINA RESULT: -8.318884820      2.081      3.876
REMARK  11 active torsions:
REMARK  status: ('A' for Active; 'I' for Inactive)
REMARK    1  A    between atoms: C4_4  and  N1_5 
REMARK    2  A    between atoms: N1_5  and  C5_7 
REMARK    3  A    between atoms: C8_12  and  N3_13 
REMARK    4  A    between atoms: N3_13  and  C9_15 
REMARK    5  A    between atoms: C9_15  and  S1_16 
REMARK    6  A    between atoms: S1_16  and  C10_17 
REMARK    7  A    between atoms: C10_17  and  C11_18 
REMARK       I    between atoms: C11_18  and  N4_20 
REMARK    8  A    between atoms: N4_20  and  N5_22 
REMARK    9  A    between atoms: N5_22  and  S2_24 
REMARK   10  A    between atoms: S2_24  and  C12_27 
REMARK   11  A    between atoms: C15_31  and  N6_32 
ROOT
HETATM    1  C11 UNL     1       7.108   9.586  19.155  1.00  0.00     0.245 C 
HETATM    2  O1  UNL     1       8.247   9.252  19.543  1.00  0.00    -0.271 OA
HETATM    3  N4  UNL     1       6.063   8.622  19.105  1.00  0.00    -0.260 N 
ATOM      4  H4  UNL     1       5.130   8.889  18.789  1.00  0.00     0.190 HD
ENDROOT
BRANCH   1   5
HETATM    5  C10 UNL     1       6.883  10.996  18.752  1.00  0.00     0.180 C 
BRANCH   5   6
HETATM    6  S1  UNL     1       7.256  12.043  20.200  1.00  0.00    -0.140 SA
BRANCH   6   7
HETATM    7  C9  UNL     1       6.717  11.177  21.726  1.00  0.00     0.212 C 
BRANCH   7   8
HETATM    8  N3  UNL     1       7.890  10.760  22.404  1.00  0.00    -0.217 N 
ATOM      9  H3  UNL     1       8.786  11.040  22.003  1.00  0.00     0.178 HD
BRANCH   8  10
HETATM   10  C8  UNL     1       7.921  10.062  23.474  1.00  0.00     0.680 A 
HETATM   11  N2  UNL     1       6.728   9.475  23.786  1.00  0.00    -0.177 N 
HETATM   12  C4  UNL     1       6.592   8.712  24.885  1.00  0.00     0.119 A 
ATOM     13  H2  UNL     1       5.925   9.618  23.174  1.00  0.00     0.185 HD
HETATM   14  C3  UNL     1       7.717   8.560  25.669  1.00  0.00     0.073 A 
HETATM   15  C2  UNL     1       8.931   9.144  25.373  1.00  0.00     0.026 A 
HETATM   16  C1  UNL     1      10.136   8.977  26.216  1.00  0.00     0.069 C 
HETATM   17  N7  UNL     1       9.001   9.894  24.260  1.00  0.00    -0.196 N 
ATOM     18  H7  UNL     1       9.882  10.341  24.007  1.00  0.00     0.184 HD
BRANCH  12  19
HETATM   19  N1  UNL     1       5.455   8.170  25.158  1.00  0.00    -0.371 N 
ATOM     20  H1  UNL     1       5.459   7.410  25.838  1.00  0.00     0.161 HD
BRANCH  19  21
HETATM   21  C5  UNL     1       4.202   8.525  24.605  1.00  0.00     0.083 A 
HETATM   22  C6  UNL     1       3.472   9.680  25.198  1.00  0.00     0.027 A 
HETATM   23  C7  UNL     1       2.940   8.327  25.409  1.00  0.00     0.027 A 
ENDBRANCH  19  21
ENDBRANCH  12  19
ENDBRANCH   8  10
ENDBRANCH   7   8
ENDBRANCH   6   7
ENDBRANCH   5   6
ENDBRANCH   1   5
BRANCH   3  24
HETATM   24  N5  UNL     1       6.328   7.305  19.493  1.00  0.00    -0.220 N 
ATOM     25  H5  UNL     1       6.955   7.063  20.260  1.00  0.00     0.200 HD
BRANCH  24  26
HETATM   26  S2  UNL     1       5.497   6.135  18.556  1.00  0.00     0.279 S 
HETATM   27  O2  UNL     1       4.184   5.840  19.219  1.00  0.00    -0.199 OA
HETATM   28  O3  UNL     1       5.197   6.683  17.184  1.00  0.00    -0.199 OA
BRANCH  26  29
HETATM   29  C12 UNL     1       6.411   4.659  18.400  1.00  0.00     0.124 A 
HETATM   30  C13 UNL     1       7.214   4.251  19.444  1.00  0.00     0.061 A 
HETATM   31 CL1  UNL     1       7.357   5.164  20.937  1.00  0.00    -0.083 Cl
HETATM   32  C14 UNL     1       7.936   3.079  19.328  1.00  0.00     0.061 A 
HETATM   33  C15 UNL     1       7.822   2.356  18.158  1.00  0.00     0.106 A 
HETATM   34  C16 UNL     1       7.015   2.770  17.112  1.00  0.00     0.061 A 
HETATM   35  C17 UNL     1       6.286   3.938  17.210  1.00  0.00     0.061 A 
HETATM   36 CL2  UNL     1       5.255   4.497  15.912  1.00  0.00    -0.083 Cl
BRANCH  33  37
HETATM   37  N6  UNL     1       8.568   1.139  18.035  1.00  0.00    -0.116 N 
HETATM   38  O4  UNL     1       8.300   0.347  17.116  1.00  0.00    -0.532 OA
HETATM   39  O5  UNL     1       9.561   0.823  18.903  1.00  0.00    -0.532 OA
ENDBRANCH  33  37
ENDBRANCH  26  29
ENDBRANCH  24  26
ENDBRANCH   3  24
TORSDOF 11
ENDMDL
MODEL 4
REMARK VINA RESULT: -8.293932297      2.116      3.839
REMARK  11 active torsions:
REMARK  status: ('A' for Active; 'I' for Inactive)
REMARK    1  A    between atoms: C4_4  and  N1_5 
REMARK    2  A    between atoms: N1_5  and  C5_7 
REMARK    3  A    between atoms: C8_12  and  N3_13 
REMARK    4  A    between atoms: N3_13  and  C9_15 
REMARK    5  A    between atoms: C9_15  and  S1_16 
REMARK    6  A    between atoms: S1_16  and  C10_17 
REMARK    7  A    between atoms: C10_17  and  C11_18 
REMARK       I    between atoms: C11_18  and  N4_20 
REMARK    8  A    between atoms: N4_20  and  N5_22 
REMARK    9  A    between atoms: N5_22  and  S2_24 
REMARK   10  A    between atoms: S2_24  and  C12_27 
REMARK   11  A    between atoms: C15_31  and  N6_32 
ROOT
HETATM    1  C11 UNL     1       5.691   8.606  19.975  1.00  0.00     0.245 C 
HETATM    2  O1  UNL     1       5.713   8.245  21.171  1.00  0.00    -0.271 OA
HETATM    3  N4  UNL     1       5.931   7.658  18.942  1.00  0.00    -0.260 N 
ATOM      4  H4  UNL     1       5.914   7.947  17.964  1.00  0.00     0.190 HD
ENDROOT
BRANCH   1   5
HETATM    5  C10 UNL     1       5.414  10.031  19.672  1.00  0.00     0.180 C 
BRANCH   5   6
HETATM    6  S1  UNL     1       6.984  10.944  19.856  1.00  0.00    -0.140 SA
BRANCH   6   7
HETATM    7  C9  UNL     1       7.297  11.254  21.638  1.00  0.00     0.212 C 
BRANCH   7   8
HETATM    8  N3  UNL     1       8.107  10.190  22.109  1.00  0.00    -0.217 N 
ATOM      9  H3  UNL     1       8.771   9.782  21.451  1.00  0.00     0.178 HD
BRANCH   8  10
HETATM   10  C8  UNL     1       8.075   9.699  23.289  1.00  0.00     0.680 A 
HETATM   11  N2  UNL     1       6.853   9.209  23.651  1.00  0.00    -0.177 N 
HETATM   12  C4  UNL     1       6.651   8.662  24.863  1.00  0.00     0.119 A 
ATOM     13  H2  UNL     1       6.079   9.258  22.989  1.00  0.00     0.185 HD
HETATM   14  C3  UNL     1       7.741   8.627  25.709  1.00  0.00     0.073 A 
HETATM   15  C2  UNL     1       8.983   9.116  25.364  1.00  0.00     0.026 A 
HETATM   16  C1  UNL     1      10.150   9.076  26.274  1.00  0.00     0.069 C 
HETATM   17  N7  UNL     1       9.119   9.649  24.137  1.00  0.00    -0.196 N 
ATOM     18  H7  UNL     1      10.023  10.020  23.845  1.00  0.00     0.184 HD
BRANCH  12  19
HETATM   19  N1  UNL     1       5.488   8.208  25.181  1.00  0.00    -0.371 N 
ATOM     20  H1  UNL     1       5.460   7.448  25.860  1.00  0.00     0.161 HD
BRANCH  19  21
HETATM   21  C5  UNL     1       4.245   8.660  24.679  1.00  0.00     0.083 A 
HETATM   22  C6  UNL     1       3.375   9.471  25.576  1.00  0.00     0.027 A 
HETATM   23  C7  UNL     1       2.959   8.103  25.239  1.00  0.00     0.027 A 
ENDBRANCH  19  21
ENDBRANCH  12  19
ENDBRANCH   8  10
ENDBRANCH   7   8
ENDBRANCH   6   7
ENDBRANCH   5   6
ENDBRANCH   1   5
BRANCH   3  24
HETATM   24  N5  UNL     1       6.191   6.327  19.281  1.00  0.00    -0.220 N 
ATOM     25  H5  UNL     1       6.654   6.051  20.146  1.00  0.00     0.200 HD
BRANCH  24  26
HETATM   26  S2  UNL     1       5.655   5.204  18.103  1.00  0.00     0.279 S 
HETATM   27  O2  UNL     1       4.253   4.791  18.442  1.00  0.00    -0.199 OA
HETATM   28  O3  UNL     1       5.619   5.852  16.743  1.00  0.00    -0.199 OA
BRANCH  26  29
HETATM   29  C12 UNL     1       6.674   3.791  18.041  1.00  0.00     0.124 A 
HETATM   30  C13 UNL     1       6.715   3.040  16.885  1.00  0.00     0.061 A 
HETATM   31 CL1  UNL     1       5.776   3.451  15.459  1.00  0.00    -0.083 Cl
HETATM   32  C14 UNL     1       7.526   1.923  16.829  1.00  0.00     0.061 A 
HETATM   33  C15 UNL     1       8.269   1.600  17.946  1.00  0.00     0.106 A 
HETATM   34  C16 UNL     1       8.224   2.356  19.105  1.00  0.00     0.061 A 
HETATM   35  C17 UNL     1       7.421   3.476  19.179  1.00  0.00     0.061 A 
HETATM   36 CL2  UNL     1       7.334   4.458  20.624  1.00  0.00    -0.083 Cl
BRANCH  33  37
HETATM   37  N6  UNL     1       9.113   0.443  17.890  1.00  0.00    -0.116 N 
HETATM   38  O4  UNL     1       8.881  -0.443  17.050  1.00  0.00    -0.532 OA
HETATM   39  O5  UNL     1      10.160   0.285  18.736  1.00  0.00    -0.532 OA
ENDBRANCH  33  37
ENDBRANCH  26  29
ENDBRANCH  24  26
ENDBRANCH   3  24
TORSDOF 11
ENDMDL
MODEL 5
REMARK VINA RESULT: -8.254240254      2.672      4.938
REMARK  11 active torsions:
REMARK  status: ('A' for Active; 'I' for Inactive)
REMARK    1  A    between atoms: C4_4  and  N1_5 
REMARK    2  A    between atoms: N1_5  and  C5_7 
REMARK    3  A    between atoms: C8_12  and  N3_13 
REMARK    4  A    between atoms: N3_13  and  C9_15 
REMARK    5  A    between atoms: C9_15  and  S1_16 
REMARK    6  A    between atoms: S1_16  and  C10_17 
REMARK    7  A    between atoms: C10_17  and  C11_18 
REMARK       I    between atoms: C11_18  and  N4_20 
REMARK    8  A    between atoms: N4_20  and  N5_22 
REMARK    9  A    between atoms: N5_22  and  S2_24 
REMARK   10  A    between atoms: S2_24  and  C12_27 
REMARK   11  A    between atoms: C15_31  and  N6_32 
ROOT
HETATM    1  C11 UNL     1       7.685   9.256  19.607  1.00  0.00     0.245 C 
HETATM    2  O1  UNL     1       8.797   9.213  20.176  1.00  0.00    -0.271 OA
HETATM    3  N4  UNL     1       6.855   8.102  19.581  1.00  0.00    -0.260 N 
ATOM      4  H4  UNL     1       5.946   8.131  19.119  1.00  0.00     0.190 HD
ENDROOT
BRANCH   1   5
HETATM    5  C10 UNL     1       7.268  10.528  18.968  1.00  0.00     0.180 C 
BRANCH   5   6
HETATM    6  S1  UNL     1       7.281  11.818  20.258  1.00  0.00    -0.140 SA
BRANCH   6   7
HETATM    7  C9  UNL     1       6.718  11.089  21.846  1.00  0.00     0.212 C 
BRANCH   7   8
HETATM    8  N3  UNL     1       7.874  10.868  22.636  1.00  0.00    -0.217 N 
ATOM      9  H3  UNL     1       8.728  11.352  22.359  1.00  0.00     0.178 HD
BRANCH   8  10
HETATM   10  C8  UNL     1       7.938  10.112  23.665  1.00  0.00     0.680 A 
HETATM   11  N2  UNL     1       6.761   9.489  23.966  1.00  0.00    -0.177 N 
HETATM   12  C4  UNL     1       6.658   8.663  25.023  1.00  0.00     0.119 A 
ATOM     13  H2  UNL     1       5.943   9.652  23.378  1.00  0.00     0.185 HD
HETATM   14  C3  UNL     1       7.801   8.486  25.776  1.00  0.00     0.073 A 
HETATM   15  C2  UNL     1       9.000   9.106  25.489  1.00  0.00     0.026 A 
HETATM   16  C1  UNL     1      10.224   8.913  26.299  1.00  0.00     0.069 C 
HETATM   17  N7  UNL     1       9.035   9.919  24.419  1.00  0.00    -0.196 N 
ATOM     18  H7  UNL     1       9.905  10.394  24.175  1.00  0.00     0.184 HD
BRANCH  12  19
HETATM   19  N1  UNL     1       5.535   8.088  25.286  1.00  0.00    -0.371 N 
ATOM     20  H1  UNL     1       5.468   7.596  26.178  1.00  0.00     0.161 HD
BRANCH  19  21
HETATM   21  C5  UNL     1       4.387   8.071  24.460  1.00  0.00     0.083 A 
HETATM   22  C6  UNL     1       3.509   9.274  24.448  1.00  0.00     0.027 A 
HETATM   23  C7  UNL     1       3.012   8.045  25.081  1.00  0.00     0.027 A 
ENDBRANCH  19  21
ENDBRANCH  12  19
ENDBRANCH   8  10
ENDBRANCH   7   8
ENDBRANCH   6   7
ENDBRANCH   5   6
ENDBRANCH   1   5
BRANCH   3  24
HETATM   24  N5  UNL     1       7.297   6.926  20.197  1.00  0.00    -0.220 N 
ATOM     25  H5  UNL     1       7.992   6.914  20.943  1.00  0.00     0.200 HD
BRANCH  24  26
HETATM   26  S2  UNL     1       6.558   5.510  19.577  1.00  0.00     0.279 S 
HETATM   27  O2  UNL     1       5.716   5.891  18.395  1.00  0.00    -0.199 OA
HETATM   28  O3  UNL     1       7.608   4.544  19.092  1.00  0.00    -0.199 OA
BRANCH  26  29
HETATM   29  C12 UNL     1       5.558   4.724  20.770  1.00  0.00     0.124 A 
HETATM   30  C13 UNL     1       5.785   3.397  21.070  1.00  0.00     0.061 A 
HETATM   31 CL1  UNL     1       7.050   2.458  20.296  1.00  0.00    -0.083 Cl
HETATM   32  C14 UNL     1       4.999   2.772  22.018  1.00  0.00     0.061 A 
HETATM   33  C15 UNL     1       4.007   3.509  22.633  1.00  0.00     0.106 A 
HETATM   34  C16 UNL     1       3.783   4.840  22.327  1.00  0.00     0.061 A 
HETATM   35  C17 UNL     1       4.558   5.483  21.383  1.00  0.00     0.061 A 
HETATM   36 CL2  UNL     1       4.307   7.163  20.967  1.00  0.00    -0.083 Cl
BRANCH  33  37
HETATM   37  N6  UNL     1       3.192   2.863  23.619  1.00  0.00    -0.116 N 
HETATM   38  O4  UNL     1       3.152   1.622  23.662  1.00  0.00    -0.532 OA
HETATM   39  O5  UNL     1       2.456   3.574  24.508  1.00  0.00    -0.532 OA
ENDBRANCH  33  37
ENDBRANCH  26  29
ENDBRANCH  24  26
ENDBRANCH   3  24
TORSDOF 11
ENDMDL
