MODEL 1
REMARK VINA RESULT: -8.231283425      0.000      0.000
REMARK  13 active torsions:
REMARK  status: ('A' for Active; 'I' for Inactive)
REMARK    1  A    between atoms: C2_2  and  C3_3 
REMARK    2  A    between atoms: C3_3  and  N1_4 
REMARK       I    between atoms: N1_4  and  C4_6 
REMARK    3  A    between atoms: C4_6  and  O2_8 
REMARK    4  A    between atoms: O2_8  and  C5_9 
REMARK    5  A    between atoms: C6_10  and  N2_11 
REMARK       I    between atoms: N2_11  and  C7_13 
REMARK    6  A    between atoms: C7_13  and  C8_15 
REMARK    7  A    between atoms: C8_15  and  C9_16 
REMARK    8  A    between atoms: C12_19  and  O4_20 
REMARK    9  A    between atoms: O4_20  and  C13_21 
REMARK   10  A    between atoms: C19_27  and  O5_28 
REMARK   11  A    between atoms: C20_30  and  O6_31 
REMARK   12  A    between atoms: C21_33  and  S1_34 
REMARK   13  A    between atoms: S1_34  and  C22_37 
ROOT
HETATM    1  C5  UNL     1       6.225   7.722  22.209  1.00  0.00     0.180 C 
HETATM    2  C6  UNL     1       6.495   7.696  20.735  1.00  0.00     0.147 C 
HETATM    3  C12 UNL     1       5.680   6.546  20.177  1.00  0.00     0.178 C 
HETATM    4  C19 UNL     1       4.196   6.841  20.275  1.00  0.00     0.179 C 
HETATM    5  C20 UNL     1       3.778   7.301  21.628  1.00  0.00     0.170 C 
HETATM    6  C21 UNL     1       4.849   7.384  22.648  1.00  0.00     0.177 C 
ENDROOT
BRANCH   1   7
HETATM    7  O2  UNL     1       6.680   8.960  22.746  1.00  0.00    -0.295 OA
BRANCH   7   8
HETATM    8  C4  UNL     1       7.898   9.127  23.392  1.00  0.00     0.361 C 
HETATM    9  N1  UNL     1       8.048   8.945  24.792  1.00  0.00    -0.333 N 
ATOM     10  H1  UNL     1       7.250   8.687  25.374  1.00  0.00     0.165 HD
HETATM   11  O1  UNL     1       8.890   9.451  22.673  1.00  0.00    -0.238 OA
BRANCH   9  12
HETATM   12  C3  UNL     1       9.357   9.133  25.375  1.00  0.00     0.151 C 
BRANCH  12  13
HETATM   13  C2  UNL     1       9.434   8.445  26.686  1.00  0.00    -0.018 C 
HETATM   14  C1  UNL     1      10.610   8.066  27.169  1.00  0.00     0.008 C 
ENDBRANCH  12  13
ENDBRANCH   9  12
ENDBRANCH   7   8
ENDBRANCH   1   7
BRANCH   2  15
HETATM   15  N2  UNL     1       6.283   8.938  20.089  1.00  0.00    -0.351 N 
HETATM   16  C7  UNL     1       7.303   9.673  19.474  1.00  0.00     0.218 C 
HETATM   17  O3  UNL     1       8.477   9.158  19.512  1.00  0.00    -0.274 OA
ATOM     18  H2  UNL     1       5.336   9.317  20.070  1.00  0.00     0.163 HD
BRANCH  16  19
HETATM   19  C8  UNL     1       7.045  10.957  18.827  1.00  0.00     0.106 C 
BRANCH  19  20
HETATM   20  C9  UNL     1       6.940  12.136  19.753  1.00  0.00    -0.014 C 
HETATM   21  C10 UNL     1       7.962  13.194  19.576  1.00  0.00     0.010 C 
HETATM   22  C11 UNL     1       5.566  12.794  19.658  1.00  0.00     0.010 C 
ENDBRANCH  19  20
ENDBRANCH  16  19
ENDBRANCH   2  15
BRANCH   6  23
HETATM   23  S1  UNL     1       4.318   8.430  24.027  1.00  0.00     0.214 S 
HETATM   24  O7  UNL     1       5.217   8.322  25.196  1.00  0.00    -0.222 OA
HETATM   25  O8  UNL     1       4.181   9.845  23.635  1.00  0.00    -0.222 OA
BRANCH  23  26
HETATM   26  C22 UNL     1       2.704   7.863  24.585  1.00  0.00     0.473 C 
HETATM   27  F1  UNL     1       2.577   8.288  25.896  1.00  0.00    -0.197 F 
HETATM   28  F2  UNL     1       2.733   6.488  24.538  1.00  0.00    -0.197 F 
ENDBRANCH  23  26
ENDBRANCH   6  23
BRANCH   3  29
HETATM   29  O4  UNL     1       6.094   6.250  18.922  1.00  0.00    -0.376 OA
BRANCH  29  30
HETATM   30  C13 UNL     1       6.646   5.011  18.701  1.00  0.00     0.122 C 
HETATM   31  C14 UNL     1       5.681   3.869  18.649  1.00  0.00     0.032 C 
HETATM   32  C15 UNL     1       5.971   2.729  19.559  1.00  0.00     0.002 C 
HETATM   33  C16 UNL     1       7.387   2.280  19.632  1.00  0.00     0.000 C 
HETATM   34  C17 UNL     1       8.359   3.341  19.103  1.00  0.00     0.002 C 
HETATM   35  C18 UNL     1       7.790   4.662  19.584  1.00  0.00     0.032 C 
ENDBRANCH  29  30
ENDBRANCH   3  29
BRANCH   5  36
HETATM   36  O6  UNL     1       2.996   8.468  21.509  1.00  0.00    -0.391 OA
ATOM     37  H6  UNL     1       3.212   8.913  20.698  1.00  0.00     0.210 HD
ENDBRANCH   5  36
BRANCH   4  38
HETATM   38  O5  UNL     1       3.448   5.748  19.851  1.00  0.00    -0.390 OA
ATOM     39  H5  UNL     1       2.774   5.535  20.487  1.00  0.00     0.210 HD
ENDBRANCH   4  38
TORSDOF 13
ENDMDL
MODEL 2
REMARK VINA RESULT: -7.880064143      0.975      1.288
REMARK  13 active torsions:
REMARK  status: ('A' for Active; 'I' for Inactive)
REMARK    1  A    between atoms: C2_2  and  C3_3 
REMARK    2  A    between atoms: C3_3  and  N1_4 
REMARK       I    between atoms: N1_4  and  C4_6 
REMARK    3  A    between atoms: C4_6  and  O2_8 
REMARK    4  A    between atoms: O2_8  and  C5_9 
REMARK    5  A    between atoms: C6_10  and  N2_11 
REMARK       I    between atoms: N2_11  and  C7_13 
REMARK    6  A    between atoms: C7_13  and  C8_15 
REMARK    7  A    between atoms: C8_15  and  C9_16 
REMARK    8  A    between atoms: C12_19  and  O4_20 
REMARK    9  A    between atoms: O4_20  and  C13_21 
REMARK   10  A    between atoms: C19_27  and  O5_28 
REMARK   11  A    between atoms: C20_30  and  O6_31 
REMARK   12  A    between atoms: C21_33  and  S1_34 
REMARK   13  A    between atoms: S1_34  and  C22_37 
ROOT
HETATM    1  C5  UNL     1       5.979   7.868  22.956  1.00  0.00     0.180 C 
HETATM    2  C6  UNL     1       6.421   7.537  21.563  1.00  0.00     0.147 C 
HETATM    3  C12 UNL     1       5.731   6.236  21.200  1.00  0.00     0.178 C 
HETATM    4  C19 UNL     1       4.234   6.438  21.074  1.00  0.00     0.179 C 
HETATM    5  C20 UNL     1       3.640   7.154  22.237  1.00  0.00     0.170 C 
HETATM    6  C21 UNL     1       4.579   7.536  23.316  1.00  0.00     0.177 C 
ENDROOT
BRANCH   1   7
HETATM    7  O2  UNL     1       6.311   9.223  23.242  1.00  0.00    -0.295 OA
BRANCH   7   8
HETATM    8  C4  UNL     1       7.564   9.645  23.666  1.00  0.00     0.361 C 
HETATM    9  N1  UNL     1       8.251   9.025  24.744  1.00  0.00    -0.333 N 
ATOM     10  H1  UNL     1       7.833   8.243  25.249  1.00  0.00     0.165 HD
HETATM   11  O1  UNL     1       8.083  10.618  23.044  1.00  0.00    -0.238 OA
BRANCH   9  12
HETATM   12  C3  UNL     1       9.555   9.529  25.110  1.00  0.00     0.151 C 
BRANCH  12  13
HETATM   13  C2  UNL     1      10.037   8.850  26.337  1.00  0.00    -0.018 C 
HETATM   14  C1  UNL     1       9.199   8.128  27.068  1.00  0.00     0.008 C 
ENDBRANCH  12  13
ENDBRANCH   9  12
ENDBRANCH   7   8
ENDBRANCH   1   7
BRANCH   2  15
HETATM   15  N2  UNL     1       6.229   8.586  20.633  1.00  0.00    -0.351 N 
HETATM   16  C7  UNL     1       7.277   9.230  19.967  1.00  0.00     0.218 C 
HETATM   17  O3  UNL     1       8.461   8.814  20.234  1.00  0.00    -0.274 OA
ATOM     18  H2  UNL     1       5.275   8.889  20.438  1.00  0.00     0.163 HD
BRANCH  16  19
HETATM   19  C8  UNL     1       7.037  10.318  19.022  1.00  0.00     0.106 C 
BRANCH  19  20
HETATM   20  C9  UNL     1       6.652  11.634  19.639  1.00  0.00    -0.014 C 
HETATM   21  C10 UNL     1       7.612  12.746  19.449  1.00  0.00     0.010 C 
HETATM   22  C11 UNL     1       5.290  12.103  19.135  1.00  0.00     0.010 C 
ENDBRANCH  19  20
ENDBRANCH  16  19
ENDBRANCH   2  15
BRANCH   6  23
HETATM   23  S1  UNL     1       3.841   8.820  24.359  1.00  0.00     0.214 S 
HETATM   24  O7  UNL     1       4.681   9.145  25.532  1.00  0.00    -0.222 OA
HETATM   25  O8  UNL     1       3.546  10.052  23.603  1.00  0.00    -0.222 OA
BRANCH  23  26
HETATM   26  C22 UNL     1       2.286   8.199  25.014  1.00  0.00     0.473 C 
HETATM   27  F1  UNL     1       1.289   8.957  24.425  1.00  0.00    -0.197 F 
HETATM   28  F2  UNL     1       2.310   8.429  26.371  1.00  0.00    -0.197 F 
ENDBRANCH  23  26
ENDBRANCH   6  23
BRANCH   3  29
HETATM   29  O4  UNL     1       6.304   5.701  20.095  1.00  0.00    -0.376 OA
BRANCH  29  30
HETATM   30  C13 UNL     1       6.966   4.504  20.228  1.00  0.00     0.122 C 
HETATM   31  C14 UNL     1       8.206   4.352  19.406  1.00  0.00     0.032 C 
HETATM   32  C15 UNL     1       8.270   3.144  18.540  1.00  0.00     0.002 C 
HETATM   33  C16 UNL     1       7.826   1.863  19.151  1.00  0.00     0.000 C 
HETATM   34  C17 UNL     1       6.974   2.085  20.407  1.00  0.00     0.002 C 
HETATM   35  C18 UNL     1       6.116   3.293  20.084  1.00  0.00     0.032 C 
ENDBRANCH  29  30
ENDBRANCH   3  29
BRANCH   5  36
HETATM   36  O6  UNL     1       2.823   8.206  21.774  1.00  0.00    -0.391 OA
ATOM     37  H6  UNL     1       1.912   8.001  21.949  1.00  0.00     0.210 HD
ENDBRANCH   5  36
BRANCH   4  38
HETATM   38  O5  UNL     1       3.593   5.228  20.835  1.00  0.00    -0.390 OA
ATOM     39  H5  UNL     1       3.747   4.619  21.547  1.00  0.00     0.210 HD
ENDBRANCH   4  38
TORSDOF 13
ENDMDL
MODEL 3
REMARK VINA RESULT: -7.777401522      1.060      1.515
REMARK  13 active torsions:
REMARK  status: ('A' for Active; 'I' for Inactive)
REMARK    1  A    between atoms: C2_2  and  C3_3 
REMARK    2  A    between atoms: C3_3  and  N1_4 
REMARK       I    between atoms: N1_4  and  C4_6 
REMARK    3  A    between atoms: C4_6  and  O2_8 
REMARK    4  A    between atoms: O2_8  and  C5_9 
REMARK    5  A    between atoms: C6_10  and  N2_11 
REMARK       I    between atoms: N2_11  and  C7_13 
REMARK    6  A    between atoms: C7_13  and  C8_15 
REMARK    7  A    between atoms: C8_15  and  C9_16 
REMARK    8  A    between atoms: C12_19  and  O4_20 
REMARK    9  A    between atoms: O4_20  and  C13_21 
REMARK   10  A    between atoms: C19_27  and  O5_28 
REMARK   11  A    between atoms: C20_30  and  O6_31 
REMARK   12  A    between atoms: C21_33  and  S1_34 
REMARK   13  A    between atoms: S1_34  and  C22_37 
ROOT
HETATM    1  C5  UNL     1       5.539   7.735  22.672  1.00  0.00     0.180 C 
HETATM    2  C6  UNL     1       6.171   7.409  21.353  1.00  0.00     0.147 C 
HETATM    3  C12 UNL     1       5.483   6.153  20.856  1.00  0.00     0.178 C 
HETATM    4  C19 UNL     1       4.033   6.433  20.512  1.00  0.00     0.179 C 
HETATM    5  C20 UNL     1       3.305   7.156  21.590  1.00  0.00     0.170 C 
HETATM    6  C21 UNL     1       4.087   7.469  22.808  1.00  0.00     0.177 C 
ENDROOT
BRANCH   1   7
HETATM    7  O2  UNL     1       5.887   9.066  23.041  1.00  0.00    -0.295 OA
BRANCH   7   8
HETATM    8  C4  UNL     1       7.079   9.415  23.663  1.00  0.00     0.361 C 
HETATM    9  N1  UNL     1       7.577   8.720  24.797  1.00  0.00    -0.333 N 
ATOM     10  H1  UNL     1       7.062   7.935  25.196  1.00  0.00     0.165 HD
HETATM   11  O1  UNL     1       7.719  10.392  23.172  1.00  0.00    -0.238 OA
BRANCH   9  12
HETATM   12  C3  UNL     1       8.831   9.150  25.372  1.00  0.00     0.151 C 
BRANCH  12  13
HETATM   13  C2  UNL     1       9.063   8.458  26.663  1.00  0.00    -0.018 C 
HETATM   14  C1  UNL     1      10.298   8.156  27.042  1.00  0.00     0.008 C 
ENDBRANCH  12  13
ENDBRANCH   9  12
ENDBRANCH   7   8
ENDBRANCH   1   7
BRANCH   2  15
HETATM   15  N2  UNL     1       6.171   8.485  20.433  1.00  0.00    -0.351 N 
HETATM   16  C7  UNL     1       7.338   9.090  19.953  1.00  0.00     0.218 C 
HETATM   17  O3  UNL     1       8.446   8.612  20.387  1.00  0.00    -0.274 OA
ATOM     18  H2  UNL     1       5.273   8.838  20.102  1.00  0.00     0.163 HD
BRANCH  16  19
HETATM   19  C8  UNL     1       7.296  10.207  19.012  1.00  0.00     0.106 C 
BRANCH  19  20
HETATM   20  C9  UNL     1       6.715  11.484  19.553  1.00  0.00    -0.014 C 
HETATM   21  C10 UNL     1       7.579  12.684  19.451  1.00  0.00     0.010 C 
HETATM   22  C11 UNL     1       5.382  11.812  18.887  1.00  0.00     0.010 C 
ENDBRANCH  19  20
ENDBRANCH  16  19
ENDBRANCH   2  15
BRANCH   6  23
HETATM   23  S1  UNL     1       3.261   8.768  23.763  1.00  0.00     0.214 S 
HETATM   24  O7  UNL     1       3.550  10.121  23.241  1.00  0.00    -0.222 OA
HETATM   25  O8  UNL     1       1.802   8.565  23.837  1.00  0.00    -0.222 OA
BRANCH  23  26
HETATM   26  C22 UNL     1       3.900   8.734  25.444  1.00  0.00     0.473 C 
HETATM   27  F1  UNL     1       2.803   8.567  26.270  1.00  0.00    -0.197 F 
HETATM   28  F2  UNL     1       4.475   9.964  25.671  1.00  0.00    -0.197 F 
ENDBRANCH  23  26
ENDBRANCH   6  23
BRANCH   3  29
HETATM   29  O4  UNL     1       6.190   5.611  19.835  1.00  0.00    -0.376 OA
BRANCH  29  30
HETATM   30  C13 UNL     1       6.888   4.452  20.079  1.00  0.00     0.122 C 
HETATM   31  C14 UNL     1       8.197   4.320  19.369  1.00  0.00     0.032 C 
HETATM   32  C15 UNL     1       8.383   3.078  18.570  1.00  0.00     0.002 C 
HETATM   33  C16 UNL     1       7.943   1.807  19.205  1.00  0.00     0.000 C 
HETATM   34  C17 UNL     1       6.981   2.046  20.375  1.00  0.00     0.002 C 
HETATM   35  C18 UNL     1       6.103   3.199  19.925  1.00  0.00     0.032 C 
ENDBRANCH  29  30
ENDBRANCH   3  29
BRANCH   5  36
HETATM   36  O6  UNL     1       2.618   8.257  21.039  1.00  0.00    -0.391 OA
ATOM     37  H6  UNL     1       2.545   8.944  21.691  1.00  0.00     0.210 HD
ENDBRANCH   5  36
BRANCH   4  38
HETATM   38  O5  UNL     1       3.379   5.262  20.146  1.00  0.00    -0.390 OA
ATOM     39  H5  UNL     1       3.658   4.536  20.691  1.00  0.00     0.210 HD
ENDBRANCH   4  38
TORSDOF 13
ENDMDL
MODEL 4
REMARK VINA RESULT: -7.574672545      1.308      2.010
REMARK  13 active torsions:
REMARK  status: ('A' for Active; 'I' for Inactive)
REMARK    1  A    between atoms: C2_2  and  C3_3 
REMARK    2  A    between atoms: C3_3  and  N1_4 
REMARK       I    between atoms: N1_4  and  C4_6 
REMARK    3  A    between atoms: C4_6  and  O2_8 
REMARK    4  A    between atoms: O2_8  and  C5_9 
REMARK    5  A    between atoms: C6_10  and  N2_11 
REMARK       I    between atoms: N2_11  and  C7_13 
REMARK    6  A    between atoms: C7_13  and  C8_15 
REMARK    7  A    between atoms: C8_15  and  C9_16 
REMARK    8  A    between atoms: C12_19  and  O4_20 
REMARK    9  A    between atoms: O4_20  and  C13_21 
REMARK   10  A    between atoms: C19_27  and  O5_28 
REMARK   11  A    between atoms: C20_30  and  O6_31 
REMARK   12  A    between atoms: C21_33  and  S1_34 
REMARK   13  A    between atoms: S1_34  and  C22_37 
ROOT
HETATM    1  C5  UNL     1       4.829   7.569  23.036  1.00  0.00     0.180 C 
HETATM    2  C6  UNL     1       5.764   7.429  21.873  1.00  0.00     0.147 C 
HETATM    3  C12 UNL     1       5.196   6.322  21.007  1.00  0.00     0.178 C 
HETATM    4  C19 UNL     1       3.885   6.749  20.377  1.00  0.00     0.179 C 
HETATM    5  C20 UNL     1       2.925   7.327  21.358  1.00  0.00     0.170 C 
HETATM    6  C21 UNL     1       3.383   7.379  22.765  1.00  0.00     0.177 C 
ENDROOT
BRANCH   1   7
HETATM    7  O2  UNL     1       5.102   8.794  23.710  1.00  0.00    -0.295 OA
BRANCH   7   8
HETATM    8  C4  UNL     1       6.014   8.923  24.749  1.00  0.00     0.361 C 
HETATM    9  N1  UNL     1       7.217   8.169  24.804  1.00  0.00    -0.333 N 
ATOM     10  H1  UNL     1       7.445   7.496  24.072  1.00  0.00     0.165 HD
HETATM   11  O1  UNL     1       5.731   9.755  25.661  1.00  0.00    -0.238 OA
BRANCH   9  12
HETATM   12  C3  UNL     1       8.109   8.377  25.921  1.00  0.00     0.151 C 
BRANCH  12  13
HETATM   13  C2  UNL     1       9.274   9.191  25.497  1.00  0.00    -0.018 C 
HETATM   14  C1  UNL     1      10.372   9.217  26.242  1.00  0.00     0.008 C 
ENDBRANCH  12  13
ENDBRANCH   9  12
ENDBRANCH   7   8
ENDBRANCH   1   7
BRANCH   2  15
HETATM   15  N2  UNL     1       6.018   8.642  21.189  1.00  0.00    -0.351 N 
HETATM   16  C7  UNL     1       7.254   9.296  21.210  1.00  0.00     0.218 C 
HETATM   17  O3  UNL     1       8.184   8.733  21.890  1.00  0.00    -0.274 OA
ATOM     18  H2  UNL     1       5.259   9.061  20.651  1.00  0.00     0.163 HD
BRANCH  16  19
HETATM   19  C8  UNL     1       7.473  10.554  20.499  1.00  0.00     0.106 C 
BRANCH  19  20
HETATM   20  C9  UNL     1       6.304  11.051  19.695  1.00  0.00    -0.014 C 
HETATM   21  C10 UNL     1       5.931  12.470  19.901  1.00  0.00     0.010 C 
HETATM   22  C11 UNL     1       6.531  10.841  18.200  1.00  0.00     0.010 C 
ENDBRANCH  19  20
ENDBRANCH  16  19
ENDBRANCH   2  15
BRANCH   6  23
HETATM   23  S1  UNL     1       2.373   8.551  23.707  1.00  0.00     0.214 S 
HETATM   24  O7  UNL     1       2.823   9.949  23.536  1.00  0.00    -0.222 OA
HETATM   25  O8  UNL     1       0.940   8.446  23.373  1.00  0.00    -0.222 OA
BRANCH  23  26
HETATM   26  C22 UNL     1       2.551   8.178  25.458  1.00  0.00     0.473 C 
HETATM   27  F1  UNL     1       1.361   7.590  25.850  1.00  0.00    -0.197 F 
HETATM   28  F2  UNL     1       2.713   9.383  26.102  1.00  0.00    -0.197 F 
ENDBRANCH  23  26
ENDBRANCH   6  23
BRANCH   3  29
HETATM   29  O4  UNL     1       6.124   5.914  20.109  1.00  0.00    -0.376 OA
BRANCH  29  30
HETATM   30  C13 UNL     1       6.754   4.713  20.333  1.00  0.00     0.122 C 
HETATM   31  C14 UNL     1       8.023   4.492  19.573  1.00  0.00     0.032 C 
HETATM   32  C15 UNL     1       8.094   3.237  18.777  1.00  0.00     0.002 C 
HETATM   33  C16 UNL     1       7.599   2.001  19.438  1.00  0.00     0.000 C 
HETATM   34  C17 UNL     1       6.703   2.308  20.644  1.00  0.00     0.002 C 
HETATM   35  C18 UNL     1       5.884   3.513  20.221  1.00  0.00     0.032 C 
ENDBRANCH  29  30
ENDBRANCH   3  29
BRANCH   5  36
HETATM   36  O6  UNL     1       2.422   8.548  20.863  1.00  0.00    -0.391 OA
ATOM     37  H6  UNL     1       3.113   9.200  20.866  1.00  0.00     0.210 HD
ENDBRANCH   5  36
BRANCH   4  38
HETATM   38  O5  UNL     1       3.318   5.702  19.660  1.00  0.00    -0.390 OA
ATOM     39  H5  UNL     1       3.631   5.700  18.763  1.00  0.00     0.210 HD
ENDBRANCH   4  38
TORSDOF 13
ENDMDL
MODEL 5
REMARK VINA RESULT: -7.451349261      3.064      5.476
REMARK  13 active torsions:
REMARK  status: ('A' for Active; 'I' for Inactive)
REMARK    1  A    between atoms: C2_2  and  C3_3 
REMARK    2  A    between atoms: C3_3  and  N1_4 
REMARK       I    between atoms: N1_4  and  C4_6 
REMARK    3  A    between atoms: C4_6  and  O2_8 
REMARK    4  A    between atoms: O2_8  and  C5_9 
REMARK    5  A    between atoms: C6_10  and  N2_11 
REMARK       I    between atoms: N2_11  and  C7_13 
REMARK    6  A    between atoms: C7_13  and  C8_15 
REMARK    7  A    between atoms: C8_15  and  C9_16 
REMARK    8  A    between atoms: C12_19  and  O4_20 
REMARK    9  A    between atoms: O4_20  and  C13_21 
REMARK   10  A    between atoms: C19_27  and  O5_28 
REMARK   11  A    between atoms: C20_30  and  O6_31 
REMARK   12  A    between atoms: C21_33  and  S1_34 
REMARK   13  A    between atoms: S1_34  and  C22_37 
ROOT
HETATM    1  C5  UNL     1       5.967   8.234  20.666  1.00  0.00     0.180 C 
HETATM    2  C6  UNL     1       5.715   6.757  20.655  1.00  0.00     0.147 C 
HETATM    3  C12 UNL     1       4.238   6.584  20.355  1.00  0.00     0.178 C 
HETATM    4  C19 UNL     1       3.922   7.023  18.939  1.00  0.00     0.179 C 
HETATM    5  C20 UNL     1       4.472   8.366  18.605  1.00  0.00     0.170 C 
HETATM    6  C21 UNL     1       5.212   9.054  19.687  1.00  0.00     0.177 C 
ENDROOT
BRANCH   1   7
HETATM    7  O2  UNL     1       7.371   8.469  20.607  1.00  0.00    -0.295 OA
BRANCH   7   8
HETATM    8  C4  UNL     1       8.135   8.884  21.689  1.00  0.00     0.361 C 
HETATM    9  N1  UNL     1       7.762   8.616  23.033  1.00  0.00    -0.333 N 
ATOM     10  H1  UNL     1       6.904   8.106  23.244  1.00  0.00     0.165 HD
HETATM   11  O1  UNL     1       9.199   9.522  21.429  1.00  0.00    -0.238 OA
BRANCH   9  12
HETATM   12  C3  UNL     1       8.626   9.082  24.093  1.00  0.00     0.151 C 
BRANCH  12  13
HETATM   13  C2  UNL     1       8.079   8.676  25.411  1.00  0.00    -0.018 C 
HETATM   14  C1  UNL     1       8.881   8.588  26.463  1.00  0.00     0.008 C 
ENDBRANCH  12  13
ENDBRANCH   9  12
ENDBRANCH   7   8
ENDBRANCH   1   7
BRANCH   2  15
HETATM   15  N2  UNL     1       6.579   6.031  19.801  1.00  0.00    -0.351 N 
HETATM   16  C7  UNL     1       7.323   4.921  20.217  1.00  0.00     0.218 C 
HETATM   17  O3  UNL     1       7.181   4.569  21.442  1.00  0.00    -0.274 OA
ATOM     18  H2  UNL     1       6.664   6.333  18.830  1.00  0.00     0.163 HD
BRANCH  16  19
HETATM   19  C8  UNL     1       8.214   4.205  19.307  1.00  0.00     0.106 C 
BRANCH  19  20
HETATM   20  C9  UNL     1       8.078   2.708  19.317  1.00  0.00    -0.014 C 
HETATM   21  C10 UNL     1       6.823   2.166  18.746  1.00  0.00     0.010 C 
HETATM   22  C11 UNL     1       9.245   2.041  18.595  1.00  0.00     0.010 C 
ENDBRANCH  19  20
ENDBRANCH  16  19
ENDBRANCH   2  15
BRANCH   6  23
HETATM   23  S1  UNL     1       6.241  10.375  18.997  1.00  0.00     0.214 S 
HETATM   24  O7  UNL     1       7.560   9.885  18.543  1.00  0.00    -0.222 OA
HETATM   25  O8  UNL     1       5.568  11.087  17.893  1.00  0.00    -0.222 OA
BRANCH  23  26
HETATM   26  C22 UNL     1       6.573  11.576  20.294  1.00  0.00     0.473 C 
HETATM   27  F1  UNL     1       5.650  12.593  20.124  1.00  0.00    -0.197 F 
HETATM   28  F2  UNL     1       7.844  12.055  20.070  1.00  0.00    -0.197 F 
ENDBRANCH  23  26
ENDBRANCH   6  23
BRANCH   3  29
HETATM   29  O4  UNL     1       3.856   5.314  20.630  1.00  0.00    -0.376 OA
BRANCH  29  30
HETATM   30  C13 UNL     1       3.588   4.991  21.939  1.00  0.00     0.122 C 
HETATM   31  C14 UNL     1       4.211   3.726  22.437  1.00  0.00     0.032 C 
HETATM   32  C15 UNL     1       3.282   2.741  23.054  1.00  0.00     0.002 C 
HETATM   33  C16 UNL     1       2.261   3.284  23.988  1.00  0.00     0.000 C 
HETATM   34  C17 UNL     1       2.061   4.795  23.813  1.00  0.00     0.002 C 
HETATM   35  C18 UNL     1       2.151   5.027  22.317  1.00  0.00     0.032 C 
ENDBRANCH  29  30
ENDBRANCH   3  29
BRANCH   5  36
HETATM   36  O6  UNL     1       5.161   8.301  17.377  1.00  0.00    -0.391 OA
ATOM     37  H6  UNL     1       6.088   8.447  17.525  1.00  0.00     0.210 HD
ENDBRANCH   5  36
BRANCH   4  38
HETATM   38  O5  UNL     1       2.555   6.953  18.695  1.00  0.00    -0.390 OA
ATOM     39  H5  UNL     1       2.090   7.613  19.196  1.00  0.00     0.210 HD
ENDBRANCH   4  38
TORSDOF 13
ENDMDL
