MODEL 1
REMARK VINA RESULT: -7.445088236      0.000      0.000
REMARK  16 active torsions:
REMARK  status: ('A' for Active; 'I' for Inactive)
REMARK    1  A    between atoms: C2_2  and  C3_3 
REMARK    2  A    between atoms: C3_3  and  N1_4 
REMARK    3  A    between atoms: N1_4  and  C4_5 
REMARK    4  A    between atoms: N1_4  and  C6_8 
REMARK    5  A    between atoms: C4_5  and  C5_6 
REMARK    6  A    between atoms: C6_8  and  O1_9 
REMARK    7  A    between atoms: C6_8  and  C7_11 
REMARK    8  A    between atoms: C8_12  and  C9_13 
REMARK    9  A    between atoms: C11_18  and  N3_19 
REMARK   10  A    between atoms: N3_19  and  C12_21 
REMARK   11  A    between atoms: C12_21  and  O4_22 
REMARK   12  A    between atoms: C12_21  and  C13_24 
REMARK   13  A    between atoms: C13_24  and  N4_25 
REMARK   14  A    between atoms: C13_24  and  C15_29 
REMARK   15  A    between atoms: N4_25  and  O5_27 
REMARK   16  A    between atoms: C17_32  and  N5_33 
ROOT
HETATM    1  C7  UNL     1       5.043   4.472  19.544  1.00  0.00     0.035 C 
HETATM    2  C8  UNL     1       4.899   4.608  20.803  1.00  0.00     0.120 C 
HETATM    3  N2  UNL     1       4.675   5.841  21.532  1.00  0.00    -0.357 N 
HETATM    4  C10 UNL     1       4.289   6.551  22.716  1.00  0.00     0.152 C 
HETATM    5  C11 UNL     1       5.532   7.440  22.362  1.00  0.00     0.134 C 
HETATM    6  C18 UNL     1       4.947   7.191  21.042  1.00  0.00     0.171 C 
HETATM    7  S2  UNL     1       5.938   6.976  19.568  1.00  0.00    -0.137 SA
HETATM    8  C19 UNL     1       4.834   5.778  18.714  1.00  0.00     0.121 C 
ENDROOT
BRANCH   5   9
HETATM    9  N3  UNL     1       5.395   8.796  22.918  1.00  0.00    -0.360 N 
ATOM     10  H3  UNL     1       4.728   9.436  22.484  1.00  0.00     0.162 HD
BRANCH   9  11
HETATM   11  C12 UNL     1       6.128   9.241  23.998  1.00  0.00     0.168 C 
BRANCH  11  12
HETATM   12  O4  UNL     1       5.417   9.423  25.078  1.00  0.00    -0.344 OA
ATOM     13  H4  UNL     1       4.784  10.128  25.006  1.00  0.00     0.219 HD
ENDBRANCH  11  12
BRANCH  11  14
HETATM   14  C13 UNL     1       7.498   9.531  24.122  1.00  0.00     0.132 C 
BRANCH  14  15
HETATM   15  N4  UNL     1       8.079  10.265  23.166  1.00  0.00    -0.261 N 
ATOM     16  H4  UNL     1       8.752  10.980  23.444  1.00  0.00     0.194 HD
BRANCH  15  17
HETATM   17  O5  UNL     1       7.819  10.107  21.850  1.00  0.00    -0.285 OA
HETATM   18  C14 UNL     1       8.643   9.216  21.102  1.00  0.00     0.237 C 
ENDBRANCH  15  17
ENDBRANCH  14  15
BRANCH  14  19
HETATM   19  C15 UNL     1       8.438   9.153  25.219  1.00  0.00     0.074 A 
HETATM   20  C16 UNL     1       9.760   9.484  25.172  1.00  0.00     0.085 A 
HETATM   21  S1  UNL     1      10.383   8.725  26.592  1.00  0.00    -0.064 SA
HETATM   22  C17 UNL     1       8.935   8.044  27.150  1.00  0.00     0.142 A 
HETATM   23  N6  UNL     1       8.046   8.418  26.241  1.00  0.00    -0.335 N 
ATOM     24  H6  UNL     1       7.069   8.139  26.332  1.00  0.00     0.168 HD
BRANCH  22  25
HETATM   25  N5  UNL     1       8.713   7.313  28.225  1.00  0.00    -0.380 N 
ATOM     26  H52 UNL     1       9.152   6.424  28.465  1.00  0.00     0.158 HD
ATOM     27  H51 UNL     1       8.079   7.485  29.007  1.00  0.00     0.158 HD
ENDBRANCH  22  25
ENDBRANCH  14  19
ENDBRANCH  11  14
ENDBRANCH   9  11
ENDBRANCH   5   9
BRANCH   2  28
HETATM   28  C9  UNL     1       5.010   3.443  21.691  1.00  0.00     0.227 C 
HETATM   29  O2  UNL     1       3.930   2.744  21.918  1.00  0.00    -0.643 OA
HETATM   30  O3  UNL     1       6.060   2.956  22.360  1.00  0.00    -0.643 OA
ENDBRANCH   2  28
BRANCH   1  31
HETATM   31  C6  UNL     1       5.269   3.378  18.697  1.00  0.00     0.147 C 
BRANCH  31  32
HETATM   32  N1  UNL     1       6.114   2.681  17.865  1.00  0.00    -0.360 N 
BRANCH  32  33
HETATM   33  C3  UNL     1       7.539   2.526  17.757  1.00  0.00     0.124 C 
BRANCH  33  34
HETATM   34  C2  UNL     1       8.027   1.917  19.111  1.00  0.00     0.015 C 
HETATM   35  C1  UNL     1       9.293   1.159  18.844  1.00  0.00     0.006 C 
ENDBRANCH  33  34
ENDBRANCH  32  33
BRANCH  32  36
HETATM   36  C4  UNL     1       5.416   1.909  16.769  1.00  0.00     0.140 C 
BRANCH  36  37
HETATM   37  C5  UNL     1       6.198   2.008  15.505  1.00  0.00     0.134 C 
HETATM   38 CL1  UNL     1       5.375   1.084  14.238  1.00  0.00    -0.129 Cl
ENDBRANCH  36  37
ENDBRANCH  32  36
ENDBRANCH  31  32
BRANCH  31  39
HETATM   39  O1  UNL     1       4.056   2.650  18.733  1.00  0.00    -0.346 OA
ATOM     40  H1  UNL     1       3.520   3.057  19.403  1.00  0.00     0.219 HD
ENDBRANCH  31  39
ENDBRANCH   1  31
TORSDOF 16
ENDMDL
MODEL 2
REMARK VINA RESULT: -7.365686457      1.261      1.902
REMARK  16 active torsions:
REMARK  status: ('A' for Active; 'I' for Inactive)
REMARK    1  A    between atoms: C2_2  and  C3_3 
REMARK    2  A    between atoms: C3_3  and  N1_4 
REMARK    3  A    between atoms: N1_4  and  C4_5 
REMARK    4  A    between atoms: N1_4  and  C6_8 
REMARK    5  A    between atoms: C4_5  and  C5_6 
REMARK    6  A    between atoms: C6_8  and  O1_9 
REMARK    7  A    between atoms: C6_8  and  C7_11 
REMARK    8  A    between atoms: C8_12  and  C9_13 
REMARK    9  A    between atoms: C11_18  and  N3_19 
REMARK   10  A    between atoms: N3_19  and  C12_21 
REMARK   11  A    between atoms: C12_21  and  O4_22 
REMARK   12  A    between atoms: C12_21  and  C13_24 
REMARK   13  A    between atoms: C13_24  and  N4_25 
REMARK   14  A    between atoms: C13_24  and  C15_29 
REMARK   15  A    between atoms: N4_25  and  O5_27 
REMARK   16  A    between atoms: C17_32  and  N5_33 
ROOT
HETATM    1  C7  UNL     1       5.479   4.230  19.650  1.00  0.00     0.035 C 
HETATM    2  C8  UNL     1       5.108   4.428  20.853  1.00  0.00     0.120 C 
HETATM    3  N2  UNL     1       4.813   5.701  21.482  1.00  0.00    -0.357 N 
HETATM    4  C10 UNL     1       4.248   6.478  22.545  1.00  0.00     0.152 C 
HETATM    5  C11 UNL     1       5.579   7.297  22.402  1.00  0.00     0.134 C 
HETATM    6  C18 UNL     1       5.239   7.014  21.005  1.00  0.00     0.171 C 
HETATM    7  S2  UNL     1       6.477   6.693  19.753  1.00  0.00    -0.137 SA
HETATM    8  C19 UNL     1       5.495   5.506  18.749  1.00  0.00     0.121 C 
ENDROOT
BRANCH   5   9
HETATM    9  N3  UNL     1       5.407   8.681  22.873  1.00  0.00    -0.360 N 
ATOM     10  H3  UNL     1       4.726   9.276  22.401  1.00  0.00     0.162 HD
BRANCH   9  11
HETATM   11  C12 UNL     1       6.128   9.209  23.923  1.00  0.00     0.168 C 
BRANCH  11  12
HETATM   12  O4  UNL     1       5.402   9.491  24.971  1.00  0.00    -0.344 OA
ATOM     13  H4  UNL     1       5.125  10.399  25.013  1.00  0.00     0.219 HD
ENDBRANCH  11  12
BRANCH  11  14
HETATM   14  C13 UNL     1       7.499   9.495  24.045  1.00  0.00     0.132 C 
BRANCH  14  15
HETATM   15  N4  UNL     1       8.092  10.188  23.065  1.00  0.00    -0.261 N 
ATOM     16  H4  UNL     1       8.368  11.152  23.251  1.00  0.00     0.194 HD
BRANCH  15  17
HETATM   17  O5  UNL     1       8.343   9.673  21.842  1.00  0.00    -0.285 OA
HETATM   18  C14 UNL     1       7.725  10.285  20.713  1.00  0.00     0.237 C 
ENDBRANCH  15  17
ENDBRANCH  14  15
BRANCH  14  19
HETATM   19  C15 UNL     1       8.429   9.153  25.162  1.00  0.00     0.074 A 
HETATM   20  C16 UNL     1       9.746   9.506  25.128  1.00  0.00     0.085 A 
HETATM   21  S1  UNL     1      10.361   8.784  26.570  1.00  0.00    -0.064 SA
HETATM   22  C17 UNL     1       8.917   8.089  27.121  1.00  0.00     0.142 A 
HETATM   23  N6  UNL     1       8.035   8.430  26.193  1.00  0.00    -0.335 N 
ATOM     24  H6  UNL     1       7.062   8.137  26.274  1.00  0.00     0.168 HD
BRANCH  22  25
HETATM   25  N5  UNL     1       8.692   7.374  28.206  1.00  0.00    -0.380 N 
ATOM     26  H52 UNL     1       8.229   6.467  28.259  1.00  0.00     0.158 HD
ATOM     27  H51 UNL     1       8.928   7.579  29.178  1.00  0.00     0.158 HD
ENDBRANCH  22  25
ENDBRANCH  14  19
ENDBRANCH  11  14
ENDBRANCH   9  11
ENDBRANCH   5   9
BRANCH   2  28
HETATM   28  C9  UNL     1       4.993   3.300  21.787  1.00  0.00     0.227 C 
HETATM   29  O2  UNL     1       3.809   2.779  21.971  1.00  0.00    -0.643 OA
HETATM   30  O3  UNL     1       5.918   2.693  22.537  1.00  0.00    -0.643 OA
ENDBRANCH   2  28
BRANCH   1  31
HETATM   31  C6  UNL     1       5.805   3.091  18.900  1.00  0.00     0.147 C 
BRANCH  31  32
HETATM   32  N1  UNL     1       6.762   2.249  18.383  1.00  0.00    -0.360 N 
BRANCH  32  33
HETATM   33  C3  UNL     1       6.964   1.586  17.124  1.00  0.00     0.124 C 
BRANCH  33  34
HETATM   34  C2  UNL     1       6.793   2.671  16.013  1.00  0.00     0.015 C 
HETATM   35  C1  UNL     1       5.937   2.087  14.930  1.00  0.00     0.006 C 
ENDBRANCH  33  34
ENDBRANCH  32  33
BRANCH  32  36
HETATM   36  C4  UNL     1       7.864   1.886  19.352  1.00  0.00     0.140 C 
BRANCH  36  37
HETATM   37  C5  UNL     1       9.187   1.998  18.677  1.00  0.00     0.134 C 
HETATM   38 CL1  UNL     1       9.966   0.408  18.655  1.00  0.00    -0.129 Cl
ENDBRANCH  36  37
ENDBRANCH  32  36
ENDBRANCH  31  32
BRANCH  31  39
HETATM   39  O1  UNL     1       4.554   2.560  18.508  1.00  0.00    -0.346 OA
ATOM     40  H1  UNL     1       4.106   3.251  18.036  1.00  0.00     0.219 HD
ENDBRANCH  31  39
ENDBRANCH   1  31
TORSDOF 16
ENDMDL
MODEL 3
REMARK VINA RESULT: -7.245294592      1.660      2.319
REMARK  16 active torsions:
REMARK  status: ('A' for Active; 'I' for Inactive)
REMARK    1  A    between atoms: C2_2  and  C3_3 
REMARK    2  A    between atoms: C3_3  and  N1_4 
REMARK    3  A    between atoms: N1_4  and  C4_5 
REMARK    4  A    between atoms: N1_4  and  C6_8 
REMARK    5  A    between atoms: C4_5  and  C5_6 
REMARK    6  A    between atoms: C6_8  and  O1_9 
REMARK    7  A    between atoms: C6_8  and  C7_11 
REMARK    8  A    between atoms: C8_12  and  C9_13 
REMARK    9  A    between atoms: C11_18  and  N3_19 
REMARK   10  A    between atoms: N3_19  and  C12_21 
REMARK   11  A    between atoms: C12_21  and  O4_22 
REMARK   12  A    between atoms: C12_21  and  C13_24 
REMARK   13  A    between atoms: C13_24  and  N4_25 
REMARK   14  A    between atoms: C13_24  and  C15_29 
REMARK   15  A    between atoms: N4_25  and  O5_27 
REMARK   16  A    between atoms: C17_32  and  N5_33 
ROOT
HETATM    1  C7  UNL     1       6.562   4.708  18.908  1.00  0.00     0.035 C 
HETATM    2  C8  UNL     1       5.915   5.800  18.782  1.00  0.00     0.120 C 
HETATM    3  N2  UNL     1       6.002   6.974  19.629  1.00  0.00    -0.357 N 
HETATM    4  C10 UNL     1       5.755   8.362  19.884  1.00  0.00     0.152 C 
HETATM    5  C11 UNL     1       5.371   7.838  21.313  1.00  0.00     0.134 C 
HETATM    6  C18 UNL     1       6.540   7.015  20.987  1.00  0.00     0.171 C 
HETATM    7  S2  UNL     1       6.694   5.307  21.496  1.00  0.00    -0.137 SA
HETATM    8  C19 UNL     1       7.642   4.711  20.036  1.00  0.00     0.121 C 
ENDROOT
BRANCH   5   9
HETATM    9  N3  UNL     1       5.544   8.886  22.331  1.00  0.00    -0.360 N 
ATOM     10  H3  UNL     1       5.056   9.773  22.206  1.00  0.00     0.162 HD
BRANCH   9  11
HETATM   11  C12 UNL     1       6.337   8.721  23.448  1.00  0.00     0.168 C 
BRANCH  11  12
HETATM   12  O4  UNL     1       5.918   7.790  24.260  1.00  0.00    -0.344 OA
ATOM     13  H4  UNL     1       6.608   7.225  24.586  1.00  0.00     0.219 HD
ENDBRANCH  11  12
BRANCH  11  14
HETATM   14  C13 UNL     1       7.507   9.390  23.850  1.00  0.00     0.132 C 
BRANCH  14  15
HETATM   15  N4  UNL     1       7.912  10.446  23.134  1.00  0.00    -0.261 N 
ATOM     16  H4  UNL     1       8.133  11.311  23.628  1.00  0.00     0.194 HD
BRANCH  15  17
HETATM   17  O5  UNL     1       8.041  10.424  21.790  1.00  0.00    -0.285 OA
HETATM   18  C14 UNL     1       7.475  11.496  21.040  1.00  0.00     0.237 C 
ENDBRANCH  15  17
ENDBRANCH  14  15
BRANCH  14  19
HETATM   19  C15 UNL     1       8.389   9.107  25.021  1.00  0.00     0.074 A 
HETATM   20  C16 UNL     1       9.705   9.466  25.027  1.00  0.00     0.085 A 
HETATM   21  S1  UNL     1      10.260   8.816  26.527  1.00  0.00    -0.064 SA
HETATM   22  C17 UNL     1       8.796   8.139  27.046  1.00  0.00     0.142 A 
HETATM   23  N6  UNL     1       7.954   8.431  26.066  1.00  0.00    -0.335 N 
ATOM     24  H6  UNL     1       6.979   8.135  26.120  1.00  0.00     0.168 HD
BRANCH  22  25
HETATM   25  N5  UNL     1       8.527   7.474  28.154  1.00  0.00    -0.380 N 
ATOM     26  H52 UNL     1       9.003   7.559  29.052  1.00  0.00     0.158 HD
ATOM     27  H51 UNL     1       7.813   6.766  28.327  1.00  0.00     0.158 HD
ENDBRANCH  22  25
ENDBRANCH  14  19
ENDBRANCH  11  14
ENDBRANCH   9  11
ENDBRANCH   5   9
BRANCH   2  28
HETATM   28  C9  UNL     1       4.913   5.948  17.719  1.00  0.00     0.227 C 
HETATM   29  O2  UNL     1       5.267   6.578  16.630  1.00  0.00    -0.643 OA
HETATM   30  O3  UNL     1       3.636   5.557  17.666  1.00  0.00    -0.643 OA
ENDBRANCH   2  28
BRANCH   1  31
HETATM   31  C6  UNL     1       6.591   3.500  18.198  1.00  0.00     0.147 C 
BRANCH  31  32
HETATM   32  N1  UNL     1       7.095   2.749  17.161  1.00  0.00    -0.360 N 
BRANCH  32  33
HETATM   33  C3  UNL     1       8.207   1.854  16.998  1.00  0.00     0.124 C 
BRANCH  33  34
HETATM   34  C2  UNL     1       9.035   1.920  18.322  1.00  0.00     0.015 C 
HETATM   35  C1  UNL     1       9.633   0.566  18.558  1.00  0.00     0.006 C 
ENDBRANCH  33  34
ENDBRANCH  32  33
BRANCH  32  36
HETATM   36  C4  UNL     1       6.346   2.901  15.858  1.00  0.00     0.140 C 
BRANCH  36  37
HETATM   37  C5  UNL     1       5.789   1.585  15.439  1.00  0.00     0.134 C 
HETATM   38 CL1  UNL     1       5.494   1.606  13.693  1.00  0.00    -0.129 Cl
ENDBRANCH  36  37
ENDBRANCH  32  36
ENDBRANCH  31  32
BRANCH  31  39
HETATM   39  O1  UNL     1       5.682   2.665  18.889  1.00  0.00    -0.346 OA
ATOM     40  H1  UNL     1       4.877   3.161  18.977  1.00  0.00     0.219 HD
ENDBRANCH  31  39
ENDBRANCH   1  31
TORSDOF 16
ENDMDL
MODEL 4
REMARK VINA RESULT: -7.004566878      2.087      3.091
REMARK  16 active torsions:
REMARK  status: ('A' for Active; 'I' for Inactive)
REMARK    1  A    between atoms: C2_2  and  C3_3 
REMARK    2  A    between atoms: C3_3  and  N1_4 
REMARK    3  A    between atoms: N1_4  and  C4_5 
REMARK    4  A    between atoms: N1_4  and  C6_8 
REMARK    5  A    between atoms: C4_5  and  C5_6 
REMARK    6  A    between atoms: C6_8  and  O1_9 
REMARK    7  A    between atoms: C6_8  and  C7_11 
REMARK    8  A    between atoms: C8_12  and  C9_13 
REMARK    9  A    between atoms: C11_18  and  N3_19 
REMARK   10  A    between atoms: N3_19  and  C12_21 
REMARK   11  A    between atoms: C12_21  and  O4_22 
REMARK   12  A    between atoms: C12_21  and  C13_24 
REMARK   13  A    between atoms: C13_24  and  N4_25 
REMARK   14  A    between atoms: C13_24  and  C15_29 
REMARK   15  A    between atoms: N4_25  and  O5_27 
REMARK   16  A    between atoms: C17_32  and  N5_33 
ROOT
HETATM    1  C7  UNL     1       6.597   4.499  18.680  1.00  0.00     0.035 C 
HETATM    2  C8  UNL     1       5.940   5.584  18.551  1.00  0.00     0.120 C 
HETATM    3  N2  UNL     1       6.069   6.787  19.350  1.00  0.00    -0.357 N 
HETATM    4  C10 UNL     1       5.831   8.183  19.569  1.00  0.00     0.152 C 
HETATM    5  C11 UNL     1       5.529   7.710  21.035  1.00  0.00     0.134 C 
HETATM    6  C18 UNL     1       6.681   6.879  20.673  1.00  0.00     0.171 C 
HETATM    7  S2  UNL     1       6.871   5.190  21.234  1.00  0.00    -0.137 SA
HETATM    8  C19 UNL     1       7.738   4.544  19.745  1.00  0.00     0.121 C 
ENDROOT
BRANCH   5   9
HETATM    9  N3  UNL     1       5.755   8.794  22.004  1.00  0.00    -0.360 N 
ATOM     10  H3  UNL     1       5.310   9.697  21.837  1.00  0.00     0.162 HD
BRANCH   9  11
HETATM   11  C12 UNL     1       6.541   8.644  23.127  1.00  0.00     0.168 C 
BRANCH  11  12
HETATM   12  O4  UNL     1       6.180   7.651  23.893  1.00  0.00    -0.344 OA
ATOM     13  H4  UNL     1       6.842   7.391  24.523  1.00  0.00     0.219 HD
ENDBRANCH  11  12
BRANCH  11  14
HETATM   14  C13 UNL     1       7.651   9.380  23.576  1.00  0.00     0.132 C 
BRANCH  14  15
HETATM   15  N4  UNL     1       8.013  10.468  22.886  1.00  0.00    -0.261 N 
ATOM     16  H4  UNL     1       8.185  11.333  23.398  1.00  0.00     0.194 HD
BRANCH  15  17
HETATM   17  O5  UNL     1       8.161  10.477  21.543  1.00  0.00    -0.285 OA
HETATM   18  C14 UNL     1       7.496  11.494  20.798  1.00  0.00     0.237 C 
ENDBRANCH  15  17
ENDBRANCH  14  15
BRANCH  14  19
HETATM   19  C15 UNL     1       8.509   9.139  24.775  1.00  0.00     0.074 A 
HETATM   20  C16 UNL     1       9.835   9.457  24.780  1.00  0.00     0.085 A 
HETATM   21  S1  UNL     1      10.349   8.879  26.323  1.00  0.00    -0.064 SA
HETATM   22  C17 UNL     1       8.858   8.280  26.859  1.00  0.00     0.142 A 
HETATM   23  N6  UNL     1       8.038   8.539  25.851  1.00  0.00    -0.335 N 
ATOM     24  H6  UNL     1       7.054   8.277  25.908  1.00  0.00     0.168 HD
BRANCH  22  25
HETATM   25  N5  UNL     1       8.554   7.690  28.000  1.00  0.00    -0.380 N 
ATOM     26  H52 UNL     1       9.135   7.633  28.836  1.00  0.00     0.158 HD
ATOM     27  H51 UNL     1       7.704   7.190  28.264  1.00  0.00     0.158 HD
ENDBRANCH  22  25
ENDBRANCH  14  19
ENDBRANCH  11  14
ENDBRANCH   9  11
ENDBRANCH   5   9
BRANCH   2  28
HETATM   28  C9  UNL     1       4.879   5.691  17.541  1.00  0.00     0.227 C 
HETATM   29  O2  UNL     1       5.128   6.393  16.468  1.00  0.00    -0.643 OA
HETATM   30  O3  UNL     1       3.637   5.197  17.527  1.00  0.00    -0.643 OA
ENDBRANCH   2  28
BRANCH   1  31
HETATM   31  C6  UNL     1       6.592   3.266  18.013  1.00  0.00     0.147 C 
BRANCH  31  32
HETATM   32  N1  UNL     1       6.883   2.527  16.889  1.00  0.00    -0.360 N 
BRANCH  32  33
HETATM   33  C3  UNL     1       6.118   1.981  15.802  1.00  0.00     0.124 C 
BRANCH  33  34
HETATM   34  C2  UNL     1       5.617   3.193  14.953  1.00  0.00     0.015 C 
HETATM   35  C1  UNL     1       4.143   3.027  14.740  1.00  0.00     0.006 C 
ENDBRANCH  33  34
ENDBRANCH  32  33
BRANCH  32  36
HETATM   36  C4  UNL     1       8.340   2.154  16.748  1.00  0.00     0.140 C 
BRANCH  36  37
HETATM   37  C5  UNL     1       8.584   0.825  17.375  1.00  0.00     0.134 C 
HETATM   38 CL1  UNL     1       9.324   1.059  18.967  1.00  0.00    -0.129 Cl
ENDBRANCH  36  37
ENDBRANCH  32  36
ENDBRANCH  31  32
BRANCH  31  39
HETATM   39  O1  UNL     1       6.037   2.363  18.950  1.00  0.00    -0.346 OA
ATOM     40  H1  UNL     1       6.494   2.512  19.769  1.00  0.00     0.219 HD
ENDBRANCH  31  39
ENDBRANCH   1  31
TORSDOF 16
ENDMDL
MODEL 5
REMARK VINA RESULT: -6.977075878      1.411      2.079
REMARK  16 active torsions:
REMARK  status: ('A' for Active; 'I' for Inactive)
REMARK    1  A    between atoms: C2_2  and  C3_3 
REMARK    2  A    between atoms: C3_3  and  N1_4 
REMARK    3  A    between atoms: N1_4  and  C4_5 
REMARK    4  A    between atoms: N1_4  and  C6_8 
REMARK    5  A    between atoms: C4_5  and  C5_6 
REMARK    6  A    between atoms: C6_8  and  O1_9 
REMARK    7  A    between atoms: C6_8  and  C7_11 
REMARK    8  A    between atoms: C8_12  and  C9_13 
REMARK    9  A    between atoms: C11_18  and  N3_19 
REMARK   10  A    between atoms: N3_19  and  C12_21 
REMARK   11  A    between atoms: C12_21  and  O4_22 
REMARK   12  A    between atoms: C12_21  and  C13_24 
REMARK   13  A    between atoms: C13_24  and  N4_25 
REMARK   14  A    between atoms: C13_24  and  C15_29 
REMARK   15  A    between atoms: N4_25  and  O5_27 
REMARK   16  A    between atoms: C17_32  and  N5_33 
ROOT
HETATM    1  C7  UNL     1       5.947   4.251  19.699  1.00  0.00     0.035 C 
HETATM    2  C8  UNL     1       5.274   4.465  20.760  1.00  0.00     0.120 C 
HETATM    3  N2  UNL     1       4.925   5.750  21.334  1.00  0.00    -0.357 N 
HETATM    4  C10 UNL     1       4.154   6.561  22.229  1.00  0.00     0.152 C 
HETATM    5  C11 UNL     1       5.536   7.255  22.492  1.00  0.00     0.134 C 
HETATM    6  C18 UNL     1       5.577   7.026  21.046  1.00  0.00     0.171 C 
HETATM    7  S2  UNL     1       7.083   6.609  20.173  1.00  0.00    -0.137 SA
HETATM    8  C19 UNL     1       6.322   5.533  18.889  1.00  0.00     0.121 C 
ENDROOT
BRANCH   5   9
HETATM    9  N3  UNL     1       5.359   8.642  22.952  1.00  0.00    -0.360 N 
ATOM     10  H3  UNL     1       4.652   9.220  22.498  1.00  0.00     0.162 HD
BRANCH   9  11
HETATM   11  C12 UNL     1       6.107   9.194  23.971  1.00  0.00     0.168 C 
BRANCH  11  12
HETATM   12  O4  UNL     1       5.401   9.551  25.009  1.00  0.00    -0.344 OA
ATOM     13  H4  UNL     1       4.807   8.877  25.319  1.00  0.00     0.219 HD
ENDBRANCH  11  12
BRANCH  11  14
HETATM   14  C13 UNL     1       7.488   9.438  24.068  1.00  0.00     0.132 C 
BRANCH  14  15
HETATM   15  N4  UNL     1       8.090  10.087  23.063  1.00  0.00    -0.261 N 
ATOM     16  H4  UNL     1       9.104  10.011  22.975  1.00  0.00     0.194 HD
BRANCH  15  17
HETATM   17  O5  UNL     1       7.421  10.837  22.161  1.00  0.00    -0.285 OA
HETATM   18  C14 UNL     1       7.591  10.537  20.778  1.00  0.00     0.237 C 
ENDBRANCH  15  17
ENDBRANCH  14  15
BRANCH  14  19
HETATM   19  C15 UNL     1       8.421   9.094  25.182  1.00  0.00     0.074 A 
HETATM   20  C16 UNL     1       9.751   9.391  25.117  1.00  0.00     0.085 A 
HETATM   21  S1  UNL     1      10.359   8.690  26.572  1.00  0.00    -0.064 SA
HETATM   22  C17 UNL     1       8.897   8.074  27.166  1.00  0.00     0.142 A 
HETATM   23  N6  UNL     1       8.015   8.421  26.241  1.00  0.00    -0.335 N 
ATOM     24  H6  UNL     1       7.032   8.171  26.347  1.00  0.00     0.168 HD
BRANCH  22  25
HETATM   25  N5  UNL     1       8.661   7.404  28.278  1.00  0.00    -0.380 N 
ATOM     26  H52 UNL     1       8.576   6.392  28.379  1.00  0.00     0.158 HD
ATOM     27  H51 UNL     1       8.521   7.752  29.227  1.00  0.00     0.158 HD
ENDBRANCH  22  25
ENDBRANCH  14  19
ENDBRANCH  11  14
ENDBRANCH   9  11
ENDBRANCH   5   9
BRANCH   2  28
HETATM   28  C9  UNL     1       4.807   3.339  21.580  1.00  0.00     0.227 C 
HETATM   29  O2  UNL     1       5.615   2.878  22.498  1.00  0.00    -0.643 OA
HETATM   30  O3  UNL     1       3.662   2.651  21.543  1.00  0.00    -0.643 OA
ENDBRANCH   2  28
BRANCH   1  31
HETATM   31  C6  UNL     1       6.371   3.098  19.023  1.00  0.00     0.147 C 
BRANCH  31  32
HETATM   32  N1  UNL     1       6.504   2.398  17.847  1.00  0.00    -0.360 N 
BRANCH  32  33
HETATM   33  C3  UNL     1       5.608   1.683  16.980  1.00  0.00     0.124 C 
BRANCH  33  34
HETATM   34  C2  UNL     1       5.432   2.557  15.697  1.00  0.00     0.015 C 
HETATM   35  C1  UNL     1       5.579   1.660  14.506  1.00  0.00     0.006 C 
ENDBRANCH  33  34
ENDBRANCH  32  33
BRANCH  32  36
HETATM   36  C4  UNL     1       7.920   2.310  17.329  1.00  0.00     0.140 C 
BRANCH  36  37
HETATM   37  C5  UNL     1       8.403   0.903  17.415  1.00  0.00     0.134 C 
HETATM   38 CL1  UNL     1       9.643   0.789  18.674  1.00  0.00    -0.129 Cl
ENDBRANCH  36  37
ENDBRANCH  32  36
ENDBRANCH  31  32
BRANCH  31  39
HETATM   39  O1  UNL     1       6.939   2.289  20.035  1.00  0.00    -0.346 OA
ATOM     40  H1  UNL     1       7.613   2.813  20.451  1.00  0.00     0.219 HD
ENDBRANCH  31  39
ENDBRANCH   1  31
TORSDOF 16
ENDMDL
