MODEL 1
REMARK VINA RESULT: -8.101946433      0.000      0.000
REMARK  8 active torsions:
REMARK  status: ('A' for Active; 'I' for Inactive)
REMARK    1  A    between atoms: C2_2  and  S1_3 
REMARK    2  A    between atoms: S1_3  and  N1_6 
REMARK    3  A    between atoms: C5_9  and  C6_10 
REMARK    4  A    between atoms: C6_10  and  C7_11 
REMARK    5  A    between atoms: C7_11  and  C8_12 
REMARK    6  A    between atoms: C8_12  and  C9_13 
REMARK    7  A    between atoms: C9_13  and  C10_14 
REMARK    8  A    between atoms: C10_14  and  C11_15 
ROOT
HETATM    1  N1  UNL     1     -29.497  30.967   4.631  1.00  0.00    -0.310 N 
HETATM    2  C3  UNL     1     -29.563  31.186   3.266  1.00  0.00     0.135 C 
HETATM    3  C4  UNL     1     -28.203  30.878   2.584  1.00  0.00     0.025 C 
HETATM    4  C5  UNL     1     -27.152  31.784   3.170  1.00  0.00    -0.012 C 
HETATM    5  C16 UNL     1     -27.292  31.878   4.673  1.00  0.00     0.025 C 
HETATM    6  C17 UNL     1     -28.188  30.715   5.113  1.00  0.00     0.135 C 
ENDROOT
BRANCH   1   7
HETATM    7  S1  UNL     1     -30.805  30.434   5.542  1.00  0.00     0.236 S 
HETATM    8  O1  UNL     1     -30.285  30.218   6.968  1.00  0.00    -0.205 OA
HETATM    9  O2  UNL     1     -31.763  31.603   5.540  1.00  0.00    -0.205 OA
BRANCH   7  10
HETATM   10  C2  UNL     1     -31.557  28.917   4.995  1.00  0.00     0.080 C 
HETATM   11  C1  UNL     1     -32.692  29.451   4.049  1.00  0.00     0.034 C 
HETATM   12  C18 UNL     1     -32.373  28.263   6.059  1.00  0.00     0.029 C 
HETATM   13  C19 UNL     1     -31.697  27.890   7.316  1.00  0.00     0.034 C 
HETATM   14  C20 UNL     1     -31.006  26.529   7.206  1.00  0.00     0.122 C 
HETATM   15  C21 UNL     1     -29.526  26.632   7.335  1.00  0.00     0.039 C 
HETATM   16  O3  UNL     1     -31.330  26.051   5.953  1.00  0.00    -0.380 OA
HETATM   17  C22 UNL     1     -29.000  26.127   6.037  1.00  0.00     0.018 C 
HETATM   18  C23 UNL     1     -28.539  27.190   5.030  1.00  0.00     0.014 C 
HETATM   19  C26 UNL     1     -30.224  25.897   5.194  1.00  0.00     0.130 C 
HETATM   20  C24 UNL     1     -29.816  27.078   4.348  1.00  0.00     0.017 C 
HETATM   21  C25 UNL     1     -30.793  28.091   4.071  1.00  0.00     0.034 C 
ENDBRANCH   7  10
ENDBRANCH   1   7
BRANCH   4  22
HETATM   22  C6  UNL     1     -25.786  31.401   2.730  1.00  0.00     0.005 C 
BRANCH  22  23
HETATM   23  C7  UNL     1     -25.461  29.941   2.803  1.00  0.00     0.000 C 
BRANCH  23  24
HETATM   24  C8  UNL     1     -24.570  29.597   3.973  1.00  0.00     0.000 C 
BRANCH  24  25
HETATM   25  C9  UNL     1     -24.583  28.127   4.267  1.00  0.00     0.000 C 
BRANCH  25  26
HETATM   26  C10 UNL     1     -25.649  27.387   3.503  1.00  0.00     0.004 C 
BRANCH  26  27
HETATM   27  C11 UNL     1     -25.129  26.221   2.709  1.00  0.00    -0.014 C 
HETATM   28  C12 UNL     1     -25.511  26.290   1.251  1.00  0.00     0.004 C 
HETATM   29  C13 UNL     1     -26.996  26.215   1.297  1.00  0.00     0.000 C 
HETATM   30  C14 UNL     1     -27.263  25.196   2.380  1.00  0.00     0.000 C 
HETATM   31  C15 UNL     1     -25.953  25.015   3.137  1.00  0.00     0.004 C 
ENDBRANCH  26  27
ENDBRANCH  25  26
ENDBRANCH  24  25
ENDBRANCH  23  24
ENDBRANCH  22  23
ENDBRANCH   4  22
TORSDOF 8
ENDMDL
MODEL 2
REMARK VINA RESULT: -7.848663143      2.137      6.193
REMARK  8 active torsions:
REMARK  status: ('A' for Active; 'I' for Inactive)
REMARK    1  A    between atoms: C2_2  and  S1_3 
REMARK    2  A    between atoms: S1_3  and  N1_6 
REMARK    3  A    between atoms: C5_9  and  C6_10 
REMARK    4  A    between atoms: C6_10  and  C7_11 
REMARK    5  A    between atoms: C7_11  and  C8_12 
REMARK    6  A    between atoms: C8_12  and  C9_13 
REMARK    7  A    between atoms: C9_13  and  C10_14 
REMARK    8  A    between atoms: C10_14  and  C11_15 
ROOT
HETATM    1  N1  UNL     1     -28.829  29.709   4.450  1.00  0.00    -0.310 N 
HETATM    2  C3  UNL     1     -29.174  30.942   4.978  1.00  0.00     0.135 C 
HETATM    3  C4  UNL     1     -30.716  31.097   5.072  1.00  0.00     0.025 C 
HETATM    4  C5  UNL     1     -31.298  30.982   3.688  1.00  0.00    -0.012 C 
HETATM    5  C16 UNL     1     -30.652  29.852   2.918  1.00  0.00     0.025 C 
HETATM    6  C17 UNL     1     -29.926  28.971   3.941  1.00  0.00     0.135 C 
ENDROOT
BRANCH   1   7
HETATM    7  S1  UNL     1     -27.436  28.878   4.890  1.00  0.00     0.236 S 
HETATM    8  O1  UNL     1     -26.854  29.610   6.105  1.00  0.00    -0.205 OA
HETATM    9  O2  UNL     1     -27.936  27.520   5.329  1.00  0.00    -0.205 OA
BRANCH   7  10
HETATM   10  C2  UNL     1     -26.169  28.784   3.645  1.00  0.00     0.080 C 
HETATM   11  C1  UNL     1     -25.616  30.254   3.646  1.00  0.00     0.034 C 
HETATM   12  C18 UNL     1     -26.726  28.703   2.263  1.00  0.00     0.029 C 
HETATM   13  C19 UNL     1     -27.621  27.574   1.944  1.00  0.00     0.034 C 
HETATM   14  C20 UNL     1     -26.836  26.321   1.549  1.00  0.00     0.122 C 
HETATM   15  C21 UNL     1     -27.026  25.204   2.516  1.00  0.00     0.039 C 
HETATM   16  O3  UNL     1     -25.510  26.704   1.540  1.00  0.00    -0.380 OA
HETATM   17  C22 UNL     1     -25.664  24.936   3.054  1.00  0.00     0.018 C 
HETATM   18  C23 UNL     1     -25.362  25.499   4.449  1.00  0.00     0.014 C 
HETATM   19  C26 UNL     1     -24.801  26.015   2.460  1.00  0.00     0.130 C 
HETATM   20  C24 UNL     1     -24.696  26.632   3.833  1.00  0.00     0.017 C 
HETATM   21  C25 UNL     1     -24.965  28.034   3.975  1.00  0.00     0.034 C 
ENDBRANCH   7  10
ENDBRANCH   1   7
BRANCH   4  22
HETATM   22  C6  UNL     1     -32.781  30.900   3.718  1.00  0.00     0.005 C 
BRANCH  22  23
HETATM   23  C7  UNL     1     -33.381  30.400   4.995  1.00  0.00     0.000 C 
BRANCH  23  24
HETATM   24  C8  UNL     1     -33.567  28.901   5.008  1.00  0.00     0.000 C 
BRANCH  24  25
HETATM   25  C9  UNL     1     -33.903  28.395   6.378  1.00  0.00     0.000 C 
BRANCH  25  26
HETATM   26  C10 UNL     1     -32.899  27.398   6.896  1.00  0.00     0.004 C 
BRANCH  26  27
HETATM   27  C11 UNL     1     -31.505  27.612   6.375  1.00  0.00    -0.014 C 
HETATM   28  C12 UNL     1     -30.662  26.362   6.432  1.00  0.00     0.004 C 
HETATM   29  C13 UNL     1     -30.590  26.080   7.890  1.00  0.00     0.000 C 
HETATM   30  C14 UNL     1     -30.435  27.450   8.507  1.00  0.00     0.000 C 
HETATM   31  C15 UNL     1     -30.787  28.457   7.418  1.00  0.00     0.004 C 
ENDBRANCH  26  27
ENDBRANCH  25  26
ENDBRANCH  24  25
ENDBRANCH  23  24
ENDBRANCH  22  23
ENDBRANCH   4  22
TORSDOF 8
ENDMDL
MODEL 3
REMARK VINA RESULT: -7.721002167      2.329      6.221
REMARK  8 active torsions:
REMARK  status: ('A' for Active; 'I' for Inactive)
REMARK    1  A    between atoms: C2_2  and  S1_3 
REMARK    2  A    between atoms: S1_3  and  N1_6 
REMARK    3  A    between atoms: C5_9  and  C6_10 
REMARK    4  A    between atoms: C6_10  and  C7_11 
REMARK    5  A    between atoms: C7_11  and  C8_12 
REMARK    6  A    between atoms: C8_12  and  C9_13 
REMARK    7  A    between atoms: C9_13  and  C10_14 
REMARK    8  A    between atoms: C10_14  and  C11_15 
ROOT
HETATM    1  N1  UNL     1     -29.853  29.998   3.212  1.00  0.00    -0.310 N 
HETATM    2  C3  UNL     1     -30.035  31.299   3.648  1.00  0.00     0.135 C 
HETATM    3  C4  UNL     1     -31.273  31.410   4.578  1.00  0.00     0.025 C 
HETATM    4  C5  UNL     1     -32.494  30.982   3.808  1.00  0.00    -0.012 C 
HETATM    5  C16 UNL     1     -32.215  29.741   2.990  1.00  0.00     0.025 C 
HETATM    6  C17 UNL     1     -30.922  29.126   3.538  1.00  0.00     0.135 C 
ENDROOT
BRANCH   1   7
HETATM    7  S1  UNL     1     -28.341  29.333   2.901  1.00  0.00     0.236 S 
HETATM    8  O1  UNL     1     -28.545  28.273   1.813  1.00  0.00    -0.205 OA
HETATM    9  O2  UNL     1     -27.542  30.480   2.326  1.00  0.00    -0.205 OA
BRANCH   7  10
HETATM   10  C2  UNL     1     -27.542  28.554   4.287  1.00  0.00     0.080 C 
HETATM   11  C1  UNL     1     -28.080  29.414   5.486  1.00  0.00     0.034 C 
HETATM   12  C18 UNL     1     -26.085  28.865   4.360  1.00  0.00     0.029 C 
HETATM   13  C19 UNL     1     -25.242  28.492   3.208  1.00  0.00     0.034 C 
HETATM   14  C20 UNL     1     -24.790  27.032   3.284  1.00  0.00     0.122 C 
HETATM   15  C21 UNL     1     -25.340  26.209   2.172  1.00  0.00     0.039 C 
HETATM   16  O3  UNL     1     -25.269  26.560   4.489  1.00  0.00    -0.380 OA
HETATM   17  C22 UNL     1     -26.168  25.171   2.845  1.00  0.00     0.018 C 
HETATM   18  C23 UNL     1     -27.686  25.399   2.832  1.00  0.00     0.014 C 
HETATM   19  C26 UNL     1     -26.150  25.554   4.300  1.00  0.00     0.130 C 
HETATM   20  C24 UNL     1     -27.602  25.943   4.176  1.00  0.00     0.017 C 
HETATM   21  C25 UNL     1     -28.010  27.228   4.665  1.00  0.00     0.034 C 
ENDBRANCH   7  10
ENDBRANCH   1   7
BRANCH   4  22
HETATM   22  C6  UNL     1     -33.683  30.850   4.689  1.00  0.00     0.005 C 
BRANCH  22  23
HETATM   23  C7  UNL     1     -34.271  29.477   4.791  1.00  0.00     0.000 C 
BRANCH  23  24
HETATM   24  C8  UNL     1     -34.467  29.026   6.219  1.00  0.00     0.000 C 
BRANCH  24  25
HETATM   25  C9  UNL     1     -34.334  27.540   6.356  1.00  0.00     0.000 C 
BRANCH  25  26
HETATM   26  C10 UNL     1     -33.069  27.127   7.059  1.00  0.00     0.004 C 
BRANCH  26  27
HETATM   27  C11 UNL     1     -31.812  27.512   6.328  1.00  0.00    -0.014 C 
HETATM   28  C12 UNL     1     -30.786  26.406   6.308  1.00  0.00     0.004 C 
HETATM   29  C13 UNL     1     -30.466  26.229   7.749  1.00  0.00     0.000 C 
HETATM   30  C14 UNL     1     -30.440  27.643   8.281  1.00  0.00     0.000 C 
HETATM   31  C15 UNL     1     -31.095  28.517   7.217  1.00  0.00     0.004 C 
ENDBRANCH  26  27
ENDBRANCH  25  26
ENDBRANCH  24  25
ENDBRANCH  23  24
ENDBRANCH  22  23
ENDBRANCH   4  22
TORSDOF 8
ENDMDL
MODEL 4
REMARK VINA RESULT: -7.485648616      1.682      3.336
REMARK  8 active torsions:
REMARK  status: ('A' for Active; 'I' for Inactive)
REMARK    1  A    between atoms: C2_2  and  S1_3 
REMARK    2  A    between atoms: S1_3  and  N1_6 
REMARK    3  A    between atoms: C5_9  and  C6_10 
REMARK    4  A    between atoms: C6_10  and  C7_11 
REMARK    5  A    between atoms: C7_11  and  C8_12 
REMARK    6  A    between atoms: C8_12  and  C9_13 
REMARK    7  A    between atoms: C9_13  and  C10_14 
REMARK    8  A    between atoms: C10_14  and  C11_15 
ROOT
HETATM    1  N1  UNL     1     -29.436  28.765   4.446  1.00  0.00    -0.310 N 
HETATM    2  C3  UNL     1     -29.511  29.021   3.088  1.00  0.00     0.135 C 
HETATM    3  C4  UNL     1     -28.122  29.412   2.515  1.00  0.00     0.025 C 
HETATM    4  C5  UNL     1     -27.644  30.656   3.217  1.00  0.00    -0.012 C 
HETATM    5  C16 UNL     1     -27.904  30.575   4.704  1.00  0.00     0.025 C 
HETATM    6  C17 UNL     1     -28.190  29.105   5.030  1.00  0.00     0.135 C 
ENDROOT
BRANCH   1   7
HETATM    7  S1  UNL     1     -30.406  27.635   5.225  1.00  0.00     0.236 S 
HETATM    8  O1  UNL     1     -30.836  26.620   4.159  1.00  0.00    -0.205 OA
HETATM    9  O2  UNL     1     -29.474  26.955   6.203  1.00  0.00    -0.205 OA
BRANCH   7  10
HETATM   10  C2  UNL     1     -31.874  28.280   5.996  1.00  0.00     0.080 C 
HETATM   11  C1  UNL     1     -32.415  27.014   6.753  1.00  0.00     0.034 C 
HETATM   12  C18 UNL     1     -32.981  28.510   5.022  1.00  0.00     0.029 C 
HETATM   13  C19 UNL     1     -32.733  29.435   3.901  1.00  0.00     0.034 C 
HETATM   14  C20 UNL     1     -32.974  30.892   4.304  1.00  0.00     0.122 C 
HETATM   15  C21 UNL     1     -31.730  31.709   4.252  1.00  0.00     0.039 C 
HETATM   16  O3  UNL     1     -33.442  30.844   5.601  1.00  0.00    -0.380 OA
HETATM   17  C22 UNL     1     -31.526  32.175   5.651  1.00  0.00     0.018 C 
HETATM   18  C23 UNL     1     -30.467  31.424   6.470  1.00  0.00     0.014 C 
HETATM   19  C26 UNL     1     -32.596  31.475   6.444  1.00  0.00     0.130 C 
HETATM   20  C24 UNL     1     -31.520  30.632   7.080  1.00  0.00     0.017 C 
HETATM   21  C25 UNL     1     -31.691  29.208   7.103  1.00  0.00     0.034 C 
ENDBRANCH   7  10
ENDBRANCH   1   7
BRANCH   4  22
HETATM   22  C6  UNL     1     -26.230  30.968   2.883  1.00  0.00     0.005 C 
BRANCH  22  23
HETATM   23  C7  UNL     1     -25.312  29.791   2.764  1.00  0.00     0.000 C 
BRANCH  23  24
HETATM   24  C8  UNL     1     -24.539  29.520   4.033  1.00  0.00     0.000 C 
BRANCH  24  25
HETATM   25  C9  UNL     1     -24.431  28.051   4.315  1.00  0.00     0.000 C 
BRANCH  25  26
HETATM   26  C10 UNL     1     -25.543  27.252   3.688  1.00  0.00     0.004 C 
BRANCH  26  27
HETATM   27  C11 UNL     1     -25.065  26.120   2.821  1.00  0.00    -0.014 C 
HETATM   28  C12 UNL     1     -25.430  26.303   1.368  1.00  0.00     0.004 C 
HETATM   29  C13 UNL     1     -26.917  26.287   1.399  1.00  0.00     0.000 C 
HETATM   30  C14 UNL     1     -27.237  25.211   2.410  1.00  0.00     0.000 C 
HETATM   31  C15 UNL     1     -25.942  24.925   3.162  1.00  0.00     0.004 C 
ENDBRANCH  26  27
ENDBRANCH  25  26
ENDBRANCH  24  25
ENDBRANCH  23  24
ENDBRANCH  22  23
ENDBRANCH   4  22
TORSDOF 8
ENDMDL
MODEL 5
REMARK VINA RESULT: -7.402155534      1.619      2.508
REMARK  8 active torsions:
REMARK  status: ('A' for Active; 'I' for Inactive)
REMARK    1  A    between atoms: C2_2  and  S1_3 
REMARK    2  A    between atoms: S1_3  and  N1_6 
REMARK    3  A    between atoms: C5_9  and  C6_10 
REMARK    4  A    between atoms: C6_10  and  C7_11 
REMARK    5  A    between atoms: C7_11  and  C8_12 
REMARK    6  A    between atoms: C8_12  and  C9_13 
REMARK    7  A    between atoms: C9_13  and  C10_14 
REMARK    8  A    between atoms: C10_14  and  C11_15 
ROOT
HETATM    1  N1  UNL     1     -27.547  31.081   6.012  1.00  0.00    -0.310 N 
HETATM    2  C3  UNL     1     -26.786  32.071   5.416  1.00  0.00     0.135 C 
HETATM    3  C4  UNL     1     -25.285  31.674   5.375  1.00  0.00     0.025 C 
HETATM    4  C5  UNL     1     -24.801  31.475   6.787  1.00  0.00    -0.012 C 
HETATM    5  C16 UNL     1     -25.812  30.704   7.605  1.00  0.00     0.025 C 
HETATM    6  C17 UNL     1     -26.784  30.051   6.616  1.00  0.00     0.135 C 
ENDROOT
BRANCH   1   7
HETATM    7  S1  UNL     1     -29.136  30.751   5.573  1.00  0.00     0.236 S 
HETATM    8  O1  UNL     1     -29.920  30.564   6.878  1.00  0.00    -0.205 OA
HETATM    9  O2  UNL     1     -29.605  32.018   4.895  1.00  0.00    -0.205 OA
BRANCH   7  10
HETATM   10  C2  UNL     1     -29.374  29.298   4.575  1.00  0.00     0.080 C 
HETATM   11  C1  UNL     1     -28.549  29.661   3.288  1.00  0.00     0.034 C 
HETATM   12  C18 UNL     1     -30.749  29.212   4.003  1.00  0.00     0.029 C 
HETATM   13  C19 UNL     1     -31.886  29.187   4.941  1.00  0.00     0.034 C 
HETATM   14  C20 UNL     1     -32.166  27.774   5.458  1.00  0.00     0.122 C 
HETATM   15  C21 UNL     1     -31.940  27.651   6.925  1.00  0.00     0.039 C 
HETATM   16  O3  UNL     1     -31.284  26.954   4.784  1.00  0.00    -0.380 OA
HETATM   17  C22 UNL     1     -30.855  26.640   7.056  1.00  0.00     0.018 C 
HETATM   18  C23 UNL     1     -29.448  27.186   7.336  1.00  0.00     0.014 C 
HETATM   19  C26 UNL     1     -30.432  26.352   5.641  1.00  0.00     0.130 C 
HETATM   20  C24 UNL     1     -29.136  27.071   5.923  1.00  0.00     0.017 C 
HETATM   21  C25 UNL     1     -28.700  28.080   5.002  1.00  0.00     0.034 C 
ENDBRANCH   7  10
ENDBRANCH   1   7
BRANCH   4  22
HETATM   22  C6  UNL     1     -23.439  30.882   6.825  1.00  0.00     0.005 C 
BRANCH  22  23
HETATM   23  C7  UNL     1     -23.032  30.104   5.611  1.00  0.00     0.000 C 
BRANCH  23  24
HETATM   24  C8  UNL     1     -23.739  28.774   5.502  1.00  0.00     0.000 C 
BRANCH  24  25
HETATM   25  C9  UNL     1     -24.260  28.533   4.118  1.00  0.00     0.000 C 
BRANCH  25  26
HETATM   26  C10 UNL     1     -25.198  27.358   4.042  1.00  0.00     0.004 C 
BRANCH  26  27
HETATM   27  C11 UNL     1     -24.726  26.261   3.129  1.00  0.00    -0.014 C 
HETATM   28  C12 UNL     1     -25.156  26.467   1.697  1.00  0.00     0.004 C 
HETATM   29  C13 UNL     1     -26.640  26.409   1.788  1.00  0.00     0.000 C 
HETATM   30  C14 UNL     1     -26.888  25.301   2.785  1.00  0.00     0.000 C 
HETATM   31  C15 UNL     1     -25.556  25.033   3.476  1.00  0.00     0.004 C 
ENDBRANCH  26  27
ENDBRANCH  25  26
ENDBRANCH  24  25
ENDBRANCH  23  24
ENDBRANCH  22  23
ENDBRANCH   4  22
TORSDOF 8
ENDMDL
