MODEL 1
REMARK VINA RESULT: -6.720562231      0.000      0.000
REMARK  9 active torsions:
REMARK  status: ('A' for Active; 'I' for Inactive)
REMARK    1  A    between atoms: C2_2  and  C3_3 
REMARK    2  A    between atoms: C3_3  and  C4_4 
REMARK    3  A    between atoms: C4_4  and  C5_5 
REMARK    4  A    between atoms: C5_5  and  C6_6 
REMARK    5  A    between atoms: C6_6  and  O1_7 
REMARK    6  A    between atoms: O1_7  and  C7_8 
REMARK    7  A    between atoms: C8_9  and  O2_10 
REMARK    8  A    between atoms: C18_20  and  O3_21 
REMARK    9  A    between atoms: C21_24  and  O4_25 
ROOT
HETATM    1  C7  UNL     1     -24.227  29.654   4.660  1.00  0.00     0.109 A 
HETATM    2  C8  UNL     1     -23.450  30.025   5.733  1.00  0.00     0.102 A 
HETATM    3  C10 UNL     1     -23.750  31.196   6.355  1.00  0.00     0.040 A 
HETATM    4  C11 UNL     1     -24.803  31.963   5.904  1.00  0.00     0.011 A 
HETATM    5  C12 UNL     1     -25.597  31.581   4.810  1.00  0.00    -0.044 A 
HETATM    6  C13 UNL     1     -25.307  30.413   4.181  1.00  0.00    -0.011 A 
HETATM    7  C14 UNL     1     -26.078  29.891   3.015  1.00  0.00     0.077 C 
HETATM    8  C15 UNL     1     -27.487  29.503   3.293  1.00  0.00    -0.064 C 
HETATM    9  C16 UNL     1     -27.679  29.145   4.714  1.00  0.00     0.044 C 
HETATM   10  C17 UNL     1     -28.541  30.273   2.633  1.00  0.00     0.027 A 
HETATM   11  C18 UNL     1     -29.757  29.567   2.463  1.00  0.00     0.083 A 
HETATM   12  C20 UNL     1     -30.837  30.092   1.791  1.00  0.00     0.075 A 
HETATM   13  C21 UNL     1     -30.760  31.353   1.251  1.00  0.00     0.079 A 
HETATM   14  C23 UNL     1     -29.580  32.040   1.416  1.00  0.00     0.005 A 
HETATM   15  C24 UNL     1     -28.473  31.512   2.105  1.00  0.00     0.056 A 
HETATM   16  N1  UNL     1     -27.497  32.510   2.138  1.00  0.00    -0.359 N 
HETATM   17  C25 UNL     1     -26.747  32.941   3.062  1.00  0.00     0.069 C 
HETATM   18  C26 UNL     1     -26.666  32.519   4.460  1.00  0.00     0.084 C 
HETATM   19  C27 UNL     1     -27.630  33.135   0.777  1.00  0.00     0.133 C 
HETATM   20  C28 UNL     1     -29.179  33.375   0.845  1.00  0.00     0.064 C 
ENDROOT
BRANCH   1  21
HETATM   21  O1  UNL     1     -23.891  28.437   4.036  1.00  0.00    -0.348 OA
BRANCH  21  22
HETATM   22  C6  UNL     1     -24.602  27.299   4.443  1.00  0.00     0.176 C 
BRANCH  22  23
HETATM   23  C5  UNL     1     -24.264  26.071   3.663  1.00  0.00     0.027 C 
BRANCH  23  24
HETATM   24  C4  UNL     1     -25.387  25.473   2.888  1.00  0.00     0.002 C 
BRANCH  24  25
HETATM   25  C3  UNL     1     -25.689  26.236   1.626  1.00  0.00    -0.000 C 
BRANCH  25  26
HETATM   26  C2  UNL     1     -27.200  26.253   1.459  1.00  0.00    -0.005 C 
HETATM   27  C1  UNL     1     -27.874  25.630   2.683  1.00  0.00     0.005 C 
ENDBRANCH  25  26
ENDBRANCH  24  25
ENDBRANCH  23  24
ENDBRANCH  22  23
ENDBRANCH  21  22
ENDBRANCH   1  21
BRANCH   2  28
HETATM   28  O2  UNL     1     -22.389  29.257   6.188  1.00  0.00    -0.353 OA
HETATM   29  C9  UNL     1     -21.314  29.832   6.906  1.00  0.00     0.210 C 
ENDBRANCH   2  28
BRANCH  11  30
HETATM   30  O3  UNL     1     -29.868  28.300   2.991  1.00  0.00    -0.355 OA
HETATM   31  C19 UNL     1     -30.882  28.047   3.935  1.00  0.00     0.210 C 
ENDBRANCH  11  30
BRANCH  13  32
HETATM   32  O4  UNL     1     -31.845  31.913   0.559  1.00  0.00    -0.355 OA
HETATM   33  C22 UNL     1     -32.003  31.595  -0.828  1.00  0.00     0.210 C 
ENDBRANCH  13  32
TORSDOF 9
ENDMDL
MODEL 2
REMARK VINA RESULT: -6.574330931      1.740      6.934
REMARK  9 active torsions:
REMARK  status: ('A' for Active; 'I' for Inactive)
REMARK    1  A    between atoms: C2_2  and  C3_3 
REMARK    2  A    between atoms: C3_3  and  C4_4 
REMARK    3  A    between atoms: C4_4  and  C5_5 
REMARK    4  A    between atoms: C5_5  and  C6_6 
REMARK    5  A    between atoms: C6_6  and  O1_7 
REMARK    6  A    between atoms: O1_7  and  C7_8 
REMARK    7  A    between atoms: C8_9  and  O2_10 
REMARK    8  A    between atoms: C18_20  and  O3_21 
REMARK    9  A    between atoms: C21_24  and  O4_25 
ROOT
HETATM    1  C7  UNL     1     -30.995  29.505   2.941  1.00  0.00     0.109 A 
HETATM    2  C8  UNL     1     -31.813  30.075   1.994  1.00  0.00     0.102 A 
HETATM    3  C10 UNL     1     -31.327  31.137   1.295  1.00  0.00     0.040 A 
HETATM    4  C11 UNL     1     -30.054  31.601   1.550  1.00  0.00     0.011 A 
HETATM    5  C12 UNL     1     -29.219  31.016   2.517  1.00  0.00    -0.044 A 
HETATM    6  C13 UNL     1     -29.694  29.955   3.221  1.00  0.00    -0.011 A 
HETATM    7  C14 UNL     1     -28.906  29.240   4.266  1.00  0.00     0.077 C 
HETATM    8  C15 UNL     1     -27.707  28.505   3.781  1.00  0.00    -0.064 C 
HETATM    9  C16 UNL     1     -27.843  28.125   2.360  1.00  0.00     0.044 C 
HETATM   10  C17 UNL     1     -26.399  28.971   4.242  1.00  0.00     0.027 A 
HETATM   11  C18 UNL     1     -25.393  27.973   4.241  1.00  0.00     0.083 A 
HETATM   12  C20 UNL     1     -24.121  28.195   4.717  1.00  0.00     0.075 A 
HETATM   13  C21 UNL     1     -23.785  29.428   5.223  1.00  0.00     0.079 A 
HETATM   14  C23 UNL     1     -24.761  30.397   5.225  1.00  0.00     0.005 A 
HETATM   15  C24 UNL     1     -26.062  30.180   4.736  1.00  0.00     0.056 A 
HETATM   16  N1  UNL     1     -26.742  31.396   4.826  1.00  0.00    -0.359 N 
HETATM   17  C25 UNL     1     -27.495  32.016   4.019  1.00  0.00     0.069 C 
HETATM   18  C26 UNL     1     -27.904  31.643   2.665  1.00  0.00     0.084 C 
HETATM   19  C27 UNL     1     -26.237  31.951   6.129  1.00  0.00     0.133 C 
HETATM   20  C28 UNL     1     -24.710  31.785   5.810  1.00  0.00     0.064 C 
ENDROOT
BRANCH   1  21
HETATM   21  O1  UNL     1     -31.527  28.409   3.648  1.00  0.00    -0.348 OA
BRANCH  21  22
HETATM   22  C6  UNL     1     -32.172  28.691   4.861  1.00  0.00     0.176 C 
BRANCH  22  23
HETATM   23  C5  UNL     1     -31.892  27.692   5.935  1.00  0.00     0.027 C 
BRANCH  23  24
HETATM   24  C4  UNL     1     -31.019  26.552   5.540  1.00  0.00     0.002 C 
BRANCH  24  25
HETATM   25  C3  UNL     1     -29.838  26.383   6.458  1.00  0.00    -0.000 C 
BRANCH  25  26
HETATM   26  C2  UNL     1     -28.754  25.662   5.672  1.00  0.00    -0.005 C 
HETATM   27  C1  UNL     1     -29.284  25.248   4.299  1.00  0.00     0.005 C 
ENDBRANCH  25  26
ENDBRANCH  24  25
ENDBRANCH  23  24
ENDBRANCH  22  23
ENDBRANCH  21  22
ENDBRANCH   1  21
BRANCH   2  28
HETATM   28  O2  UNL     1     -33.093  29.611   1.735  1.00  0.00    -0.353 OA
HETATM   29  C9  UNL     1     -34.236  30.270   2.247  1.00  0.00     0.210 C 
ENDBRANCH   2  28
BRANCH  11  30
HETATM   30  O3  UNL     1     -25.696  26.726   3.742  1.00  0.00    -0.355 OA
HETATM   31  C19 UNL     1     -24.682  25.990   3.099  1.00  0.00     0.210 C 
ENDBRANCH  11  30
BRANCH  13  32
HETATM   32  O4  UNL     1     -22.497  29.682   5.717  1.00  0.00    -0.355 OA
HETATM   33  C22 UNL     1     -22.287  29.617   7.133  1.00  0.00     0.210 C 
ENDBRANCH  13  32
TORSDOF 9
ENDMDL
MODEL 3
REMARK VINA RESULT: -6.480601295      1.928      2.742
REMARK  9 active torsions:
REMARK  status: ('A' for Active; 'I' for Inactive)
REMARK    1  A    between atoms: C2_2  and  C3_3 
REMARK    2  A    between atoms: C3_3  and  C4_4 
REMARK    3  A    between atoms: C4_4  and  C5_5 
REMARK    4  A    between atoms: C5_5  and  C6_6 
REMARK    5  A    between atoms: C6_6  and  O1_7 
REMARK    6  A    between atoms: O1_7  and  C7_8 
REMARK    7  A    between atoms: C8_9  and  O2_10 
REMARK    8  A    between atoms: C18_20  and  O3_21 
REMARK    9  A    between atoms: C21_24  and  O4_25 
ROOT
HETATM    1  C7  UNL     1     -25.538  29.537   4.802  1.00  0.00     0.109 A 
HETATM    2  C8  UNL     1     -24.502  30.396   5.085  1.00  0.00     0.102 A 
HETATM    3  C10 UNL     1     -24.745  31.731   4.994  1.00  0.00     0.040 A 
HETATM    4  C11 UNL     1     -25.997  32.177   4.629  1.00  0.00     0.011 A 
HETATM    5  C12 UNL     1     -27.055  31.298   4.342  1.00  0.00    -0.044 A 
HETATM    6  C13 UNL     1     -26.824  29.962   4.430  1.00  0.00    -0.011 A 
HETATM    7  C14 UNL     1     -27.863  28.926   4.161  1.00  0.00     0.077 C 
HETATM    8  C15 UNL     1     -29.002  28.890   5.118  1.00  0.00    -0.064 C 
HETATM    9  C16 UNL     1     -28.621  29.442   6.435  1.00  0.00     0.044 C 
HETATM   10  C17 UNL     1     -30.330  29.218   4.597  1.00  0.00     0.027 A 
HETATM   11  C18 UNL     1     -31.399  28.648   5.331  1.00  0.00     0.083 A 
HETATM   12  C20 UNL     1     -32.715  28.773   4.950  1.00  0.00     0.075 A 
HETATM   13  C21 UNL     1     -33.036  29.474   3.812  1.00  0.00     0.079 A 
HETATM   14  C23 UNL     1     -31.998  30.028   3.099  1.00  0.00     0.005 A 
HETATM   15  C24 UNL     1     -30.650  29.909   3.484  1.00  0.00     0.056 A 
HETATM   16  N1  UNL     1     -29.897  30.655   2.576  1.00  0.00    -0.359 N 
HETATM   17  C25 UNL     1     -28.948  31.479   2.726  1.00  0.00     0.069 C 
HETATM   18  C26 UNL     1     -28.313  31.942   3.960  1.00  0.00     0.084 C 
HETATM   19  C27 UNL     1     -30.599  30.382   1.275  1.00  0.00     0.133 C 
HETATM   20  C28 UNL     1     -32.042  30.744   1.774  1.00  0.00     0.064 C 
ENDROOT
BRANCH   1  21
HETATM   21  O1  UNL     1     -25.255  28.161   4.905  1.00  0.00    -0.348 OA
BRANCH  21  22
HETATM   22  C6  UNL     1     -24.584  27.570   3.824  1.00  0.00     0.176 C 
BRANCH  22  23
HETATM   23  C5  UNL     1     -24.532  26.079   3.893  1.00  0.00     0.027 C 
BRANCH  23  24
HETATM   24  C4  UNL     1     -25.387  25.361   2.907  1.00  0.00     0.002 C 
BRANCH  24  25
HETATM   25  C3  UNL     1     -25.638  26.169   1.663  1.00  0.00    -0.000 C 
BRANCH  25  26
HETATM   26  C2  UNL     1     -27.135  26.139   1.398  1.00  0.00    -0.005 C 
HETATM   27  C1  UNL     1     -27.873  25.560   2.606  1.00  0.00     0.005 C 
ENDBRANCH  25  26
ENDBRANCH  24  25
ENDBRANCH  23  24
ENDBRANCH  22  23
ENDBRANCH  21  22
ENDBRANCH   1  21
BRANCH   2  28
HETATM   28  O2  UNL     1     -23.241  29.951   5.452  1.00  0.00    -0.353 OA
HETATM   29  C9  UNL     1     -22.827  29.937   6.806  1.00  0.00     0.210 C 
ENDBRANCH   2  28
BRANCH  11  30
HETATM   30  O3  UNL     1     -31.113  27.938   6.476  1.00  0.00    -0.355 OA
HETATM   31  C19 UNL     1     -31.632  26.635   6.609  1.00  0.00     0.210 C 
ENDBRANCH  11  30
BRANCH  13  32
HETATM   32  O4  UNL     1     -34.368  29.615   3.399  1.00  0.00    -0.355 OA
HETATM   33  C22 UNL     1     -35.390  29.651   4.402  1.00  0.00     0.210 C 
ENDBRANCH  13  32
TORSDOF 9
ENDMDL
MODEL 4
REMARK VINA RESULT: -6.375537940      2.530      4.098
REMARK  9 active torsions:
REMARK  status: ('A' for Active; 'I' for Inactive)
REMARK    1  A    between atoms: C2_2  and  C3_3 
REMARK    2  A    between atoms: C3_3  and  C4_4 
REMARK    3  A    between atoms: C4_4  and  C5_5 
REMARK    4  A    between atoms: C5_5  and  C6_6 
REMARK    5  A    between atoms: C6_6  and  O1_7 
REMARK    6  A    between atoms: O1_7  and  C7_8 
REMARK    7  A    between atoms: C8_9  and  O2_10 
REMARK    8  A    between atoms: C18_20  and  O3_21 
REMARK    9  A    between atoms: C21_24  and  O4_25 
ROOT
HETATM    1  C7  UNL     1     -29.038  27.635   4.355  1.00  0.00     0.109 A 
HETATM    2  C8  UNL     1     -29.038  27.310   5.692  1.00  0.00     0.102 A 
HETATM    3  C10 UNL     1     -28.885  28.322   6.588  1.00  0.00     0.040 A 
HETATM    4  C11 UNL     1     -28.739  29.618   6.141  1.00  0.00     0.011 A 
HETATM    5  C12 UNL     1     -28.741  29.948   4.775  1.00  0.00    -0.044 A 
HETATM    6  C13 UNL     1     -28.893  28.945   3.871  1.00  0.00    -0.011 A 
HETATM    7  C14 UNL     1     -28.922  29.163   2.395  1.00  0.00     0.077 C 
HETATM    8  C15 UNL     1     -30.084  29.936   1.879  1.00  0.00    -0.064 C 
HETATM    9  C16 UNL     1     -31.249  29.829   2.782  1.00  0.00     0.044 C 
HETATM   10  C17 UNL     1     -29.811  31.236   1.266  1.00  0.00     0.027 A 
HETATM   11  C18 UNL     1     -30.786  31.652   0.327  1.00  0.00     0.083 A 
HETATM   12  C20 UNL     1     -30.665  32.805  -0.414  1.00  0.00     0.075 A 
HETATM   13  C21 UNL     1     -29.558  33.605  -0.258  1.00  0.00     0.079 A 
HETATM   14  C23 UNL     1     -28.610  33.201   0.653  1.00  0.00     0.005 A 
HETATM   15  C24 UNL     1     -28.730  32.027   1.419  1.00  0.00     0.056 A 
HETATM   16  N1  UNL     1     -27.632  31.985   2.280  1.00  0.00    -0.359 N 
HETATM   17  C25 UNL     1     -27.522  31.722   3.512  1.00  0.00     0.069 C 
HETATM   18  C26 UNL     1     -28.563  31.371   4.478  1.00  0.00     0.084 C 
HETATM   19  C27 UNL     1     -26.522  32.512   1.412  1.00  0.00     0.133 C 
HETATM   20  C28 UNL     1     -27.265  33.814   0.948  1.00  0.00     0.064 C 
ENDROOT
BRANCH   1  21
HETATM   21  O1  UNL     1     -29.196  26.566   3.452  1.00  0.00    -0.348 OA
BRANCH  21  22
HETATM   22  C6  UNL     1     -28.100  25.706   3.290  1.00  0.00     0.176 C 
BRANCH  22  23
HETATM   23  C5  UNL     1     -27.486  25.767   1.930  1.00  0.00     0.027 C 
BRANCH  23  24
HETATM   24  C4  UNL     1     -26.221  26.546   1.831  1.00  0.00     0.002 C 
BRANCH  24  25
HETATM   25  C3  UNL     1     -25.096  25.924   2.613  1.00  0.00    -0.000 C 
BRANCH  25  26
HETATM   26  C2  UNL     1     -24.673  26.928   3.674  1.00  0.00    -0.005 C 
HETATM   27  C1  UNL     1     -25.233  28.312   3.343  1.00  0.00     0.005 C 
ENDBRANCH  25  26
ENDBRANCH  24  25
ENDBRANCH  23  24
ENDBRANCH  22  23
ENDBRANCH  21  22
ENDBRANCH   1  21
BRANCH   2  28
HETATM   28  O2  UNL     1     -29.184  26.008   6.144  1.00  0.00    -0.353 OA
HETATM   29  C9  UNL     1     -29.178  25.700   7.526  1.00  0.00     0.210 C 
ENDBRANCH   2  28
BRANCH  11  30
HETATM   30  O3  UNL     1     -31.907  30.873   0.145  1.00  0.00    -0.355 OA
HETATM   31  C19 UNL     1     -33.158  31.507   0.019  1.00  0.00     0.210 C 
ENDBRANCH  11  30
BRANCH  13  32
HETATM   32  O4  UNL     1     -29.406  34.785  -1.002  1.00  0.00    -0.355 OA
HETATM   33  C22 UNL     1     -28.948  34.681  -2.355  1.00  0.00     0.210 C 
ENDBRANCH  13  32
TORSDOF 9
ENDMDL
MODEL 5
REMARK VINA RESULT: -6.366184526      2.449      5.764
REMARK  9 active torsions:
REMARK  status: ('A' for Active; 'I' for Inactive)
REMARK    1  A    between atoms: C2_2  and  C3_3 
REMARK    2  A    between atoms: C3_3  and  C4_4 
REMARK    3  A    between atoms: C4_4  and  C5_5 
REMARK    4  A    between atoms: C5_5  and  C6_6 
REMARK    5  A    between atoms: C6_6  and  O1_7 
REMARK    6  A    between atoms: O1_7  and  C7_8 
REMARK    7  A    between atoms: C8_9  and  O2_10 
REMARK    8  A    between atoms: C18_20  and  O3_21 
REMARK    9  A    between atoms: C21_24  and  O4_25 
ROOT
HETATM    1  C7  UNL     1     -28.749  27.815   3.629  1.00  0.00     0.109 A 
HETATM    2  C8  UNL     1     -29.753  27.211   4.349  1.00  0.00     0.102 A 
HETATM    3  C10 UNL     1     -30.016  27.693   5.594  1.00  0.00     0.040 A 
HETATM    4  C11 UNL     1     -29.284  28.751   6.088  1.00  0.00     0.011 A 
HETATM    5  C12 UNL     1     -28.260  29.368   5.350  1.00  0.00    -0.044 A 
HETATM    6  C13 UNL     1     -27.989  28.896   4.106  1.00  0.00    -0.011 A 
HETATM    7  C14 UNL     1     -26.935  29.468   3.218  1.00  0.00     0.077 C 
HETATM    8  C15 UNL     1     -27.174  30.858   2.744  1.00  0.00    -0.064 C 
HETATM    9  C16 UNL     1     -28.615  31.185   2.734  1.00  0.00     0.044 C 
HETATM   10  C17 UNL     1     -26.241  31.892   3.190  1.00  0.00     0.027 A 
HETATM   11  C18 UNL     1     -26.150  33.007   2.321  1.00  0.00     0.083 A 
HETATM   12  C20 UNL     1     -25.268  34.043   2.526  1.00  0.00     0.075 A 
HETATM   13  C21 UNL     1     -24.424  34.020   3.611  1.00  0.00     0.079 A 
HETATM   14  C23 UNL     1     -24.511  32.937   4.455  1.00  0.00     0.005 A 
HETATM   15  C24 UNL     1     -25.415  31.877   4.256  1.00  0.00     0.056 A 
HETATM   16  N1  UNL     1     -25.275  31.010   5.341  1.00  0.00    -0.359 N 
HETATM   17  C25 UNL     1     -26.117  30.421   6.078  1.00  0.00     0.069 C 
HETATM   18  C26 UNL     1     -27.579  30.470   6.033  1.00  0.00     0.084 C 
HETATM   19  C27 UNL     1     -23.791  31.035   5.584  1.00  0.00     0.133 C 
HETATM   20  C28 UNL     1     -23.649  32.597   5.643  1.00  0.00     0.064 C 
ENDROOT
BRANCH   1  21
HETATM   21  O1  UNL     1     -28.500  27.294   2.344  1.00  0.00    -0.348 OA
BRANCH  21  22
HETATM   22  C6  UNL     1     -27.773  26.097   2.277  1.00  0.00     0.176 C 
BRANCH  22  23
HETATM   23  C5  UNL     1     -26.606  26.156   1.347  1.00  0.00     0.027 C 
BRANCH  23  24
HETATM   24  C4  UNL     1     -25.268  26.223   1.998  1.00  0.00     0.002 C 
BRANCH  24  25
HETATM   25  C3  UNL     1     -25.164  25.321   3.198  1.00  0.00    -0.000 C 
BRANCH  25  26
HETATM   26  C2  UNL     1     -25.279  26.199   4.435  1.00  0.00    -0.005 C 
HETATM   27  C1  UNL     1     -24.340  27.401   4.319  1.00  0.00     0.005 C 
ENDBRANCH  25  26
ENDBRANCH  24  25
ENDBRANCH  23  24
ENDBRANCH  22  23
ENDBRANCH  21  22
ENDBRANCH   1  21
BRANCH   2  28
HETATM   28  O2  UNL     1     -30.491  26.146   3.854  1.00  0.00    -0.353 OA
HETATM   29  C9  UNL     1     -30.280  24.824   4.313  1.00  0.00     0.210 C 
ENDBRANCH   2  28
BRANCH  11  30
HETATM   30  O3  UNL     1     -26.980  33.062   1.223  1.00  0.00    -0.355 OA
HETATM   31  C19 UNL     1     -26.414  33.330  -0.039  1.00  0.00     0.210 C 
ENDBRANCH  11  30
BRANCH  13  32
HETATM   32  O4  UNL     1     -23.513  35.060   3.843  1.00  0.00    -0.355 OA
HETATM   33  C22 UNL     1     -22.603  35.412   2.794  1.00  0.00     0.210 C 
ENDBRANCH  13  32
TORSDOF 9
ENDMDL
