MODEL 1
REMARK VINA RESULT: -7.061914375      0.000      0.000
REMARK  9 active torsions:
REMARK  status: ('A' for Active; 'I' for Inactive)
REMARK    1  A    between atoms: C10_11  and  C11_12 
REMARK    2  A    between atoms: C11_12  and  N2_13 
REMARK    3  A    between atoms: N2_13  and  C12_14 
REMARK    4  A    between atoms: N2_13  and  C16_18 
REMARK    5  A    between atoms: C12_14  and  C13_15 
REMARK    6  A    between atoms: C13_15  and  C14_16 
REMARK    7  A    between atoms: C16_18  and  C17_19 
REMARK    8  A    between atoms: C17_19  and  C18_20 
REMARK    9  A    between atoms: C20_22  and  C21_23 
ROOT
HETATM    1  C1  UNL     1     -31.173  28.741   4.656  1.00  0.00     0.015 C 
HETATM    2  C2  UNL     1     -29.923  29.100   4.636  1.00  0.00    -0.078 C 
HETATM    3  C3  UNL     1     -29.559  30.401   5.249  1.00  0.00     0.060 C 
HETATM    4  C4  UNL     1     -28.590  31.250   4.473  1.00  0.00     0.096 C 
HETATM    5  N1  UNL     1     -29.373  32.255   3.806  1.00  0.00    -0.407 N 
HETATM    6  C5  UNL     1     -29.237  33.579   4.303  1.00  0.00     0.144 C 
HETATM    7  C6  UNL     1     -29.453  32.144   2.397  1.00  0.00     0.079 C 
HETATM    8  C7  UNL     1     -30.130  30.885   1.990  1.00  0.00     0.025 C 
HETATM    9  C8  UNL     1     -29.368  29.639   1.995  1.00  0.00     0.009 C 
HETATM   10  C9  UNL     1     -28.298  29.354   2.967  1.00  0.00     0.014 C 
HETATM   11  C10 UNL     1     -28.774  28.368   4.070  1.00  0.00     0.057 C 
HETATM   12  C20 UNL     1     -27.631  30.509   3.579  1.00  0.00     0.012 C 
HETATM   13  C28 UNL     1     -27.131  31.384   2.401  1.00  0.00     0.019 C 
HETATM   14  C29 UNL     1     -28.121  32.198   1.716  1.00  0.00     0.026 C 
ENDROOT
BRANCH  11  15
HETATM   15  C11 UNL     1     -28.918  27.055   3.494  1.00  0.00     0.072 C 
BRANCH  15  16
HETATM   16  N2  UNL     1     -28.398  25.852   4.002  1.00  0.00    -0.373 N 
BRANCH  16  17
HETATM   17  C12 UNL     1     -28.385  25.577   5.364  1.00  0.00     0.063 C 
BRANCH  17  18
HETATM   18  C13 UNL     1     -29.584  25.735   6.225  1.00  0.00     0.044 C 
BRANCH  18  19
HETATM   19  C14 UNL     1     -29.154  26.401   7.545  1.00  0.00     0.001 C 
HETATM   20  C15 UNL     1     -30.208  27.369   8.046  1.00  0.00     0.005 C 
ENDBRANCH  18  19
ENDBRANCH  17  18
ENDBRANCH  16  17
BRANCH  16  21
HETATM   21  C16 UNL     1     -27.196  25.503   3.341  1.00  0.00     0.127 C 
BRANCH  21  22
HETATM   22  C17 UNL     1     -27.070  25.665   1.883  1.00  0.00     0.020 C 
BRANCH  22  23
HETATM   23  C18 UNL     1     -25.631  26.215   1.654  1.00  0.00    -0.003 C 
HETATM   24  C19 UNL     1     -24.723  25.796   2.780  1.00  0.00     0.005 C 
ENDBRANCH  22  23
ENDBRANCH  21  22
ENDBRANCH  16  21
ENDBRANCH  15  16
ENDBRANCH  11  15
BRANCH  12  25
HETATM   25  C21 UNL     1     -26.341  30.270   4.268  1.00  0.00    -0.044 A 
HETATM   26  C22 UNL     1     -25.476  29.371   3.655  1.00  0.00     0.011 A 
HETATM   27  C23 UNL     1     -24.243  29.057   4.236  1.00  0.00     0.040 A 
HETATM   28  C24 UNL     1     -23.838  29.615   5.417  1.00  0.00     0.105 A 
HETATM   29  C25 UNL     1     -24.695  30.507   6.026  1.00  0.00     0.105 A 
HETATM   30  O2  UNL     1     -22.721  29.538   6.247  1.00  0.00    -0.323 OA
HETATM   31  C26 UNL     1     -25.904  30.806   5.446  1.00  0.00     0.047 A 
HETATM   32  O1  UNL     1     -24.113  30.957   7.195  1.00  0.00    -0.323 OA
HETATM   33  C27 UNL     1     -23.057  30.037   7.543  1.00  0.00     0.352 C 
ENDBRANCH  12  25
TORSDOF 9
ENDMDL
MODEL 2
REMARK VINA RESULT: -7.009482858      0.527      2.836
REMARK  9 active torsions:
REMARK  status: ('A' for Active; 'I' for Inactive)
REMARK    1  A    between atoms: C10_11  and  C11_12 
REMARK    2  A    between atoms: C11_12  and  N2_13 
REMARK    3  A    between atoms: N2_13  and  C12_14 
REMARK    4  A    between atoms: N2_13  and  C16_18 
REMARK    5  A    between atoms: C12_14  and  C13_15 
REMARK    6  A    between atoms: C13_15  and  C14_16 
REMARK    7  A    between atoms: C16_18  and  C17_19 
REMARK    8  A    between atoms: C17_19  and  C18_20 
REMARK    9  A    between atoms: C20_22  and  C21_23 
ROOT
HETATM    1  C1  UNL     1     -31.026  29.353   4.727  1.00  0.00     0.015 C 
HETATM    2  C2  UNL     1     -29.748  29.586   4.688  1.00  0.00    -0.078 C 
HETATM    3  C3  UNL     1     -29.248  30.855   5.272  1.00  0.00     0.060 C 
HETATM    4  C4  UNL     1     -28.209  31.589   4.470  1.00  0.00     0.096 C 
HETATM    5  N1  UNL     1     -28.896  32.655   3.792  1.00  0.00    -0.407 N 
HETATM    6  C5  UNL     1     -28.622  33.967   4.263  1.00  0.00     0.144 C 
HETATM    7  C6  UNL     1     -29.004  32.528   2.386  1.00  0.00     0.079 C 
HETATM    8  C7  UNL     1     -29.808  31.336   2.011  1.00  0.00     0.025 C 
HETATM    9  C8  UNL     1     -29.174  30.019   2.031  1.00  0.00     0.009 C 
HETATM   10  C9  UNL     1     -28.125  29.647   2.997  1.00  0.00     0.014 C 
HETATM   11  C10 UNL     1     -28.684  28.733   4.124  1.00  0.00     0.057 C 
HETATM   12  C20 UNL     1     -27.339  30.740   3.580  1.00  0.00     0.012 C 
HETATM   13  C28 UNL     1     -26.769  31.539   2.380  1.00  0.00     0.019 C 
HETATM   14  C29 UNL     1     -27.681  32.436   1.691  1.00  0.00     0.026 C 
ENDROOT
BRANCH  11  15
HETATM   15  C11 UNL     1     -28.965  27.430   3.574  1.00  0.00     0.072 C 
BRANCH  15  16
HETATM   16  N2  UNL     1     -28.269  26.239   3.836  1.00  0.00    -0.373 N 
BRANCH  16  17
HETATM   17  C12 UNL     1     -27.671  25.500   2.822  1.00  0.00     0.063 C 
BRANCH  17  18
HETATM   18  C13 UNL     1     -27.196  26.115   1.557  1.00  0.00     0.044 C 
BRANCH  18  19
HETATM   19  C14 UNL     1     -25.664  26.254   1.626  1.00  0.00     0.001 C 
HETATM   20  C15 UNL     1     -25.103  25.586   2.866  1.00  0.00     0.005 C 
ENDBRANCH  18  19
ENDBRANCH  17  18
ENDBRANCH  16  17
BRANCH  16  21
HETATM   21  C16 UNL     1     -28.966  25.445   4.781  1.00  0.00     0.127 C 
BRANCH  21  22
HETATM   22  C17 UNL     1     -28.654  25.547   6.216  1.00  0.00     0.020 C 
BRANCH  22  23
HETATM   23  C18 UNL     1     -29.864  26.298   6.846  1.00  0.00    -0.003 C 
HETATM   24  C19 UNL     1     -29.410  27.152   8.000  1.00  0.00     0.005 C 
ENDBRANCH  22  23
ENDBRANCH  21  22
ENDBRANCH  16  21
ENDBRANCH  15  16
ENDBRANCH  11  15
BRANCH  12  25
HETATM   25  C21 UNL     1     -26.072  30.386   4.260  1.00  0.00    -0.044 A 
HETATM   26  C22 UNL     1     -25.377  29.301   3.735  1.00  0.00     0.011 A 
HETATM   27  C23 UNL     1     -24.180  28.870   4.317  1.00  0.00     0.040 A 
HETATM   28  C24 UNL     1     -23.648  29.489   5.415  1.00  0.00     0.105 A 
HETATM   29  C25 UNL     1     -24.335  30.564   5.936  1.00  0.00     0.105 A 
HETATM   30  O2  UNL     1     -22.519  29.335   6.220  1.00  0.00    -0.323 OA
HETATM   31  C26 UNL     1     -25.510  30.978   5.355  1.00  0.00     0.047 A 
HETATM   32  O1  UNL     1     -23.643  31.048   7.029  1.00  0.00    -0.323 OA
HETATM   33  C27 UNL     1     -22.723  30.022   7.456  1.00  0.00     0.352 C 
ENDBRANCH  12  25
TORSDOF 9
ENDMDL
MODEL 3
REMARK VINA RESULT: -6.699141118      3.002      5.102
REMARK  9 active torsions:
REMARK  status: ('A' for Active; 'I' for Inactive)
REMARK    1  A    between atoms: C10_11  and  C11_12 
REMARK    2  A    between atoms: C11_12  and  N2_13 
REMARK    3  A    between atoms: N2_13  and  C12_14 
REMARK    4  A    between atoms: N2_13  and  C16_18 
REMARK    5  A    between atoms: C12_14  and  C13_15 
REMARK    6  A    between atoms: C13_15  and  C14_16 
REMARK    7  A    between atoms: C16_18  and  C17_19 
REMARK    8  A    between atoms: C17_19  and  C18_20 
REMARK    9  A    between atoms: C20_22  and  C21_23 
ROOT
HETATM    1  C1  UNL     1     -24.993  28.966   4.257  1.00  0.00     0.015 C 
HETATM    2  C2  UNL     1     -26.144  29.441   3.882  1.00  0.00    -0.078 C 
HETATM    3  C3  UNL     1     -26.196  30.839   3.388  1.00  0.00     0.060 C 
HETATM    4  C4  UNL     1     -27.344  31.674   3.885  1.00  0.00     0.096 C 
HETATM    5  N1  UNL     1     -26.819  32.504   4.935  1.00  0.00    -0.407 N 
HETATM    6  C5  UNL     1     -26.702  33.887   4.633  1.00  0.00     0.144 C 
HETATM    7  C6  UNL     1     -27.271  32.208   6.244  1.00  0.00     0.079 C 
HETATM    8  C7  UNL     1     -26.850  30.847   6.667  1.00  0.00     0.025 C 
HETATM    9  C8  UNL     1     -27.612  29.692   6.196  1.00  0.00     0.009 C 
HETATM   10  C9  UNL     1     -28.258  29.640   4.873  1.00  0.00     0.014 C 
HETATM   11  C10 UNL     1     -27.452  28.760   3.877  1.00  0.00     0.057 C 
HETATM   12  C20 UNL     1     -28.599  30.924   4.248  1.00  0.00     0.012 C 
HETATM   13  C28 UNL     1     -29.459  31.687   5.289  1.00  0.00     0.019 C 
HETATM   14  C29 UNL     1     -28.757  32.305   6.400  1.00  0.00     0.026 C 
ENDROOT
BRANCH  11  15
HETATM   15  C11 UNL     1     -27.591  27.377   4.256  1.00  0.00     0.072 C 
BRANCH  15  16
HETATM   16  N2  UNL     1     -28.308  26.384   3.568  1.00  0.00    -0.373 N 
BRANCH  16  17
HETATM   17  C12 UNL     1     -29.367  25.702   4.157  1.00  0.00     0.063 C 
BRANCH  17  18
HETATM   18  C13 UNL     1     -30.652  26.361   4.499  1.00  0.00     0.044 C 
BRANCH  18  19
HETATM   19  C14 UNL     1     -30.672  26.637   6.014  1.00  0.00     0.001 C 
HETATM   20  C15 UNL     1     -31.263  27.999   6.321  1.00  0.00     0.005 C 
ENDBRANCH  18  19
ENDBRANCH  17  18
ENDBRANCH  16  17
BRANCH  16  21
HETATM   21  C16 UNL     1     -27.433  25.546   2.834  1.00  0.00     0.127 C 
BRANCH  21  22
HETATM   22  C17 UNL     1     -27.057  25.887   1.452  1.00  0.00     0.020 C 
BRANCH  22  23
HETATM   23  C18 UNL     1     -25.550  26.277   1.522  1.00  0.00    -0.003 C 
HETATM   24  C19 UNL     1     -24.901  25.651   2.728  1.00  0.00     0.005 C 
ENDBRANCH  22  23
ENDBRANCH  21  22
ENDBRANCH  16  21
ENDBRANCH  15  16
ENDBRANCH  11  15
BRANCH  12  25
HETATM   25  C21 UNL     1     -29.551  30.903   3.114  1.00  0.00    -0.044 A 
HETATM   26  C22 UNL     1     -30.593  29.986   3.206  1.00  0.00     0.011 A 
HETATM   27  C23 UNL     1     -31.534  29.869   2.177  1.00  0.00     0.040 A 
HETATM   28  C24 UNL     1     -31.471  30.642   1.051  1.00  0.00     0.105 A 
HETATM   29  C25 UNL     1     -30.439  31.552   0.958  1.00  0.00     0.105 A 
HETATM   30  O2  UNL     1     -32.210  30.789  -0.123  1.00  0.00    -0.323 OA
HETATM   31  C26 UNL     1     -29.521  31.656   1.975  1.00  0.00     0.047 A 
HETATM   32  O1  UNL     1     -30.549  32.230  -0.240  1.00  0.00    -0.323 OA
HETATM   33  C27 UNL     1     -31.417  31.465  -1.101  1.00  0.00     0.352 C 
ENDBRANCH  12  25
TORSDOF 9
ENDMDL
MODEL 4
REMARK VINA RESULT: -6.693671561      0.691      3.053
REMARK  9 active torsions:
REMARK  status: ('A' for Active; 'I' for Inactive)
REMARK    1  A    between atoms: C10_11  and  C11_12 
REMARK    2  A    between atoms: C11_12  and  N2_13 
REMARK    3  A    between atoms: N2_13  and  C12_14 
REMARK    4  A    between atoms: N2_13  and  C16_18 
REMARK    5  A    between atoms: C12_14  and  C13_15 
REMARK    6  A    between atoms: C13_15  and  C14_16 
REMARK    7  A    between atoms: C16_18  and  C17_19 
REMARK    8  A    between atoms: C17_19  and  C18_20 
REMARK    9  A    between atoms: C20_22  and  C21_23 
ROOT
HETATM    1  C1  UNL     1     -31.500  28.754   4.169  1.00  0.00     0.015 C 
HETATM    2  C2  UNL     1     -30.289  29.176   4.384  1.00  0.00    -0.078 C 
HETATM    3  C3  UNL     1     -30.114  30.502   5.027  1.00  0.00     0.060 C 
HETATM    4  C4  UNL     1     -29.054  31.390   4.435  1.00  0.00     0.096 C 
HETATM    5  N1  UNL     1     -29.739  32.345   3.607  1.00  0.00    -0.407 N 
HETATM    6  C5  UNL     1     -29.765  33.680   4.092  1.00  0.00     0.144 C 
HETATM    7  C6  UNL     1     -29.538  32.213   2.212  1.00  0.00     0.079 C 
HETATM    8  C7  UNL     1     -30.062  30.916   1.710  1.00  0.00     0.025 C 
HETATM    9  C8  UNL     1     -29.257  29.710   1.889  1.00  0.00     0.009 C 
HETATM   10  C9  UNL     1     -28.384  29.493   3.057  1.00  0.00     0.014 C 
HETATM   11  C10 UNL     1     -29.018  28.497   4.068  1.00  0.00     0.057 C 
HETATM   12  C20 UNL     1     -27.905  30.688   3.760  1.00  0.00     0.012 C 
HETATM   13  C28 UNL     1     -27.228  31.572   2.682  1.00  0.00     0.019 C 
HETATM   14  C29 UNL     1     -28.103  32.326   1.801  1.00  0.00     0.026 C 
ENDROOT
BRANCH  11  15
HETATM   15  C11 UNL     1     -28.985  27.171   3.504  1.00  0.00     0.072 C 
BRANCH  15  16
HETATM   16  N2  UNL     1     -28.156  26.109   3.901  1.00  0.00    -0.373 N 
BRANCH  16  17
HETATM   17  C12 UNL     1     -27.403  25.383   2.985  1.00  0.00     0.063 C 
BRANCH  17  18
HETATM   18  C13 UNL     1     -27.086  25.893   1.627  1.00  0.00     0.044 C 
BRANCH  18  19
HETATM   19  C14 UNL     1     -25.633  26.404   1.624  1.00  0.00     0.001 C 
HETATM   20  C15 UNL     1     -24.847  25.847   2.795  1.00  0.00     0.005 C 
ENDBRANCH  18  19
ENDBRANCH  17  18
ENDBRANCH  16  17
BRANCH  16  21
HETATM   21  C16 UNL     1     -28.799  25.302   4.872  1.00  0.00     0.127 C 
BRANCH  21  22
HETATM   22  C17 UNL     1     -28.489  25.463   6.302  1.00  0.00     0.020 C 
BRANCH  22  23
HETATM   23  C18 UNL     1     -29.699  26.243   6.898  1.00  0.00    -0.003 C 
HETATM   24  C19 UNL     1     -29.388  26.704   8.297  1.00  0.00     0.005 C 
ENDBRANCH  22  23
ENDBRANCH  21  22
ENDBRANCH  16  21
ENDBRANCH  15  16
ENDBRANCH  11  15
BRANCH  12  25
HETATM   25  C21 UNL     1     -26.764  30.523   4.691  1.00  0.00    -0.044 A 
HETATM   26  C22 UNL     1     -26.836  31.239   5.882  1.00  0.00     0.011 A 
HETATM   27  C23 UNL     1     -25.800  31.171   6.819  1.00  0.00     0.040 A 
HETATM   28  C24 UNL     1     -24.685  30.407   6.609  1.00  0.00     0.105 A 
HETATM   29  C25 UNL     1     -24.612  29.697   5.430  1.00  0.00     0.105 A 
HETATM   30  O2  UNL     1     -23.509  30.115   7.300  1.00  0.00    -0.323 OA
HETATM   31  C26 UNL     1     -25.636  29.773   4.517  1.00  0.00     0.047 A 
HETATM   32  O1  UNL     1     -23.423  28.995   5.405  1.00  0.00    -0.323 OA
HETATM   33  C27 UNL     1     -22.546  29.580   6.390  1.00  0.00     0.352 C 
ENDBRANCH  12  25
TORSDOF 9
ENDMDL
MODEL 5
REMARK VINA RESULT: -6.555347472      2.948      5.800
REMARK  9 active torsions:
REMARK  status: ('A' for Active; 'I' for Inactive)
REMARK    1  A    between atoms: C10_11  and  C11_12 
REMARK    2  A    between atoms: C11_12  and  N2_13 
REMARK    3  A    between atoms: N2_13  and  C12_14 
REMARK    4  A    between atoms: N2_13  and  C16_18 
REMARK    5  A    between atoms: C12_14  and  C13_15 
REMARK    6  A    between atoms: C13_15  and  C14_16 
REMARK    7  A    between atoms: C16_18  and  C17_19 
REMARK    8  A    between atoms: C17_19  and  C18_20 
REMARK    9  A    between atoms: C20_22  and  C21_23 
ROOT
HETATM    1  C1  UNL     1     -24.911  29.099   3.476  1.00  0.00     0.015 C 
HETATM    2  C2  UNL     1     -26.171  29.420   3.469  1.00  0.00    -0.078 C 
HETATM    3  C3  UNL     1     -26.572  30.665   2.769  1.00  0.00     0.060 C 
HETATM    4  C4  UNL     1     -27.570  31.535   3.483  1.00  0.00     0.096 C 
HETATM    5  N1  UNL     1     -26.821  32.606   4.082  1.00  0.00    -0.407 N 
HETATM    6  C5  UNL     1     -26.996  33.888   3.496  1.00  0.00     0.144 C 
HETATM    7  C6  UNL     1     -26.743  32.593   5.496  1.00  0.00     0.079 C 
HETATM    8  C7  UNL     1     -26.030  31.387   5.988  1.00  0.00     0.025 C 
HETATM    9  C8  UNL     1     -26.753  30.119   6.066  1.00  0.00     0.009 C 
HETATM   10  C9  UNL     1     -27.810  29.737   5.113  1.00  0.00     0.014 C 
HETATM   11  C10 UNL     1     -27.299  28.694   4.081  1.00  0.00     0.057 C 
HETATM   12  C20 UNL     1     -28.510  30.827   4.423  1.00  0.00     0.012 C 
HETATM   13  C28 UNL     1     -29.041  31.763   5.539  1.00  0.00     0.019 C 
HETATM   14  C29 UNL     1     -28.080  32.652   6.168  1.00  0.00     0.026 C 
ENDROOT
BRANCH  11  15
HETATM   15  C11 UNL     1     -27.118  27.427   4.745  1.00  0.00     0.072 C 
BRANCH  15  16
HETATM   16  N2  UNL     1     -27.822  26.238   4.495  1.00  0.00    -0.373 N 
BRANCH  16  17
HETATM   17  C12 UNL     1     -28.326  25.935   3.235  1.00  0.00     0.063 C 
BRANCH  17  18
HETATM   18  C13 UNL     1     -27.562  25.147   2.236  1.00  0.00     0.044 C 
BRANCH  18  19
HETATM   19  C14 UNL     1     -26.908  26.123   1.240  1.00  0.00     0.001 C 
HETATM   20  C15 UNL     1     -25.422  26.268   1.502  1.00  0.00     0.005 C 
ENDBRANCH  18  19
ENDBRANCH  17  18
ENDBRANCH  16  17
BRANCH  16  21
HETATM   21  C16 UNL     1     -28.724  25.954   5.550  1.00  0.00     0.127 C 
BRANCH  21  22
HETATM   22  C17 UNL     1     -30.039  26.614   5.606  1.00  0.00     0.020 C 
BRANCH  22  23
HETATM   23  C18 UNL     1     -30.100  27.287   7.009  1.00  0.00    -0.003 C 
HETATM   24  C19 UNL     1     -29.379  26.444   8.028  1.00  0.00     0.005 C 
ENDBRANCH  22  23
ENDBRANCH  21  22
ENDBRANCH  16  21
ENDBRANCH  15  16
ENDBRANCH  11  15
BRANCH  12  25
HETATM   25  C21 UNL     1     -29.788  30.502   3.749  1.00  0.00    -0.044 A 
HETATM   26  C22 UNL     1     -29.801  30.629   2.365  1.00  0.00     0.011 A 
HETATM   27  C23 UNL     1     -30.965  30.368   1.634  1.00  0.00     0.040 A 
HETATM   28  C24 UNL     1     -32.127  29.981   2.242  1.00  0.00     0.105 A 
HETATM   29  C25 UNL     1     -32.117  29.854   3.615  1.00  0.00     0.105 A 
HETATM   30  O2  UNL     1     -33.421  29.649   1.842  1.00  0.00    -0.323 OA
HETATM   31  C26 UNL     1     -30.967  30.114   4.321  1.00  0.00     0.047 A 
HETATM   32  O1  UNL     1     -33.371  29.458   4.036  1.00  0.00    -0.323 OA
HETATM   33  C27 UNL     1     -34.300  29.729   2.967  1.00  0.00     0.352 C 
ENDBRANCH  12  25
TORSDOF 9
ENDMDL
