MODEL 1
REMARK VINA RESULT: -7.150017574      0.000      0.000
REMARK  9 active torsions:
REMARK  status: ('A' for Active; 'I' for Inactive)
REMARK    1  A    between atoms: C2_2  and  C3_3 
REMARK    2  A    between atoms: C3_3  and  N1_4 
REMARK    3  A    between atoms: N1_4  and  C4_5 
REMARK    4  A    between atoms: N1_4  and  C7_8 
REMARK    5  A    between atoms: C4_5  and  C5_6 
REMARK    6  A    between atoms: C7_8  and  C8_9 
REMARK    7  A    between atoms: C8_9  and  C9_10 
REMARK    8  A    between atoms: C9_10  and  O1_11 
REMARK    9  A    between atoms: O1_11  and  C10_12 
ROOT
HETATM    1  C10 UNL     1     -26.488  29.783   3.849  1.00  0.00     0.069 A 
HETATM    2  C11 UNL     1     -25.211  29.299   3.483  1.00  0.00     0.037 A 
HETATM    3  C12 UNL     1     -24.198  29.374   4.440  1.00  0.00     0.015 A 
HETATM    4  C13 UNL     1     -24.430  29.893   5.682  1.00  0.00    -0.022 A 
HETATM    5  C14 UNL     1     -23.367  29.938   6.602  1.00  0.00     0.043 A 
HETATM    6  C15 UNL     1     -23.581  30.450   7.855  1.00  0.00     0.046 A 
HETATM    7  N2  UNL     1     -24.817  30.912   8.198  1.00  0.00    -0.355 N 
HETATM    8  C16 UNL     1     -25.845  30.870   7.301  1.00  0.00     0.103 A 
HETATM    9  C17 UNL     1     -25.652  30.362   6.044  1.00  0.00    -0.008 A 
HETATM   10  C18 UNL     1     -26.702  30.305   5.107  1.00  0.00     0.050 A 
HETATM   11  C19 UNL     1     -25.096  31.378   9.531  1.00  0.00     0.133 C 
HETATM   12  C20 UNL     1     -23.934  31.961  10.217  1.00  0.00     0.060 C 
HETATM   13  C21 UNL     1     -22.665  31.237   9.996  1.00  0.00    -0.043 A 
HETATM   14  C22 UNL     1     -21.684  31.288  10.973  1.00  0.00     0.009 A 
HETATM   15  C23 UNL     1     -20.476  30.698  10.727  1.00  0.00     0.019 A 
HETATM   16  C24 UNL     1     -20.256  30.067   9.521  1.00  0.00     0.048 A 
HETATM   17  C25 UNL     1     -21.227  29.996   8.508  1.00  0.00    -0.005 A 
HETATM   18  C26 UNL     1     -22.440  30.601   8.789  1.00  0.00     0.007 A 
HETATM   19  C27 UNL     1     -20.615  29.252   7.406  1.00  0.00     0.219 A 
HETATM   20  O2  UNL     1     -19.289  28.879   7.824  1.00  0.00    -0.313 OA
HETATM   21  C28 UNL     1     -19.057  29.370   9.082  1.00  0.00     0.294 A 
HETATM   22  O3  UNL     1     -17.971  29.216   9.706  1.00  0.00    -0.259 OA
ENDROOT
BRANCH   1  23
HETATM   23  O1  UNL     1     -27.440  29.683   2.861  1.00  0.00    -0.351 OA
BRANCH  23  24
HETATM   24  C9  UNL     1     -28.325  28.626   2.717  1.00  0.00     0.180 C 
BRANCH  24  25
HETATM   25  C8  UNL     1     -27.837  27.455   1.937  1.00  0.00     0.071 C 
BRANCH  25  26
HETATM   26  C7  UNL     1     -27.908  26.128   2.615  1.00  0.00     0.065 C 
BRANCH  26  27
HETATM   27  N1  UNL     1     -27.602  26.037   3.973  1.00  0.00    -0.374 N 
BRANCH  27  28
HETATM   28  C3  UNL     1     -28.578  25.665   4.913  1.00  0.00     0.062 C 
BRANCH  28  29
HETATM   29  C2  UNL     1     -29.998  25.587   4.459  1.00  0.00     0.040 C 
HETATM   30  C1  UNL     1     -30.840  26.782   4.880  1.00  0.00     0.010 C 
ENDBRANCH  28  29
ENDBRANCH  27  28
BRANCH  27  31
HETATM   31  C4  UNL     1     -26.257  25.842   4.382  1.00  0.00     0.126 C 
BRANCH  31  32
HETATM   32  C5  UNL     1     -25.399  24.990   3.516  1.00  0.00     0.016 C 
HETATM   33  C6  UNL     1     -24.275  25.895   2.983  1.00  0.00     0.006 C 
ENDBRANCH  31  32
ENDBRANCH  27  31
ENDBRANCH  26  27
ENDBRANCH  25  26
ENDBRANCH  24  25
ENDBRANCH  23  24
ENDBRANCH   1  23
TORSDOF 9
ENDMDL
MODEL 2
REMARK VINA RESULT: -7.031234778      2.689      4.493
REMARK  9 active torsions:
REMARK  status: ('A' for Active; 'I' for Inactive)
REMARK    1  A    between atoms: C2_2  and  C3_3 
REMARK    2  A    between atoms: C3_3  and  N1_4 
REMARK    3  A    between atoms: N1_4  and  C4_5 
REMARK    4  A    between atoms: N1_4  and  C7_8 
REMARK    5  A    between atoms: C4_5  and  C5_6 
REMARK    6  A    between atoms: C7_8  and  C8_9 
REMARK    7  A    between atoms: C8_9  and  C9_10 
REMARK    8  A    between atoms: C9_10  and  O1_11 
REMARK    9  A    between atoms: O1_11  and  C10_12 
ROOT
HETATM    1  C10 UNL     1     -23.503  30.957   6.172  1.00  0.00     0.069 A 
HETATM    2  C11 UNL     1     -24.175  31.070   7.410  1.00  0.00     0.037 A 
HETATM    3  C12 UNL     1     -23.516  30.596   8.545  1.00  0.00     0.015 A 
HETATM    4  C13 UNL     1     -22.269  30.045   8.463  1.00  0.00    -0.022 A 
HETATM    5  C14 UNL     1     -21.657  29.587   9.645  1.00  0.00     0.043 A 
HETATM    6  C15 UNL     1     -20.404  29.035   9.585  1.00  0.00     0.046 A 
HETATM    7  N2  UNL     1     -19.763  28.933   8.386  1.00  0.00    -0.355 N 
HETATM    8  C16 UNL     1     -20.362  29.375   7.241  1.00  0.00     0.103 A 
HETATM    9  C17 UNL     1     -21.614  29.929   7.279  1.00  0.00    -0.008 A 
HETATM   10  C18 UNL     1     -22.246  30.396   6.110  1.00  0.00     0.050 A 
HETATM   11  C19 UNL     1     -18.415  28.437   8.300  1.00  0.00     0.133 C 
HETATM   12  C20 UNL     1     -18.068  27.463   9.346  1.00  0.00     0.060 C 
HETATM   13  C21 UNL     1     -18.593  27.792  10.688  1.00  0.00    -0.043 A 
HETATM   14  C22 UNL     1     -17.905  27.348  11.805  1.00  0.00     0.009 A 
HETATM   15  C23 UNL     1     -18.442  27.570  13.042  1.00  0.00     0.019 A 
HETATM   16  C24 UNL     1     -19.649  28.227  13.156  1.00  0.00     0.048 A 
HETATM   17  C25 UNL     1     -20.373  28.692  12.046  1.00  0.00    -0.005 A 
HETATM   18  C26 UNL     1     -19.802  28.453  10.808  1.00  0.00     0.007 A 
HETATM   19  C27 UNL     1     -21.578  29.328  12.580  1.00  0.00     0.219 A 
HETATM   20  O2  UNL     1     -21.510  29.240  14.015  1.00  0.00    -0.313 OA
HETATM   21  C28 UNL     1     -20.367  28.574  14.373  1.00  0.00     0.294 A 
HETATM   22  O3  UNL     1     -20.042  28.329  15.567  1.00  0.00    -0.259 OA
ENDROOT
BRANCH   1  23
HETATM   23  O1  UNL     1     -24.208  31.441   5.094  1.00  0.00    -0.351 OA
BRANCH  23  24
HETATM   24  C9  UNL     1     -25.281  30.798   4.495  1.00  0.00     0.180 C 
BRANCH  24  25
HETATM   25  C8  UNL     1     -24.990  29.490   3.845  1.00  0.00     0.071 C 
BRANCH  25  26
HETATM   26  C7  UNL     1     -26.161  28.741   3.305  1.00  0.00     0.065 C 
BRANCH  26  27
HETATM   27  N1  UNL     1     -26.457  27.475   3.812  1.00  0.00    -0.374 N 
BRANCH  27  28
HETATM   28  C3  UNL     1     -27.657  27.232   4.500  1.00  0.00     0.062 C 
BRANCH  28  29
HETATM   29  C2  UNL     1     -28.036  25.814   4.775  1.00  0.00     0.040 C 
HETATM   30  C1  UNL     1     -29.410  25.434   4.246  1.00  0.00     0.010 C 
ENDBRANCH  28  29
ENDBRANCH  27  28
BRANCH  27  31
HETATM   31  C4  UNL     1     -25.829  26.330   3.259  1.00  0.00     0.126 C 
BRANCH  31  32
HETATM   32  C5  UNL     1     -25.617  26.313   1.787  1.00  0.00     0.016 C 
HETATM   33  C6  UNL     1     -26.972  25.958   1.150  1.00  0.00     0.006 C 
ENDBRANCH  31  32
ENDBRANCH  27  31
ENDBRANCH  26  27
ENDBRANCH  25  26
ENDBRANCH  24  25
ENDBRANCH  23  24
ENDBRANCH   1  23
TORSDOF 9
ENDMDL
MODEL 3
REMARK VINA RESULT: -6.987402458      2.670      4.719
REMARK  9 active torsions:
REMARK  status: ('A' for Active; 'I' for Inactive)
REMARK    1  A    between atoms: C2_2  and  C3_3 
REMARK    2  A    between atoms: C3_3  and  N1_4 
REMARK    3  A    between atoms: N1_4  and  C4_5 
REMARK    4  A    between atoms: N1_4  and  C7_8 
REMARK    5  A    between atoms: C4_5  and  C5_6 
REMARK    6  A    between atoms: C7_8  and  C8_9 
REMARK    7  A    between atoms: C8_9  and  C9_10 
REMARK    8  A    between atoms: C9_10  and  O1_11 
REMARK    9  A    between atoms: O1_11  and  C10_12 
ROOT
HETATM    1  C10 UNL     1     -23.549  31.025   6.156  1.00  0.00     0.069 A 
HETATM    2  C11 UNL     1     -24.213  31.147   7.397  1.00  0.00     0.037 A 
HETATM    3  C12 UNL     1     -23.554  30.666   8.528  1.00  0.00     0.015 A 
HETATM    4  C13 UNL     1     -22.315  30.098   8.440  1.00  0.00    -0.022 A 
HETATM    5  C14 UNL     1     -21.702  29.634   9.619  1.00  0.00     0.043 A 
HETATM    6  C15 UNL     1     -20.457  29.065   9.553  1.00  0.00     0.046 A 
HETATM    7  N2  UNL     1     -19.824  28.954   8.351  1.00  0.00    -0.355 N 
HETATM    8  C16 UNL     1     -20.423  29.403   7.209  1.00  0.00     0.103 A 
HETATM    9  C17 UNL     1     -21.667  29.973   7.253  1.00  0.00    -0.008 A 
HETATM   10  C18 UNL     1     -22.299  30.448   6.087  1.00  0.00     0.050 A 
HETATM   11  C19 UNL     1     -18.482  28.441   8.258  1.00  0.00     0.133 C 
HETATM   12  C20 UNL     1     -18.142  27.464   9.303  1.00  0.00     0.060 C 
HETATM   13  C21 UNL     1     -18.656  27.800  10.647  1.00  0.00    -0.043 A 
HETATM   14  C22 UNL     1     -17.968  27.348  11.760  1.00  0.00     0.009 A 
HETATM   15  C23 UNL     1     -18.495  27.578  13.000  1.00  0.00     0.019 A 
HETATM   16  C24 UNL     1     -19.693  28.250  13.120  1.00  0.00     0.048 A 
HETATM   17  C25 UNL     1     -20.417  28.723  12.014  1.00  0.00    -0.005 A 
HETATM   18  C26 UNL     1     -19.856  28.476  10.773  1.00  0.00     0.007 A 
HETATM   19  C27 UNL     1     -21.611  29.375  12.554  1.00  0.00     0.219 A 
HETATM   20  O2  UNL     1     -21.536  29.287  13.989  1.00  0.00    -0.313 OA
HETATM   21  C28 UNL     1     -20.400  28.606  14.341  1.00  0.00     0.294 A 
HETATM   22  O3  UNL     1     -20.072  28.358  15.534  1.00  0.00    -0.259 OA
ENDROOT
BRANCH   1  23
HETATM   23  O1  UNL     1     -24.254  31.516   5.081  1.00  0.00    -0.351 OA
BRANCH  23  24
HETATM   24  C9  UNL     1     -25.410  30.952   4.565  1.00  0.00     0.180 C 
BRANCH  24  25
HETATM   25  C8  UNL     1     -25.275  29.593   3.971  1.00  0.00     0.071 C 
BRANCH  25  26
HETATM   26  C7  UNL     1     -26.511  28.998   3.384  1.00  0.00     0.065 C 
BRANCH  26  27
HETATM   27  N1  UNL     1     -26.780  27.644   3.585  1.00  0.00    -0.374 N 
BRANCH  27  28
HETATM   28  C3  UNL     1     -25.831  26.660   3.259  1.00  0.00     0.062 C 
BRANCH  28  29
HETATM   29  C2  UNL     1     -25.678  26.279   1.823  1.00  0.00     0.040 C 
HETATM   30  C1  UNL     1     -26.992  25.940   1.137  1.00  0.00     0.010 C 
ENDBRANCH  28  29
ENDBRANCH  27  28
BRANCH  27  31
HETATM   31  C4  UNL     1     -27.763  27.253   4.529  1.00  0.00     0.126 C 
BRANCH  31  32
HETATM   32  C5  UNL     1     -27.923  25.795   4.781  1.00  0.00     0.016 C 
HETATM   33  C6  UNL     1     -29.300  25.399   4.222  1.00  0.00     0.006 C 
ENDBRANCH  31  32
ENDBRANCH  27  31
ENDBRANCH  26  27
ENDBRANCH  25  26
ENDBRANCH  24  25
ENDBRANCH  23  24
ENDBRANCH   1  23
TORSDOF 9
ENDMDL
MODEL 4
REMARK VINA RESULT: -6.901772769      2.150      3.729
REMARK  9 active torsions:
REMARK  status: ('A' for Active; 'I' for Inactive)
REMARK    1  A    between atoms: C2_2  and  C3_3 
REMARK    2  A    between atoms: C3_3  and  N1_4 
REMARK    3  A    between atoms: N1_4  and  C4_5 
REMARK    4  A    between atoms: N1_4  and  C7_8 
REMARK    5  A    between atoms: C4_5  and  C5_6 
REMARK    6  A    between atoms: C7_8  and  C8_9 
REMARK    7  A    between atoms: C8_9  and  C9_10 
REMARK    8  A    between atoms: C9_10  and  O1_11 
REMARK    9  A    between atoms: O1_11  and  C10_12 
ROOT
HETATM    1  C10 UNL     1     -25.958  30.001   4.137  1.00  0.00     0.069 A 
HETATM    2  C11 UNL     1     -26.797  30.451   5.182  1.00  0.00     0.037 A 
HETATM    3  C12 UNL     1     -26.222  30.614   6.442  1.00  0.00     0.015 A 
HETATM    4  C13 UNL     1     -24.899  30.350   6.659  1.00  0.00    -0.022 A 
HETATM    5  C14 UNL     1     -24.378  30.537   7.953  1.00  0.00     0.043 A 
HETATM    6  C15 UNL     1     -23.052  30.282   8.189  1.00  0.00     0.046 A 
HETATM    7  N2  UNL     1     -22.251  29.851   7.173  1.00  0.00    -0.355 N 
HETATM    8  C16 UNL     1     -22.761  29.668   5.920  1.00  0.00     0.103 A 
HETATM    9  C17 UNL     1     -24.083  29.916   5.663  1.00  0.00    -0.008 A 
HETATM   10  C18 UNL     1     -24.627  29.739   4.376  1.00  0.00     0.050 A 
HETATM   11  C19 UNL     1     -20.839  29.656   7.368  1.00  0.00     0.133 C 
HETATM   12  C20 UNL     1     -20.471  29.272   8.738  1.00  0.00     0.060 C 
HETATM   13  C21 UNL     1     -21.216  29.986   9.796  1.00  0.00    -0.043 A 
HETATM   14  C22 UNL     1     -20.615  30.175  11.029  1.00  0.00     0.009 A 
HETATM   15  C23 UNL     1     -21.340  30.750  12.035  1.00  0.00     0.019 A 
HETATM   16  C24 UNL     1     -22.646  31.129  11.807  1.00  0.00     0.048 A 
HETATM   17  C25 UNL     1     -23.287  30.954  10.570  1.00  0.00    -0.005 A 
HETATM   18  C26 UNL     1     -22.525  30.371   9.572  1.00  0.00     0.007 A 
HETATM   19  C27 UNL     1     -24.643  31.481  10.733  1.00  0.00     0.219 A 
HETATM   20  O2  UNL     1     -24.749  31.984  12.077  1.00  0.00    -0.313 OA
HETATM   21  C28 UNL     1     -23.566  31.769  12.735  1.00  0.00     0.294 A 
HETATM   22  O3  UNL     1     -23.364  32.091  13.938  1.00  0.00    -0.259 OA
ENDROOT
BRANCH   1  23
HETATM   23  O1  UNL     1     -26.588  29.860   2.922  1.00  0.00    -0.351 OA
BRANCH  23  24
HETATM   24  C9  UNL     1     -27.941  30.067   2.700  1.00  0.00     0.180 C 
BRANCH  24  25
HETATM   25  C8  UNL     1     -28.772  28.850   2.486  1.00  0.00     0.071 C 
BRANCH  25  26
HETATM   26  C7  UNL     1     -28.081  27.670   1.891  1.00  0.00     0.065 C 
BRANCH  26  27
HETATM   27  N1  UNL     1     -27.785  26.572   2.699  1.00  0.00    -0.374 N 
BRANCH  27  28
HETATM   28  C3  UNL     1     -26.873  25.588   2.279  1.00  0.00     0.062 C 
BRANCH  28  29
HETATM   29  C2  UNL     1     -25.502  26.024   1.878  1.00  0.00     0.040 C 
HETATM   30  C1  UNL     1     -24.474  25.913   2.994  1.00  0.00     0.010 C 
ENDBRANCH  28  29
ENDBRANCH  27  28
BRANCH  27  31
HETATM   31  C4  UNL     1     -27.995  26.648   4.100  1.00  0.00     0.126 C 
BRANCH  31  32
HETATM   32  C5  UNL     1     -28.657  25.488   4.754  1.00  0.00     0.016 C 
HETATM   33  C6  UNL     1     -30.138  25.536   4.343  1.00  0.00     0.006 C 
ENDBRANCH  31  32
ENDBRANCH  27  31
ENDBRANCH  26  27
ENDBRANCH  25  26
ENDBRANCH  24  25
ENDBRANCH  23  24
ENDBRANCH   1  23
TORSDOF 9
ENDMDL
MODEL 5
REMARK VINA RESULT: -6.886202790      2.096      3.894
REMARK  9 active torsions:
REMARK  status: ('A' for Active; 'I' for Inactive)
REMARK    1  A    between atoms: C2_2  and  C3_3 
REMARK    2  A    between atoms: C3_3  and  N1_4 
REMARK    3  A    between atoms: N1_4  and  C4_5 
REMARK    4  A    between atoms: N1_4  and  C7_8 
REMARK    5  A    between atoms: C4_5  and  C5_6 
REMARK    6  A    between atoms: C7_8  and  C8_9 
REMARK    7  A    between atoms: C8_9  and  C9_10 
REMARK    8  A    between atoms: C9_10  and  O1_11 
REMARK    9  A    between atoms: O1_11  and  C10_12 
ROOT
HETATM    1  C10 UNL     1     -25.392  30.628   5.097  1.00  0.00     0.069 A 
HETATM    2  C11 UNL     1     -26.068  30.940   6.298  1.00  0.00     0.037 A 
HETATM    3  C12 UNL     1     -25.351  30.822   7.489  1.00  0.00     0.015 A 
HETATM    4  C13 UNL     1     -24.045  30.420   7.494  1.00  0.00    -0.022 A 
HETATM    5  C14 UNL     1     -23.376  30.324   8.729  1.00  0.00     0.043 A 
HETATM    6  C15 UNL     1     -22.064  29.928   8.756  1.00  0.00     0.046 A 
HETATM    7  N2  UNL     1     -21.420  29.632   7.591  1.00  0.00    -0.355 N 
HETATM    8  C16 UNL     1     -22.074  29.724   6.396  1.00  0.00     0.103 A 
HETATM    9  C17 UNL     1     -23.385  30.117   6.347  1.00  0.00    -0.008 A 
HETATM   10  C18 UNL     1     -24.074  30.224   5.124  1.00  0.00     0.050 A 
HETATM   11  C19 UNL     1     -20.021  29.295   7.576  1.00  0.00     0.133 C 
HETATM   12  C20 UNL     1     -19.551  28.637   8.804  1.00  0.00     0.060 C 
HETATM   13  C21 UNL     1     -20.108  29.198  10.052  1.00  0.00    -0.043 A 
HETATM   14  C22 UNL     1     -19.366  29.108  11.218  1.00  0.00     0.009 A 
HETATM   15  C23 UNL     1     -19.922  29.542  12.389  1.00  0.00     0.019 A 
HETATM   16  C24 UNL     1     -21.201  30.056  12.390  1.00  0.00     0.048 A 
HETATM   17  C25 UNL     1     -21.982  30.163  11.228  1.00  0.00    -0.005 A 
HETATM   18  C26 UNL     1     -21.390  29.718  10.058  1.00  0.00     0.007 A 
HETATM   19  C27 UNL     1     -23.255  30.755  11.642  1.00  0.00     0.219 A 
HETATM   20  O2  UNL     1     -23.171  31.007  13.057  1.00  0.00    -0.313 OA
HETATM   21  C28 UNL     1     -21.952  30.583  13.519  1.00  0.00     0.294 A 
HETATM   22  O3  UNL     1     -21.595  30.659  14.727  1.00  0.00    -0.259 OA
ENDROOT
BRANCH   1  23
HETATM   23  O1  UNL     1     -26.156  30.763   3.961  1.00  0.00    -0.351 OA
BRANCH  23  24
HETATM   24  C9  UNL     1     -26.425  29.743   3.061  1.00  0.00     0.180 C 
BRANCH  24  25
HETATM   25  C8  UNL     1     -27.679  28.973   3.289  1.00  0.00     0.071 C 
BRANCH  25  26
HETATM   26  C7  UNL     1     -27.999  27.912   2.291  1.00  0.00     0.065 C 
BRANCH  26  27
HETATM   27  N1  UNL     1     -27.853  26.571   2.647  1.00  0.00    -0.374 N 
BRANCH  27  28
HETATM   28  C3  UNL     1     -27.009  25.716   1.918  1.00  0.00     0.062 C 
BRANCH  28  29
HETATM   29  C2  UNL     1     -25.619  26.178   1.627  1.00  0.00     0.040 C 
HETATM   30  C1  UNL     1     -24.630  25.883   2.745  1.00  0.00     0.010 C 
ENDBRANCH  28  29
ENDBRANCH  27  28
BRANCH  27  31
HETATM   31  C4  UNL     1     -28.141  26.157   3.972  1.00  0.00     0.126 C 
BRANCH  31  32
HETATM   32  C5  UNL     1     -29.347  25.311   4.175  1.00  0.00     0.016 C 
HETATM   33  C6  UNL     1     -30.488  26.259   4.583  1.00  0.00     0.006 C 
ENDBRANCH  31  32
ENDBRANCH  27  31
ENDBRANCH  26  27
ENDBRANCH  25  26
ENDBRANCH  24  25
ENDBRANCH  23  24
ENDBRANCH   1  23
TORSDOF 9
ENDMDL
