MODEL 1
REMARK VINA RESULT: -8.199378746      0.000      0.000
REMARK  9 active torsions:
REMARK  status: ('A' for Active; 'I' for Inactive)
REMARK    1  A    between atoms: O1_2  and  C2_3 
REMARK    2  A    between atoms: C7_8  and  C8_9 
REMARK    3  A    between atoms: C8_9  and  N1_10 
REMARK    4  A    between atoms: N3_19  and  C15_20 
REMARK    5  A    between atoms: C15_20  and  C16_21 
REMARK    6  A    between atoms: C16_21  and  C17_22 
REMARK    7  A    between atoms: C17_22  and  C18_23 
REMARK    8  A    between atoms: C18_23  and  C19_24 
REMARK    9  A    between atoms: C19_24  and  C20_25 
ROOT
HETATM    1  C20 UNL     1     -27.444  28.032  40.818  1.00  0.00    -0.047 A 
HETATM    2  C21 UNL     1     -27.638  26.955  39.952  1.00  0.00     0.008 A 
HETATM    3  C22 UNL     1     -26.773  25.882  39.918  1.00  0.00     0.001 A 
HETATM    4  C23 UNL     1     -25.671  25.847  40.760  1.00  0.00     0.012 A 
HETATM    5  C24 UNL     1     -25.464  26.906  41.625  1.00  0.00    -0.025 A 
HETATM    6  C25 UNL     1     -24.361  26.835  42.454  1.00  0.00     0.014 A 
HETATM    7  C26 UNL     1     -24.133  27.862  43.328  1.00  0.00     0.023 A 
HETATM    8  C27 UNL     1     -24.964  28.944  43.396  1.00  0.00     0.045 A 
HETATM    9  C28 UNL     1     -24.704  30.022  44.329  1.00  0.00     0.099 C 
HETATM   10  N4  UNL     1     -24.509  30.890  45.072  1.00  0.00    -0.191 NA
HETATM   11  C29 UNL     1     -26.072  28.983  42.540  1.00  0.00     0.035 A 
HETATM   12  C30 UNL     1     -26.352  27.985  41.645  1.00  0.00    -0.018 A 
ENDROOT
BRANCH   1  13
HETATM   13  C19 UNL     1     -28.361  29.183  40.824  1.00  0.00     0.039 C 
BRANCH  13  14
HETATM   14  C18 UNL     1     -29.723  28.836  41.373  1.00  0.00     0.005 C 
BRANCH  14  15
HETATM   15  C17 UNL     1     -30.151  29.794  42.462  1.00  0.00     0.002 C 
BRANCH  15  16
HETATM   16  C16 UNL     1     -31.638  29.938  42.565  1.00  0.00     0.022 C 
BRANCH  16  17
HETATM   17  C15 UNL     1     -32.090  30.112  44.002  1.00  0.00     0.149 C 
BRANCH  17  18
HETATM   18  N3  UNL     1     -32.934  29.036  44.445  1.00  0.00    -0.288 N 
HETATM   19  N1  UNL     1     -32.495  28.042  45.203  1.00  0.00    -0.294 N 
HETATM   20  C9  UNL     1     -33.528  27.215  45.435  1.00  0.00     0.142 A 
HETATM   21  C10 UNL     1     -34.637  27.732  44.791  1.00  0.00     0.077 A 
HETATM   22  N2  UNL     1     -35.924  27.337  44.677  1.00  0.00    -0.363 N 
HETATM   23  C14 UNL     1     -34.248  28.893  44.162  1.00  0.00     0.079 A 
HETATM   24  C11 UNL     1     -36.804  28.062  43.966  1.00  0.00     0.088 A 
ATOM     25  H2  UNL     1     -36.231  26.479  45.136  1.00  0.00     0.165 HD
HETATM   26  C12 UNL     1     -36.427  29.227  43.331  1.00  0.00     0.019 A 
HETATM   27  C13 UNL     1     -35.141  29.669  43.415  1.00  0.00     0.035 A 
BRANCH  19  28
HETATM   28  C8  UNL     1     -31.160  27.817  45.725  1.00  0.00     0.189 C 
BRANCH  28  29
HETATM   29  C7  UNL     1     -30.358  26.988  44.770  1.00  0.00    -0.005 A 
HETATM   30  C2  UNL     1     -28.986  27.014  44.868  1.00  0.00     0.076 A 
HETATM   31  C3  UNL     1     -28.220  26.263  44.009  1.00  0.00     0.037 A 
HETATM   32  C4  UNL     1     -28.849  25.489  43.053  1.00  0.00     0.003 A 
HETATM   33  C5  UNL     1     -30.224  25.463  42.952  1.00  0.00     0.001 A 
HETATM   34  C6  UNL     1     -31.009  26.211  43.809  1.00  0.00     0.012 A 
BRANCH  30  35
HETATM   35  O1  UNL     1     -28.412  27.809  45.847  1.00  0.00    -0.355 OA
HETATM   36  C1  UNL     1     -28.048  29.145  45.576  1.00  0.00     0.210 C 
ENDBRANCH  30  35
ENDBRANCH  28  29
ENDBRANCH  19  28
ENDBRANCH  17  18
ENDBRANCH  16  17
ENDBRANCH  15  16
ENDBRANCH  14  15
ENDBRANCH  13  14
ENDBRANCH   1  13
TORSDOF 9
ENDMDL
MODEL 2
REMARK VINA RESULT: -7.987781791      2.202      4.565
REMARK  9 active torsions:
REMARK  status: ('A' for Active; 'I' for Inactive)
REMARK    1  A    between atoms: O1_2  and  C2_3 
REMARK    2  A    between atoms: C7_8  and  C8_9 
REMARK    3  A    between atoms: C8_9  and  N1_10 
REMARK    4  A    between atoms: N3_19  and  C15_20 
REMARK    5  A    between atoms: C15_20  and  C16_21 
REMARK    6  A    between atoms: C16_21  and  C17_22 
REMARK    7  A    between atoms: C17_22  and  C18_23 
REMARK    8  A    between atoms: C18_23  and  C19_24 
REMARK    9  A    between atoms: C19_24  and  C20_25 
ROOT
HETATM    1  C20 UNL     1     -27.467  26.178  42.218  1.00  0.00    -0.047 A 
HETATM    2  C21 UNL     1     -27.410  25.479  41.011  1.00  0.00     0.008 A 
HETATM    3  C22 UNL     1     -26.598  25.882  39.973  1.00  0.00     0.001 A 
HETATM    4  C23 UNL     1     -25.805  27.013  40.105  1.00  0.00     0.012 A 
HETATM    5  C24 UNL     1     -25.849  27.718  41.294  1.00  0.00    -0.025 A 
HETATM    6  C25 UNL     1     -25.041  28.834  41.395  1.00  0.00     0.014 A 
HETATM    7  C26 UNL     1     -25.056  29.549  42.561  1.00  0.00     0.023 A 
HETATM    8  C27 UNL     1     -25.843  29.184  43.616  1.00  0.00     0.045 A 
HETATM    9  C28 UNL     1     -25.843  29.956  44.843  1.00  0.00     0.099 C 
HETATM   10  N4  UNL     1     -25.851  30.562  45.830  1.00  0.00    -0.191 NA
HETATM   11  C29 UNL     1     -26.650  28.048  43.478  1.00  0.00     0.035 A 
HETATM   12  C30 UNL     1     -26.678  27.293  42.335  1.00  0.00    -0.018 A 
ENDROOT
BRANCH   1  13
HETATM   13  C19 UNL     1     -28.359  25.751  43.307  1.00  0.00     0.039 C 
BRANCH  13  14
HETATM   14  C18 UNL     1     -29.757  25.447  42.826  1.00  0.00     0.005 C 
BRANCH  14  15
HETATM   15  C17 UNL     1     -30.660  26.656  42.924  1.00  0.00     0.002 C 
BRANCH  15  16
HETATM   16  C16 UNL     1     -30.103  27.862  42.235  1.00  0.00     0.022 C 
BRANCH  16  17
HETATM   17  C15 UNL     1     -30.870  29.120  42.590  1.00  0.00     0.149 C 
BRANCH  17  18
HETATM   18  N3  UNL     1     -30.017  30.154  43.109  1.00  0.00    -0.288 N 
HETATM   19  N1  UNL     1     -30.082  30.580  44.362  1.00  0.00    -0.294 N 
HETATM   20  C9  UNL     1     -29.156  31.541  44.518  1.00  0.00     0.142 A 
HETATM   21  C10 UNL     1     -28.505  31.703  43.309  1.00  0.00     0.077 A 
HETATM   22  N2  UNL     1     -27.507  32.506  42.881  1.00  0.00    -0.363 N 
HETATM   23  C14 UNL     1     -29.062  30.814  42.416  1.00  0.00     0.079 A 
HETATM   24  C11 UNL     1     -27.068  32.438  41.613  1.00  0.00     0.088 A 
ATOM     25  H2  UNL     1     -27.083  33.171  43.528  1.00  0.00     0.165 HD
HETATM   26  C12 UNL     1     -27.617  31.553  40.709  1.00  0.00     0.019 A 
HETATM   27  C13 UNL     1     -28.626  30.721  41.090  1.00  0.00     0.035 A 
BRANCH  19  28
HETATM   28  C8  UNL     1     -30.963  30.139  45.428  1.00  0.00     0.189 C 
BRANCH  28  29
HETATM   29  C7  UNL     1     -30.608  28.748  45.856  1.00  0.00    -0.005 A 
HETATM   30  C2  UNL     1     -31.618  27.823  45.986  1.00  0.00     0.076 A 
HETATM   31  C3  UNL     1     -31.327  26.537  46.375  1.00  0.00     0.037 A 
HETATM   32  C4  UNL     1     -30.014  26.194  46.630  1.00  0.00     0.003 A 
HETATM   33  C5  UNL     1     -29.001  27.121  46.502  1.00  0.00     0.001 A 
HETATM   34  C6  UNL     1     -29.275  28.418  46.111  1.00  0.00     0.012 A 
BRANCH  30  35
HETATM   35  O1  UNL     1     -32.916  28.224  45.716  1.00  0.00    -0.355 OA
HETATM   36  C1  UNL     1     -33.780  27.417  44.947  1.00  0.00     0.210 C 
ENDBRANCH  30  35
ENDBRANCH  28  29
ENDBRANCH  19  28
ENDBRANCH  17  18
ENDBRANCH  16  17
ENDBRANCH  15  16
ENDBRANCH  14  15
ENDBRANCH  13  14
ENDBRANCH   1  13
TORSDOF 9
ENDMDL
MODEL 3
REMARK VINA RESULT: -7.948697157      2.359      4.526
REMARK  9 active torsions:
REMARK  status: ('A' for Active; 'I' for Inactive)
REMARK    1  A    between atoms: O1_2  and  C2_3 
REMARK    2  A    between atoms: C7_8  and  C8_9 
REMARK    3  A    between atoms: C8_9  and  N1_10 
REMARK    4  A    between atoms: N3_19  and  C15_20 
REMARK    5  A    between atoms: C15_20  and  C16_21 
REMARK    6  A    between atoms: C16_21  and  C17_22 
REMARK    7  A    between atoms: C17_22  and  C18_23 
REMARK    8  A    between atoms: C18_23  and  C19_24 
REMARK    9  A    between atoms: C19_24  and  C20_25 
ROOT
HETATM    1  C20 UNL     1     -27.500  28.292  40.965  1.00  0.00    -0.047 A 
HETATM    2  C21 UNL     1     -27.883  27.294  40.067  1.00  0.00     0.008 A 
HETATM    3  C22 UNL     1     -27.170  26.121  39.934  1.00  0.00     0.001 A 
HETATM    4  C23 UNL     1     -26.036  25.902  40.703  1.00  0.00     0.012 A 
HETATM    5  C24 UNL     1     -25.643  26.880  41.597  1.00  0.00    -0.025 A 
HETATM    6  C25 UNL     1     -24.514  26.626  42.352  1.00  0.00     0.014 A 
HETATM    7  C26 UNL     1     -24.103  27.570  43.252  1.00  0.00     0.023 A 
HETATM    8  C27 UNL     1     -24.779  28.745  43.418  1.00  0.00     0.045 A 
HETATM    9  C28 UNL     1     -24.326  29.732  44.378  1.00  0.00     0.099 C 
HETATM   10  N4  UNL     1     -23.976  30.529  45.144  1.00  0.00    -0.191 NA
HETATM   11  C29 UNL     1     -25.919  28.970  42.636  1.00  0.00     0.035 A 
HETATM   12  C30 UNL     1     -26.378  28.062  41.719  1.00  0.00    -0.018 A 
ENDROOT
BRANCH   1  13
HETATM   13  C19 UNL     1     -28.254  29.550  41.076  1.00  0.00     0.039 C 
BRANCH  13  14
HETATM   14  C18 UNL     1     -29.585  29.492  40.366  1.00  0.00     0.005 C 
BRANCH  14  15
HETATM   15  C17 UNL     1     -30.687  30.129  41.183  1.00  0.00     0.002 C 
BRANCH  15  16
HETATM   16  C16 UNL     1     -31.695  29.140  41.680  1.00  0.00     0.022 C 
BRANCH  16  17
HETATM   17  C15 UNL     1     -31.770  29.124  43.194  1.00  0.00     0.149 C 
BRANCH  17  18
HETATM   18  N3  UNL     1     -30.548  28.669  43.799  1.00  0.00    -0.288 N 
HETATM   19  N1  UNL     1     -29.836  29.414  44.630  1.00  0.00    -0.294 N 
HETATM   20  C9  UNL     1     -28.765  28.697  45.011  1.00  0.00     0.142 A 
HETATM   21  C10 UNL     1     -28.834  27.468  44.383  1.00  0.00     0.077 A 
HETATM   22  N2  UNL     1     -28.051  26.366  44.388  1.00  0.00    -0.363 N 
HETATM   23  C14 UNL     1     -29.974  27.459  43.611  1.00  0.00     0.079 A 
HETATM   24  C11 UNL     1     -28.380  25.288  43.658  1.00  0.00     0.088 A 
ATOM     25  H2  UNL     1     -27.202  26.354  44.954  1.00  0.00     0.165 HD
HETATM   26  C12 UNL     1     -29.519  25.266  42.881  1.00  0.00     0.019 A 
HETATM   27  C13 UNL     1     -30.342  26.351  42.840  1.00  0.00     0.035 A 
BRANCH  19  28
HETATM   28  C8  UNL     1     -30.098  30.765  45.093  1.00  0.00     0.189 C 
BRANCH  28  29
HETATM   29  C7  UNL     1     -29.466  31.763  44.173  1.00  0.00    -0.005 A 
HETATM   30  C2  UNL     1     -30.277  32.678  43.539  1.00  0.00     0.076 A 
HETATM   31  C3  UNL     1     -29.730  33.610  42.690  1.00  0.00     0.037 A 
HETATM   32  C4  UNL     1     -28.364  33.610  42.486  1.00  0.00     0.003 A 
HETATM   33  C5  UNL     1     -27.550  32.694  43.119  1.00  0.00     0.001 A 
HETATM   34  C6  UNL     1     -28.083  31.751  43.977  1.00  0.00     0.012 A 
BRANCH  30  35
HETATM   35  O1  UNL     1     -31.639  32.628  43.783  1.00  0.00    -0.355 OA
HETATM   36  C1  UNL     1     -32.569  32.981  42.783  1.00  0.00     0.210 C 
ENDBRANCH  30  35
ENDBRANCH  28  29
ENDBRANCH  19  28
ENDBRANCH  17  18
ENDBRANCH  16  17
ENDBRANCH  15  16
ENDBRANCH  14  15
ENDBRANCH  13  14
ENDBRANCH   1  13
TORSDOF 9
ENDMDL
MODEL 4
REMARK VINA RESULT: -7.909019501      1.592      2.243
REMARK  9 active torsions:
REMARK  status: ('A' for Active; 'I' for Inactive)
REMARK    1  A    between atoms: O1_2  and  C2_3 
REMARK    2  A    between atoms: C7_8  and  C8_9 
REMARK    3  A    between atoms: C8_9  and  N1_10 
REMARK    4  A    between atoms: N3_19  and  C15_20 
REMARK    5  A    between atoms: C15_20  and  C16_21 
REMARK    6  A    between atoms: C16_21  and  C17_22 
REMARK    7  A    between atoms: C17_22  and  C18_23 
REMARK    8  A    between atoms: C18_23  and  C19_24 
REMARK    9  A    between atoms: C19_24  and  C20_25 
ROOT
HETATM    1  C20 UNL     1     -27.327  28.364  41.089  1.00  0.00    -0.047 A 
HETATM    2  C21 UNL     1     -28.004  27.726  40.048  1.00  0.00     0.008 A 
HETATM    3  C22 UNL     1     -27.606  26.498  39.563  1.00  0.00     0.001 A 
HETATM    4  C23 UNL     1     -26.503  25.857  40.108  1.00  0.00     0.012 A 
HETATM    5  C24 UNL     1     -25.820  26.475  41.140  1.00  0.00    -0.025 A 
HETATM    6  C25 UNL     1     -24.731  25.805  41.664  1.00  0.00     0.014 A 
HETATM    7  C26 UNL     1     -24.039  26.385  42.691  1.00  0.00     0.023 A 
HETATM    8  C27 UNL     1     -24.399  27.599  43.203  1.00  0.00     0.045 A 
HETATM    9  C28 UNL     1     -23.652  28.196  44.292  1.00  0.00     0.099 C 
HETATM   10  N4  UNL     1     -23.064  28.683  45.164  1.00  0.00    -0.191 NA
HETATM   11  C29 UNL     1     -25.507  28.250  42.647  1.00  0.00     0.035 A 
HETATM   12  C30 UNL     1     -26.239  27.719  41.618  1.00  0.00    -0.018 A 
ENDROOT
BRANCH   1  13
HETATM   13  C19 UNL     1     -27.748  29.686  41.577  1.00  0.00     0.039 C 
BRANCH  13  14
HETATM   14  C18 UNL     1     -29.020  29.626  42.387  1.00  0.00     0.005 C 
BRANCH  14  15
HETATM   15  C17 UNL     1     -28.754  29.231  43.823  1.00  0.00     0.002 C 
BRANCH  15  16
HETATM   16  C16 UNL     1     -29.363  30.176  44.812  1.00  0.00     0.022 C 
BRANCH  16  17
HETATM   17  C15 UNL     1     -30.562  29.566  45.511  1.00  0.00     0.149 C 
BRANCH  17  18
HETATM   18  N3  UNL     1     -31.696  29.431  44.637  1.00  0.00    -0.288 N 
HETATM   19  N1  UNL     1     -32.323  28.281  44.444  1.00  0.00    -0.294 N 
HETATM   20  C9  UNL     1     -33.328  28.500  43.580  1.00  0.00     0.142 A 
HETATM   21  C10 UNL     1     -33.307  29.839  43.237  1.00  0.00     0.077 A 
HETATM   22  N2  UNL     1     -34.061  30.611  42.425  1.00  0.00    -0.363 N 
HETATM   23  C14 UNL     1     -32.262  30.425  43.916  1.00  0.00     0.079 A 
HETATM   24  C11 UNL     1     -33.798  31.921  42.285  1.00  0.00     0.088 A 
ATOM     25  H2  UNL     1     -34.840  30.195  41.914  1.00  0.00     0.165 HD
HETATM   26  C12 UNL     1     -32.754  32.520  42.959  1.00  0.00     0.019 A 
HETATM   27  C13 UNL     1     -31.963  31.786  43.790  1.00  0.00     0.035 A 
BRANCH  19  28
HETATM   28  C8  UNL     1     -32.037  26.980  45.023  1.00  0.00     0.189 C 
BRANCH  28  29
HETATM   29  C7  UNL     1     -30.795  26.403  44.419  1.00  0.00    -0.005 A 
HETATM   30  C2  UNL     1     -29.784  25.995  45.259  1.00  0.00     0.076 A 
HETATM   31  C3  UNL     1     -28.630  25.458  44.738  1.00  0.00     0.037 A 
HETATM   32  C4  UNL     1     -28.508  25.336  43.368  1.00  0.00     0.003 A 
HETATM   33  C5  UNL     1     -29.519  25.744  42.525  1.00  0.00     0.001 A 
HETATM   34  C6  UNL     1     -30.686  26.286  43.032  1.00  0.00     0.012 A 
BRANCH  30  35
HETATM   35  O1  UNL     1     -29.964  26.142  46.625  1.00  0.00    -0.355 OA
HETATM   36  C1  UNL     1     -29.025  26.844  47.410  1.00  0.00     0.210 C 
ENDBRANCH  30  35
ENDBRANCH  28  29
ENDBRANCH  19  28
ENDBRANCH  17  18
ENDBRANCH  16  17
ENDBRANCH  15  16
ENDBRANCH  14  15
ENDBRANCH  13  14
ENDBRANCH   1  13
TORSDOF 9
ENDMDL
MODEL 5
REMARK VINA RESULT: -7.778115414      2.414      3.917
REMARK  9 active torsions:
REMARK  status: ('A' for Active; 'I' for Inactive)
REMARK    1  A    between atoms: O1_2  and  C2_3 
REMARK    2  A    between atoms: C7_8  and  C8_9 
REMARK    3  A    between atoms: C8_9  and  N1_10 
REMARK    4  A    between atoms: N3_19  and  C15_20 
REMARK    5  A    between atoms: C15_20  and  C16_21 
REMARK    6  A    between atoms: C16_21  and  C17_22 
REMARK    7  A    between atoms: C17_22  and  C18_23 
REMARK    8  A    between atoms: C18_23  and  C19_24 
REMARK    9  A    between atoms: C19_24  and  C20_25 
ROOT
HETATM    1  C20 UNL     1     -27.598  28.275  40.904  1.00  0.00    -0.047 A 
HETATM    2  C21 UNL     1     -27.900  27.309  39.943  1.00  0.00     0.008 A 
HETATM    3  C22 UNL     1     -27.120  26.186  39.768  1.00  0.00     0.001 A 
HETATM    4  C23 UNL     1     -25.996  25.987  40.557  1.00  0.00     0.012 A 
HETATM    5  C24 UNL     1     -25.682  26.934  41.514  1.00  0.00    -0.025 A 
HETATM    6  C25 UNL     1     -24.561  26.701  42.287  1.00  0.00     0.014 A 
HETATM    7  C26 UNL     1     -24.228  27.615  43.249  1.00  0.00     0.023 A 
HETATM    8  C27 UNL     1     -24.973  28.740  43.458  1.00  0.00     0.045 A 
HETATM    9  C28 UNL     1     -24.602  29.696  44.482  1.00  0.00     0.099 C 
HETATM   10  N4  UNL     1     -24.318  30.467  45.299  1.00  0.00    -0.191 NA
HETATM   11  C29 UNL     1     -26.103  28.945  42.655  1.00  0.00     0.035 A 
HETATM   12  C30 UNL     1     -26.486  28.066  41.677  1.00  0.00    -0.018 A 
ENDROOT
BRANCH   1  13
HETATM   13  C19 UNL     1     -28.425  29.482  41.061  1.00  0.00     0.039 C 
BRANCH  13  14
HETATM   14  C18 UNL     1     -29.656  29.458  40.187  1.00  0.00     0.005 C 
BRANCH  14  15
HETATM   15  C17 UNL     1     -30.927  29.502  41.005  1.00  0.00     0.002 C 
BRANCH  15  16
HETATM   16  C16 UNL     1     -31.247  30.872  41.518  1.00  0.00     0.022 C 
BRANCH  16  17
HETATM   17  C15 UNL     1     -31.435  30.881  43.022  1.00  0.00     0.149 C 
BRANCH  17  18
HETATM   18  N3  UNL     1     -30.185  30.868  43.731  1.00  0.00    -0.288 N 
HETATM   19  N1  UNL     1     -29.853  29.914  44.588  1.00  0.00    -0.294 N 
HETATM   20  C9  UNL     1     -28.631  30.200  45.068  1.00  0.00     0.142 A 
HETATM   21  C10 UNL     1     -28.208  31.375  44.477  1.00  0.00     0.077 A 
HETATM   22  N2  UNL     1     -27.087  32.124  44.575  1.00  0.00    -0.363 N 
HETATM   23  C14 UNL     1     -29.206  31.795  43.626  1.00  0.00     0.079 A 
HETATM   24  C11 UNL     1     -26.951  33.251  43.857  1.00  0.00     0.088 A 
ATOM     25  H2  UNL     1     -26.337  31.830  45.201  1.00  0.00     0.165 HD
HETATM   26  C12 UNL     1     -27.943  33.683  43.002  1.00  0.00     0.019 A 
HETATM   27  C13 UNL     1     -29.092  32.964  42.866  1.00  0.00     0.035 A 
BRANCH  19  28
HETATM   28  C8  UNL     1     -30.614  28.744  44.986  1.00  0.00     0.189 C 
BRANCH  28  29
HETATM   29  C7  UNL     1     -30.065  27.516  44.329  1.00  0.00    -0.005 A 
HETATM   30  C2  UNL     1     -29.132  26.768  45.009  1.00  0.00     0.076 A 
HETATM   31  C3  UNL     1     -28.608  25.633  44.436  1.00  0.00     0.037 A 
HETATM   32  C4  UNL     1     -29.034  25.262  43.175  1.00  0.00     0.003 A 
HETATM   33  C5  UNL     1     -29.968  26.011  42.492  1.00  0.00     0.001 A 
HETATM   34  C6  UNL     1     -30.505  27.154  43.053  1.00  0.00     0.012 A 
BRANCH  30  35
HETATM   35  O1  UNL     1     -28.744  27.189  46.270  1.00  0.00    -0.355 OA
HETATM   36  C1  UNL     1     -29.144  26.487  47.426  1.00  0.00     0.210 C 
ENDBRANCH  30  35
ENDBRANCH  28  29
ENDBRANCH  19  28
ENDBRANCH  17  18
ENDBRANCH  16  17
ENDBRANCH  15  16
ENDBRANCH  14  15
ENDBRANCH  13  14
ENDBRANCH   1  13
TORSDOF 9
ENDMDL
