MODEL 1
REMARK VINA RESULT: -6.667257384      0.000      0.000
REMARK  11 active torsions:
REMARK  status: ('A' for Active; 'I' for Inactive)
REMARK    1  A    between atoms: N1_2  and  C3_4 
REMARK    2  A    between atoms: C3_4  and  C4_5 
REMARK    3  A    between atoms: C4_5  and  C5_6 
REMARK    4  A    between atoms: C5_6  and  C6_7 
REMARK    5  A    between atoms: C6_7  and  O1_8 
REMARK    6  A    between atoms: O1_8  and  C7_9 
REMARK    7  A    between atoms: C9_11  and  N2_12 
REMARK    8  A    between atoms: C14_17  and  C15_18 
REMARK    9  A    between atoms: C19_22  and  C20_23 
REMARK   10  A    between atoms: C21_24  and  C22_25 
REMARK   11  A    between atoms: C25_28  and  N3_29 
ROOT
HETATM    1  C7  UNL     1     -30.320  28.365  41.863  1.00  0.00     0.082 A 
HETATM    2  C8  UNL     1     -31.566  28.998  41.827  1.00  0.00     0.066 A 
HETATM    3  C9  UNL     1     -31.874  29.961  40.880  1.00  0.00     0.032 A 
HETATM    4  C12 UNL     1     -30.886  30.273  39.960  1.00  0.00     0.030 A 
HETATM    5  C13 UNL     1     -29.661  29.653  39.992  1.00  0.00     0.017 A 
HETATM    6  C14 UNL     1     -29.324  28.697  40.918  1.00  0.00     0.008 A 
ENDROOT
BRANCH   6   7
HETATM    7  C15 UNL     1     -28.003  28.090  40.963  1.00  0.00    -0.022 A 
HETATM    8  C16 UNL     1     -27.631  26.987  40.233  1.00  0.00     0.012 A 
HETATM    9  C17 UNL     1     -26.393  26.402  40.334  1.00  0.00     0.002 A 
HETATM   10  C18 UNL     1     -25.452  26.891  41.179  1.00  0.00     0.020 A 
HETATM   11  C19 UNL     1     -25.804  28.028  41.950  1.00  0.00     0.018 A 
HETATM   12  C30 UNL     1     -27.042  28.601  41.836  1.00  0.00     0.033 A 
BRANCH  11  13
HETATM   13  C20 UNL     1     -24.835  28.537  42.883  1.00  0.00    -0.061 C 
HETATM   14  C21 UNL     1     -24.044  28.996  43.702  1.00  0.00    -0.061 C 
BRANCH  14  15
HETATM   15  C22 UNL     1     -23.156  29.553  44.677  1.00  0.00     0.018 A 
HETATM   16  C23 UNL     1     -22.412  28.837  45.577  1.00  0.00     0.023 A 
HETATM   17  C24 UNL     1     -21.557  29.422  46.490  1.00  0.00     0.031 A 
HETATM   18  C25 UNL     1     -21.425  30.792  46.521  1.00  0.00     0.029 A 
HETATM   19  C28 UNL     1     -22.153  31.544  45.635  1.00  0.00     0.031 A 
HETATM   20  C29 UNL     1     -22.991  30.943  44.742  1.00  0.00     0.023 A 
BRANCH  18  21
HETATM   21  N3  UNL     1     -20.545  31.434  47.448  1.00  0.00    -0.390 N 
HETATM   22  C26 UNL     1     -20.159  30.705  48.632  1.00  0.00     0.149 C 
HETATM   23  C27 UNL     1     -20.033  32.771  47.267  1.00  0.00     0.149 C 
ENDBRANCH  18  21
ENDBRANCH  14  15
ENDBRANCH  11  13
ENDBRANCH   6   7
BRANCH   1  24
HETATM   24  O1  UNL     1     -30.009  27.427  42.768  1.00  0.00    -0.350 OA
BRANCH  24  25
HETATM   25  C6  UNL     1     -30.233  26.120  42.909  1.00  0.00     0.175 C 
BRANCH  25  26
HETATM   26  C5  UNL     1     -29.131  25.285  43.468  1.00  0.00     0.028 C 
BRANCH  26  27
HETATM   27  C4  UNL     1     -28.386  26.062  44.561  1.00  0.00     0.032 C 
BRANCH  27  28
HETATM   28  C3  UNL     1     -29.130  25.837  45.854  1.00  0.00     0.271 C 
BRANCH  28  29
HETATM   29  N1  UNL     1     -29.516  27.112  46.436  1.00  0.00     0.080 N 
HETATM   30  C1  UNL     1     -30.946  27.342  46.327  1.00  0.00     0.309 C 
HETATM   31  C2  UNL     1     -28.756  28.200  45.881  1.00  0.00     0.309 C 
ENDBRANCH  28  29
ENDBRANCH  27  28
ENDBRANCH  26  27
ENDBRANCH  25  26
ENDBRANCH  24  25
ENDBRANCH   1  24
BRANCH   3  32
HETATM   32  N2  UNL     1     -33.146  30.594  40.852  1.00  0.00    -0.389 N 
HETATM   33  C10 UNL     1     -34.272  29.890  41.432  1.00  0.00     0.149 C 
HETATM   34  C11 UNL     1     -33.329  31.897  40.257  1.00  0.00     0.149 C 
ENDBRANCH   3  32
TORSDOF 11
ENDMDL
MODEL 2
REMARK VINA RESULT: -6.558268093      1.285      1.763
REMARK  11 active torsions:
REMARK  status: ('A' for Active; 'I' for Inactive)
REMARK    1  A    between atoms: N1_2  and  C3_4 
REMARK    2  A    between atoms: C3_4  and  C4_5 
REMARK    3  A    between atoms: C4_5  and  C5_6 
REMARK    4  A    between atoms: C5_6  and  C6_7 
REMARK    5  A    between atoms: C6_7  and  O1_8 
REMARK    6  A    between atoms: O1_8  and  C7_9 
REMARK    7  A    between atoms: C9_11  and  N2_12 
REMARK    8  A    between atoms: C14_17  and  C15_18 
REMARK    9  A    between atoms: C19_22  and  C20_23 
REMARK   10  A    between atoms: C21_24  and  C22_25 
REMARK   11  A    between atoms: C25_28  and  N3_29 
ROOT
HETATM    1  C7  UNL     1     -29.382  27.602  42.514  1.00  0.00     0.082 A 
HETATM    2  C8  UNL     1     -30.679  28.116  42.425  1.00  0.00     0.066 A 
HETATM    3  C9  UNL     1     -31.022  29.090  41.502  1.00  0.00     0.032 A 
HETATM    4  C12 UNL     1     -30.016  29.539  40.661  1.00  0.00     0.030 A 
HETATM    5  C13 UNL     1     -28.740  29.036  40.745  1.00  0.00     0.017 A 
HETATM    6  C14 UNL     1     -28.367  28.072  41.649  1.00  0.00     0.008 A 
ENDROOT
BRANCH   6   7
HETATM    7  C15 UNL     1     -26.999  27.591  41.753  1.00  0.00    -0.022 A 
HETATM    8  C16 UNL     1     -26.494  26.528  41.043  1.00  0.00     0.012 A 
HETATM    9  C17 UNL     1     -25.213  26.062  41.199  1.00  0.00     0.002 A 
HETATM   10  C18 UNL     1     -24.359  26.636  42.082  1.00  0.00     0.020 A 
HETATM   11  C19 UNL     1     -24.848  27.735  42.832  1.00  0.00     0.018 A 
HETATM   12  C30 UNL     1     -26.128  28.190  42.663  1.00  0.00     0.033 A 
BRANCH  11  13
HETATM   13  C20 UNL     1     -23.971  28.332  43.804  1.00  0.00    -0.061 C 
HETATM   14  C21 UNL     1     -23.254  28.828  44.667  1.00  0.00    -0.061 C 
BRANCH  14  15
HETATM   15  C22 UNL     1     -22.447  29.390  45.708  1.00  0.00     0.018 A 
HETATM   16  C23 UNL     1     -21.101  29.191  45.866  1.00  0.00     0.023 A 
HETATM   17  C24 UNL     1     -20.363  29.769  46.880  1.00  0.00     0.031 A 
HETATM   18  C25 UNL     1     -20.984  30.592  47.792  1.00  0.00     0.029 A 
HETATM   19  C28 UNL     1     -22.330  30.818  47.666  1.00  0.00     0.031 A 
HETATM   20  C29 UNL     1     -23.038  30.235  46.656  1.00  0.00     0.023 A 
BRANCH  18  21
HETATM   21  N3  UNL     1     -20.251  31.215  48.852  1.00  0.00    -0.390 N 
HETATM   22  C26 UNL     1     -18.823  31.016  48.896  1.00  0.00     0.149 C 
HETATM   23  C27 UNL     1     -20.865  32.019  49.881  1.00  0.00     0.149 C 
ENDBRANCH  18  21
ENDBRANCH  14  15
ENDBRANCH  11  13
ENDBRANCH   6   7
BRANCH   1  24
HETATM   24  O1  UNL     1     -29.035  26.655  43.396  1.00  0.00    -0.350 OA
BRANCH  24  25
HETATM   25  C6  UNL     1     -29.667  25.925  44.315  1.00  0.00     0.175 C 
BRANCH  25  26
HETATM   26  C5  UNL     1     -29.123  25.938  45.705  1.00  0.00     0.028 C 
BRANCH  26  27
HETATM   27  C4  UNL     1     -30.128  26.601  46.655  1.00  0.00     0.032 C 
BRANCH  27  28
HETATM   28  C3  UNL     1     -30.198  28.062  46.282  1.00  0.00     0.271 C 
BRANCH  28  29
HETATM   29  N1  UNL     1     -31.575  28.525  46.336  1.00  0.00     0.080 N 
HETATM   30  C1  UNL     1     -32.474  27.618  45.642  1.00  0.00     0.309 C 
HETATM   31  C2  UNL     1     -31.699  29.875  45.853  1.00  0.00     0.309 C 
ENDBRANCH  28  29
ENDBRANCH  27  28
ENDBRANCH  26  27
ENDBRANCH  25  26
ENDBRANCH  24  25
ENDBRANCH   1  24
BRANCH   3  32
HETATM   32  N2  UNL     1     -32.345  29.601  41.420  1.00  0.00    -0.389 N 
HETATM   33  C10 UNL     1     -33.246  29.342  42.525  1.00  0.00     0.149 C 
HETATM   34  C11 UNL     1     -32.797  30.350  40.271  1.00  0.00     0.149 C 
ENDBRANCH   3  32
TORSDOF 11
ENDMDL
MODEL 3
REMARK VINA RESULT: -6.431775201      1.031      1.121
REMARK  11 active torsions:
REMARK  status: ('A' for Active; 'I' for Inactive)
REMARK    1  A    between atoms: N1_2  and  C3_4 
REMARK    2  A    between atoms: C3_4  and  C4_5 
REMARK    3  A    between atoms: C4_5  and  C5_6 
REMARK    4  A    between atoms: C5_6  and  C6_7 
REMARK    5  A    between atoms: C6_7  and  O1_8 
REMARK    6  A    between atoms: O1_8  and  C7_9 
REMARK    7  A    between atoms: C9_11  and  N2_12 
REMARK    8  A    between atoms: C14_17  and  C15_18 
REMARK    9  A    between atoms: C19_22  and  C20_23 
REMARK   10  A    between atoms: C21_24  and  C22_25 
REMARK   11  A    between atoms: C25_28  and  N3_29 
ROOT
HETATM    1  C7  UNL     1     -30.386  27.971  42.213  1.00  0.00     0.082 A 
HETATM    2  C8  UNL     1     -31.657  28.483  42.487  1.00  0.00     0.066 A 
HETATM    3  C9  UNL     1     -31.946  29.834  42.380  1.00  0.00     0.032 A 
HETATM    4  C12 UNL     1     -30.910  30.666  41.985  1.00  0.00     0.030 A 
HETATM    5  C13 UNL     1     -29.659  30.167  41.715  1.00  0.00     0.017 A 
HETATM    6  C14 UNL     1     -29.341  28.835  41.813  1.00  0.00     0.008 A 
ENDROOT
BRANCH   6   7
HETATM    7  C15 UNL     1     -27.996  28.337  41.569  1.00  0.00    -0.022 A 
HETATM    8  C16 UNL     1     -27.668  27.441  40.581  1.00  0.00     0.012 A 
HETATM    9  C17 UNL     1     -26.400  26.946  40.407  1.00  0.00     0.002 A 
HETATM   10  C18 UNL     1     -25.381  27.323  41.218  1.00  0.00     0.020 A 
HETATM   11  C19 UNL     1     -25.685  28.246  42.251  1.00  0.00     0.018 A 
HETATM   12  C30 UNL     1     -26.956  28.732  42.410  1.00  0.00     0.033 A 
BRANCH  11  13
HETATM   13  C20 UNL     1     -24.628  28.626  43.149  1.00  0.00    -0.061 C 
HETATM   14  C21 UNL     1     -23.751  28.991  43.925  1.00  0.00    -0.061 C 
BRANCH  14  15
HETATM   15  C22 UNL     1     -22.753  29.455  44.841  1.00  0.00     0.018 A 
HETATM   16  C23 UNL     1     -22.362  28.811  45.985  1.00  0.00     0.023 A 
HETATM   17  C24 UNL     1     -21.382  29.294  46.830  1.00  0.00     0.031 A 
HETATM   18  C25 UNL     1     -20.747  30.478  46.532  1.00  0.00     0.029 A 
HETATM   19  C28 UNL     1     -21.109  31.152  45.394  1.00  0.00     0.031 A 
HETATM   20  C29 UNL     1     -22.080  30.655  44.575  1.00  0.00     0.023 A 
BRANCH  18  21
HETATM   21  N3  UNL     1     -19.722  31.006  47.379  1.00  0.00    -0.390 N 
HETATM   22  C26 UNL     1     -19.188  30.151  48.411  1.00  0.00     0.149 C 
HETATM   23  C27 UNL     1     -19.204  32.348  47.263  1.00  0.00     0.149 C 
ENDBRANCH  18  21
ENDBRANCH  14  15
ENDBRANCH  11  13
ENDBRANCH   6   7
BRANCH   1  24
HETATM   24  O1  UNL     1     -30.093  26.667  42.305  1.00  0.00    -0.350 OA
BRANCH  24  25
HETATM   25  C6  UNL     1     -30.081  25.755  43.277  1.00  0.00     0.175 C 
BRANCH  25  26
HETATM   26  C5  UNL     1     -28.782  25.489  43.962  1.00  0.00     0.028 C 
BRANCH  26  27
HETATM   27  C4  UNL     1     -28.881  25.875  45.443  1.00  0.00     0.032 C 
BRANCH  27  28
HETATM   28  C3  UNL     1     -30.260  26.449  45.662  1.00  0.00     0.271 C 
BRANCH  28  29
HETATM   29  N1  UNL     1     -30.163  27.752  46.299  1.00  0.00     0.080 N 
HETATM   30  C1  UNL     1     -31.443  28.440  46.313  1.00  0.00     0.309 C 
HETATM   31  C2  UNL     1     -29.130  28.557  45.705  1.00  0.00     0.309 C 
ENDBRANCH  28  29
ENDBRANCH  27  28
ENDBRANCH  26  27
ENDBRANCH  25  26
ENDBRANCH  24  25
ENDBRANCH   1  24
BRANCH   3  32
HETATM   32  N2  UNL     1     -33.244  30.339  42.658  1.00  0.00    -0.389 N 
HETATM   33  C10 UNL     1     -34.344  29.888  41.831  1.00  0.00     0.149 C 
HETATM   34  C11 UNL     1     -33.474  31.285  43.726  1.00  0.00     0.149 C 
ENDBRANCH   3  32
TORSDOF 11
ENDMDL
MODEL 4
REMARK VINA RESULT: -6.426687105      1.222      1.770
REMARK  11 active torsions:
REMARK  status: ('A' for Active; 'I' for Inactive)
REMARK    1  A    between atoms: N1_2  and  C3_4 
REMARK    2  A    between atoms: C3_4  and  C4_5 
REMARK    3  A    between atoms: C4_5  and  C5_6 
REMARK    4  A    between atoms: C5_6  and  C6_7 
REMARK    5  A    between atoms: C6_7  and  O1_8 
REMARK    6  A    between atoms: O1_8  and  C7_9 
REMARK    7  A    between atoms: C9_11  and  N2_12 
REMARK    8  A    between atoms: C14_17  and  C15_18 
REMARK    9  A    between atoms: C19_22  and  C20_23 
REMARK   10  A    between atoms: C21_24  and  C22_25 
REMARK   11  A    between atoms: C25_28  and  N3_29 
ROOT
HETATM    1  C7  UNL     1     -29.635  27.712  42.355  1.00  0.00     0.082 A 
HETATM    2  C8  UNL     1     -30.945  28.199  42.327  1.00  0.00     0.066 A 
HETATM    3  C9  UNL     1     -31.333  29.221  41.476  1.00  0.00     0.032 A 
HETATM    4  C12 UNL     1     -30.357  29.747  40.645  1.00  0.00     0.030 A 
HETATM    5  C13 UNL     1     -29.068  29.271  40.669  1.00  0.00     0.017 A 
HETATM    6  C14 UNL     1     -28.652  28.261  41.501  1.00  0.00     0.008 A 
ENDROOT
BRANCH   6   7
HETATM    7  C15 UNL     1     -27.271  27.808  41.544  1.00  0.00    -0.022 A 
HETATM    8  C16 UNL     1     -26.752  26.823  40.739  1.00  0.00     0.012 A 
HETATM    9  C17 UNL     1     -25.458  26.377  40.837  1.00  0.00     0.002 A 
HETATM   10  C18 UNL     1     -24.604  26.896  41.753  1.00  0.00     0.020 A 
HETATM   11  C19 UNL     1     -25.107  27.915  42.602  1.00  0.00     0.018 A 
HETATM   12  C30 UNL     1     -26.400  28.350  42.490  1.00  0.00     0.033 A 
BRANCH  11  13
HETATM   13  C20 UNL     1     -24.229  28.450  43.608  1.00  0.00    -0.061 C 
HETATM   14  C21 UNL     1     -23.519  28.930  44.486  1.00  0.00    -0.061 C 
BRANCH  14  15
HETATM   15  C22 UNL     1     -22.727  29.512  45.527  1.00  0.00     0.018 A 
HETATM   16  C23 UNL     1     -23.190  30.359  46.499  1.00  0.00     0.023 A 
HETATM   17  C24 UNL     1     -22.388  30.884  47.493  1.00  0.00     0.031 A 
HETATM   18  C25 UNL     1     -21.052  30.556  47.535  1.00  0.00     0.029 A 
HETATM   19  C28 UNL     1     -20.550  29.709  46.580  1.00  0.00     0.031 A 
HETATM   20  C29 UNL     1     -21.363  29.204  45.609  1.00  0.00     0.023 A 
BRANCH  18  21
HETATM   21  N3  UNL     1     -20.190  31.075  48.553  1.00  0.00    -0.390 N 
HETATM   22  C26 UNL     1     -18.983  31.749  48.141  1.00  0.00     0.149 C 
HETATM   23  C27 UNL     1     -20.459  30.949  49.966  1.00  0.00     0.149 C 
ENDBRANCH  18  21
ENDBRANCH  14  15
ENDBRANCH  11  13
ENDBRANCH   6   7
BRANCH   1  24
HETATM   24  O1  UNL     1     -29.247  26.720  43.167  1.00  0.00    -0.350 OA
BRANCH  24  25
HETATM   25  C6  UNL     1     -29.835  25.936  44.071  1.00  0.00     0.175 C 
BRANCH  25  26
HETATM   26  C5  UNL     1     -29.267  25.922  45.450  1.00  0.00     0.028 C 
BRANCH  26  27
HETATM   27  C4  UNL     1     -30.253  26.569  46.431  1.00  0.00     0.032 C 
BRANCH  27  28
HETATM   28  C3  UNL     1     -30.059  28.063  46.338  1.00  0.00     0.271 C 
BRANCH  28  29
HETATM   29  N1  UNL     1     -31.348  28.730  46.260  1.00  0.00     0.080 N 
HETATM   30  C1  UNL     1     -32.372  27.855  45.714  1.00  0.00     0.309 C 
HETATM   31  C2  UNL     1     -31.261  29.969  45.535  1.00  0.00     0.309 C 
ENDBRANCH  28  29
ENDBRANCH  27  28
ENDBRANCH  26  27
ENDBRANCH  25  26
ENDBRANCH  24  25
ENDBRANCH   1  24
BRANCH   3  32
HETATM   32  N2  UNL     1     -32.669  29.703  41.456  1.00  0.00    -0.389 N 
HETATM   33  C10 UNL     1     -33.114  30.432  40.286  1.00  0.00     0.149 C 
HETATM   34  C11 UNL     1     -33.566  29.490  42.567  1.00  0.00     0.149 C 
ENDBRANCH   3  32
TORSDOF 11
ENDMDL
MODEL 5
REMARK VINA RESULT: -6.421159443      3.216      5.749
REMARK  11 active torsions:
REMARK  status: ('A' for Active; 'I' for Inactive)
REMARK    1  A    between atoms: N1_2  and  C3_4 
REMARK    2  A    between atoms: C3_4  and  C4_5 
REMARK    3  A    between atoms: C4_5  and  C5_6 
REMARK    4  A    between atoms: C5_6  and  C6_7 
REMARK    5  A    between atoms: C6_7  and  O1_8 
REMARK    6  A    between atoms: O1_8  and  C7_9 
REMARK    7  A    between atoms: C9_11  and  N2_12 
REMARK    8  A    between atoms: C14_17  and  C15_18 
REMARK    9  A    between atoms: C19_22  and  C20_23 
REMARK   10  A    between atoms: C21_24  and  C22_25 
REMARK   11  A    between atoms: C25_28  and  N3_29 
ROOT
HETATM    1  C7  UNL     1     -26.636  28.983  43.315  1.00  0.00     0.082 A 
HETATM    2  C8  UNL     1     -27.825  28.251  43.251  1.00  0.00     0.066 A 
HETATM    3  C9  UNL     1     -28.743  28.246  44.289  1.00  0.00     0.032 A 
HETATM    4  C12 UNL     1     -28.429  29.005  45.405  1.00  0.00     0.030 A 
HETATM    5  C13 UNL     1     -27.262  29.726  45.472  1.00  0.00     0.017 A 
HETATM    6  C14 UNL     1     -26.332  29.751  44.462  1.00  0.00     0.008 A 
ENDROOT
BRANCH   6   7
HETATM    7  C15 UNL     1     -25.080  30.482  44.575  1.00  0.00    -0.022 A 
HETATM    8  C16 UNL     1     -24.887  31.765  44.121  1.00  0.00     0.012 A 
HETATM    9  C17 UNL     1     -23.679  32.413  44.193  1.00  0.00     0.002 A 
HETATM   10  C18 UNL     1     -22.589  31.809  44.727  1.00  0.00     0.020 A 
HETATM   11  C19 UNL     1     -22.752  30.484  45.204  1.00  0.00     0.018 A 
HETATM   12  C30 UNL     1     -23.965  29.852  45.127  1.00  0.00     0.033 A 
BRANCH  11  13
HETATM   13  C20 UNL     1     -21.598  29.811  45.736  1.00  0.00    -0.061 C 
HETATM   14  C21 UNL     1     -20.598  29.228  46.144  1.00  0.00    -0.061 C 
BRANCH  14  15
HETATM   15  C22 UNL     1     -19.418  28.543  46.576  1.00  0.00     0.018 A 
HETATM   16  C23 UNL     1     -19.268  27.893  47.773  1.00  0.00     0.023 A 
HETATM   17  C24 UNL     1     -18.112  27.233  48.138  1.00  0.00     0.031 A 
HETATM   18  C25 UNL     1     -17.039  27.208  47.276  1.00  0.00     0.029 A 
HETATM   19  C28 UNL     1     -17.150  27.846  46.067  1.00  0.00     0.031 A 
HETATM   20  C29 UNL     1     -18.303  28.491  45.730  1.00  0.00     0.023 A 
BRANCH  18  21
HETATM   21  N3  UNL     1     -15.827  26.529  47.617  1.00  0.00    -0.390 N 
HETATM   22  C26 UNL     1     -14.611  26.941  46.959  1.00  0.00     0.149 C 
HETATM   23  C27 UNL     1     -15.758  25.448  48.572  1.00  0.00     0.149 C 
ENDBRANCH  18  21
ENDBRANCH  14  15
ENDBRANCH  11  13
ENDBRANCH   6   7
BRANCH   1  24
HETATM   24  O1  UNL     1     -25.742  29.004  42.317  1.00  0.00    -0.350 OA
BRANCH  24  25
HETATM   25  C6  UNL     1     -24.844  28.155  41.818  1.00  0.00     0.175 C 
BRANCH  25  26
HETATM   26  C5  UNL     1     -24.596  26.889  42.569  1.00  0.00     0.028 C 
BRANCH  26  27
HETATM   27  C4  UNL     1     -25.037  25.685  41.727  1.00  0.00     0.032 C 
BRANCH  27  28
HETATM   28  C3  UNL     1     -25.466  26.216  40.381  1.00  0.00     0.271 C 
BRANCH  28  29
HETATM   29  N1  UNL     1     -26.861  25.886  40.137  1.00  0.00     0.080 N 
HETATM   30  C1  UNL     1     -27.654  27.073  39.865  1.00  0.00     0.309 C 
HETATM   31  C2  UNL     1     -27.418  25.105  41.209  1.00  0.00     0.309 C 
ENDBRANCH  28  29
ENDBRANCH  27  28
ENDBRANCH  26  27
ENDBRANCH  25  26
ENDBRANCH  24  25
ENDBRANCH   1  24
BRANCH   3  32
HETATM   32  N2  UNL     1     -29.949  27.500  44.209  1.00  0.00    -0.389 N 
HETATM   33  C10 UNL     1     -30.278  26.867  42.948  1.00  0.00     0.149 C 
HETATM   34  C11 UNL     1     -30.837  27.375  45.341  1.00  0.00     0.149 C 
ENDBRANCH   3  32
TORSDOF 11
ENDMDL
