MODEL 1
REMARK VINA RESULT: -5.877502111      0.000      0.000
REMARK  9 active torsions:
REMARK  status: ('A' for Active; 'I' for Inactive)
REMARK    1  A    between atoms: O1_2  and  C2_3 
REMARK    2  A    between atoms: C5_6  and  C6_7 
REMARK    3  A    between atoms: C7_8  and  C8_9 
REMARK    4  A    between atoms: C11_12  and  C12_13 
REMARK    5  A    between atoms: C15_16  and  N1_17 
REMARK    6  A    between atoms: N2_26  and  C24_27 
REMARK    7  A    between atoms: C24_27  and  C25_28 
REMARK    8  A    between atoms: C25_28  and  C26_29 
REMARK    9  A    between atoms: C26_29  and  N3_30 
ROOT
HETATM    1  C6  UNL     1     -24.253  30.894  44.774  1.00  0.00     0.266 C 
HETATM    2  C7  UNL     1     -23.176  31.307  45.621  1.00  0.00     0.085 C 
HETATM    3  C23 UNL     1     -22.663  32.160  44.449  1.00  0.00     0.285 C 
HETATM    4  N2  UNL     1     -24.000  32.038  43.878  1.00  0.00     0.099 N 
ENDROOT
BRANCH   2   5
HETATM    5  C8  UNL     1     -22.124  30.512  46.205  1.00  0.00    -0.049 A 
HETATM    6  C9  UNL     1     -20.982  30.330  45.397  1.00  0.00     0.008 A 
HETATM    7  C10 UNL     1     -19.898  29.611  45.818  1.00  0.00     0.013 A 
HETATM    8  C11 UNL     1     -19.856  29.012  47.077  1.00  0.00    -0.020 A 
HETATM    9  C20 UNL     1     -20.965  29.185  47.870  1.00  0.00    -0.050 A 
HETATM   10  C21 UNL     1     -21.002  28.556  49.231  1.00  0.00     0.049 C 
HETATM   11  C22 UNL     1     -22.070  29.922  47.434  1.00  0.00     0.015 A 
BRANCH   8  12
HETATM   12  C12 UNL     1     -18.674  28.267  47.493  1.00  0.00    -0.025 A 
HETATM   13  C13 UNL     1     -17.617  28.939  48.043  1.00  0.00     0.014 A 
HETATM   14  C14 UNL     1     -16.482  28.286  48.454  1.00  0.00     0.030 A 
HETATM   15  C15 UNL     1     -16.433  26.916  48.298  1.00  0.00     0.029 A 
HETATM   16  C18 UNL     1     -17.488  26.210  47.745  1.00  0.00     0.030 A 
HETATM   17  C19 UNL     1     -18.604  26.913  47.347  1.00  0.00     0.014 A 
BRANCH  15  18
HETATM   18  N1  UNL     1     -15.249  26.276  48.730  1.00  0.00    -0.390 N 
HETATM   19  C16 UNL     1     -15.170  25.755  50.064  1.00  0.00     0.149 C 
HETATM   20  C17 UNL     1     -14.131  26.147  47.838  1.00  0.00     0.149 C 
ENDBRANCH  15  18
ENDBRANCH   8  12
ENDBRANCH   2   5
BRANCH   1  21
HETATM   21  C5  UNL     1     -24.385  29.695  43.992  1.00  0.00    -0.024 A 
HETATM   22  C4  UNL     1     -25.054  29.808  42.761  1.00  0.00     0.012 A 
HETATM   23  C3  UNL     1     -25.222  28.747  41.903  1.00  0.00     0.037 A 
HETATM   24  C2  UNL     1     -24.713  27.500  42.254  1.00  0.00     0.068 A 
HETATM   25  C30 UNL     1     -24.054  27.366  43.454  1.00  0.00     0.037 A 
HETATM   26  C29 UNL     1     -23.895  28.466  44.313  1.00  0.00     0.012 A 
BRANCH  24  27
HETATM   27  O1  UNL     1     -24.833  26.389  41.464  1.00  0.00    -0.356 OA
HETATM   28  C1  UNL     1     -25.585  26.250  40.299  1.00  0.00     0.210 C 
ENDBRANCH  24  27
ENDBRANCH   1  21
BRANCH   4  29
HETATM   29  C24 UNL     1     -24.836  33.197  44.139  1.00  0.00     0.275 C 
BRANCH  29  30
HETATM   30  C25 UNL     1     -25.642  33.464  42.890  1.00  0.00     0.060 C 
BRANCH  30  31
HETATM   31  C26 UNL     1     -24.754  33.396  41.661  1.00  0.00     0.273 C 
BRANCH  31  32
HETATM   32  N3  UNL     1     -25.338  32.535  40.622  1.00  0.00     0.080 N 
HETATM   33  C27 UNL     1     -25.060  33.235  39.358  1.00  0.00     0.309 C 
HETATM   34  C28 UNL     1     -26.774  32.466  40.721  1.00  0.00     0.309 C 
ENDBRANCH  31  32
ENDBRANCH  30  31
ENDBRANCH  29  30
ENDBRANCH   4  29
TORSDOF 9
ENDMDL
MODEL 2
REMARK VINA RESULT: -5.824178685      0.852      1.295
REMARK  9 active torsions:
REMARK  status: ('A' for Active; 'I' for Inactive)
REMARK    1  A    between atoms: O1_2  and  C2_3 
REMARK    2  A    between atoms: C5_6  and  C6_7 
REMARK    3  A    between atoms: C7_8  and  C8_9 
REMARK    4  A    between atoms: C11_12  and  C12_13 
REMARK    5  A    between atoms: C15_16  and  N1_17 
REMARK    6  A    between atoms: N2_26  and  C24_27 
REMARK    7  A    between atoms: C24_27  and  C25_28 
REMARK    8  A    between atoms: C25_28  and  C26_29 
REMARK    9  A    between atoms: C26_29  and  N3_30 
ROOT
HETATM    1  C6  UNL     1     -24.746  30.886  44.413  1.00  0.00     0.266 C 
HETATM    2  C7  UNL     1     -23.666  31.356  45.225  1.00  0.00     0.085 C 
HETATM    3  C23 UNL     1     -23.289  32.297  44.069  1.00  0.00     0.285 C 
HETATM    4  N2  UNL     1     -24.638  32.083  43.559  1.00  0.00     0.099 N 
ENDROOT
BRANCH   2   5
HETATM    5  C8  UNL     1     -22.521  30.633  45.722  1.00  0.00    -0.049 A 
HETATM    6  C9  UNL     1     -21.411  30.583  44.852  1.00  0.00     0.008 A 
HETATM    7  C10 UNL     1     -20.250  29.945  45.187  1.00  0.00     0.013 A 
HETATM    8  C11 UNL     1     -20.092  29.302  46.415  1.00  0.00    -0.020 A 
HETATM    9  C20 UNL     1     -21.168  29.345  47.268  1.00  0.00    -0.050 A 
HETATM   10  C21 UNL     1     -21.081  28.661  48.599  1.00  0.00     0.049 C 
HETATM   11  C22 UNL     1     -22.353  30.000  46.919  1.00  0.00     0.015 A 
BRANCH   8  12
HETATM   12  C12 UNL     1     -18.831  28.646  46.739  1.00  0.00    -0.025 A 
HETATM   13  C13 UNL     1     -18.829  27.315  47.057  1.00  0.00     0.014 A 
HETATM   14  C14 UNL     1     -17.671  26.648  47.366  1.00  0.00     0.030 A 
HETATM   15  C15 UNL     1     -16.490  27.362  47.346  1.00  0.00     0.029 A 
HETATM   16  C18 UNL     1     -16.462  28.710  47.027  1.00  0.00     0.030 A 
HETATM   17  C19 UNL     1     -17.653  29.332  46.726  1.00  0.00     0.014 A 
BRANCH  15  18
HETATM   18  N1  UNL     1     -15.316  26.645  47.671  1.00  0.00    -0.390 N 
HETATM   19  C16 UNL     1     -14.131  26.831  46.885  1.00  0.00     0.149 C 
HETATM   20  C17 UNL     1     -15.310  25.736  48.784  1.00  0.00     0.149 C 
ENDBRANCH  15  18
ENDBRANCH   8  12
ENDBRANCH   2   5
BRANCH   1  21
HETATM   21  C5  UNL     1     -24.816  29.713  43.585  1.00  0.00    -0.024 A 
HETATM   22  C4  UNL     1     -25.489  29.839  42.357  1.00  0.00     0.012 A 
HETATM   23  C3  UNL     1     -25.602  28.805  41.459  1.00  0.00     0.037 A 
HETATM   24  C2  UNL     1     -25.029  27.573  41.762  1.00  0.00     0.068 A 
HETATM   25  C30 UNL     1     -24.364  27.426  42.958  1.00  0.00     0.037 A 
HETATM   26  C29 UNL     1     -24.264  28.498  43.859  1.00  0.00     0.012 A 
BRANCH  24  27
HETATM   27  O1  UNL     1     -25.092  26.489  40.929  1.00  0.00    -0.356 OA
HETATM   28  C1  UNL     1     -26.062  26.207  39.970  1.00  0.00     0.210 C 
ENDBRANCH  24  27
ENDBRANCH   1  21
BRANCH   4  29
HETATM   29  C24 UNL     1     -25.555  33.153  43.912  1.00  0.00     0.275 C 
BRANCH  29  30
HETATM   30  C25 UNL     1     -26.422  33.423  42.704  1.00  0.00     0.060 C 
BRANCH  30  31
HETATM   31  C26 UNL     1     -25.565  33.584  41.463  1.00  0.00     0.273 C 
BRANCH  31  32
HETATM   32  N3  UNL     1     -26.042  32.729  40.365  1.00  0.00     0.080 N 
HETATM   33  C27 UNL     1     -24.835  32.421  39.581  1.00  0.00     0.309 C 
HETATM   34  C28 UNL     1     -26.917  33.441  39.468  1.00  0.00     0.309 C 
ENDBRANCH  31  32
ENDBRANCH  30  31
ENDBRANCH  29  30
ENDBRANCH   4  29
TORSDOF 9
ENDMDL
MODEL 3
REMARK VINA RESULT: -5.711788522      0.992      1.595
REMARK  9 active torsions:
REMARK  status: ('A' for Active; 'I' for Inactive)
REMARK    1  A    between atoms: O1_2  and  C2_3 
REMARK    2  A    between atoms: C5_6  and  C6_7 
REMARK    3  A    between atoms: C7_8  and  C8_9 
REMARK    4  A    between atoms: C11_12  and  C12_13 
REMARK    5  A    between atoms: C15_16  and  N1_17 
REMARK    6  A    between atoms: N2_26  and  C24_27 
REMARK    7  A    between atoms: C24_27  and  C25_28 
REMARK    8  A    between atoms: C25_28  and  C26_29 
REMARK    9  A    between atoms: C26_29  and  N3_30 
ROOT
HETATM    1  C6  UNL     1     -24.738  31.023  44.276  1.00  0.00     0.266 C 
HETATM    2  C7  UNL     1     -23.644  31.535  45.042  1.00  0.00     0.085 C 
HETATM    3  C23 UNL     1     -23.314  32.445  43.848  1.00  0.00     0.285 C 
HETATM    4  N2  UNL     1     -24.673  32.194  43.382  1.00  0.00     0.099 N 
ENDROOT
BRANCH   2   5
HETATM    5  C8  UNL     1     -22.475  30.845  45.529  1.00  0.00    -0.049 A 
HETATM    6  C9  UNL     1     -22.697  29.964  46.609  1.00  0.00     0.008 A 
HETATM    7  C10 UNL     1     -21.688  29.232  47.171  1.00  0.00     0.013 A 
HETATM    8  C11 UNL     1     -20.374  29.311  46.708  1.00  0.00    -0.020 A 
HETATM    9  C20 UNL     1     -20.150  30.167  45.657  1.00  0.00    -0.050 A 
HETATM   10  C21 UNL     1     -18.761  30.320  45.116  1.00  0.00     0.049 C 
HETATM   11  C22 UNL     1     -21.186  30.913  45.086  1.00  0.00     0.015 A 
BRANCH   8  12
HETATM   12  C12 UNL     1     -19.332  28.500  47.326  1.00  0.00    -0.025 A 
HETATM   13  C13 UNL     1     -19.163  28.546  48.682  1.00  0.00     0.014 A 
HETATM   14  C14 UNL     1     -18.201  27.801  49.315  1.00  0.00     0.030 A 
HETATM   15  C15 UNL     1     -17.397  26.992  48.539  1.00  0.00     0.029 A 
HETATM   16  C18 UNL     1     -17.546  26.925  47.164  1.00  0.00     0.030 A 
HETATM   17  C19 UNL     1     -18.527  27.694  46.578  1.00  0.00     0.014 A 
BRANCH  15  18
HETATM   18  N1  UNL     1     -16.415  26.239  49.223  1.00  0.00    -0.390 N 
HETATM   19  C16 UNL     1     -16.541  26.024  50.636  1.00  0.00     0.149 C 
HETATM   20  C17 UNL     1     -15.296  25.691  48.507  1.00  0.00     0.149 C 
ENDBRANCH  15  18
ENDBRANCH   8  12
ENDBRANCH   2   5
BRANCH   1  21
HETATM   21  C5  UNL     1     -24.812  29.824  43.487  1.00  0.00    -0.024 A 
HETATM   22  C4  UNL     1     -25.483  29.911  42.255  1.00  0.00     0.012 A 
HETATM   23  C3  UNL     1     -25.599  28.849  41.391  1.00  0.00     0.037 A 
HETATM   24  C2  UNL     1     -25.032  27.625  41.737  1.00  0.00     0.068 A 
HETATM   25  C30 UNL     1     -24.370  27.515  42.937  1.00  0.00     0.037 A 
HETATM   26  C29 UNL     1     -24.266  28.617  43.803  1.00  0.00     0.012 A 
BRANCH  24  27
HETATM   27  O1  UNL     1     -25.099  26.514  40.940  1.00  0.00    -0.356 OA
HETATM   28  C1  UNL     1     -26.063  26.210  39.981  1.00  0.00     0.210 C 
ENDBRANCH  24  27
ENDBRANCH   1  21
BRANCH   4  29
HETATM   29  C24 UNL     1     -25.597  33.261  43.727  1.00  0.00     0.275 C 
BRANCH  29  30
HETATM   30  C25 UNL     1     -26.443  33.539  42.506  1.00  0.00     0.060 C 
BRANCH  30  31
HETATM   31  C26 UNL     1     -25.596  34.141  41.400  1.00  0.00     0.273 C 
BRANCH  31  32
HETATM   32  N3  UNL     1     -25.876  33.508  40.103  1.00  0.00     0.080 N 
HETATM   33  C27 UNL     1     -27.073  32.685  40.340  1.00  0.00     0.309 C 
HETATM   34  C28 UNL     1     -24.839  32.583  39.719  1.00  0.00     0.309 C 
ENDBRANCH  31  32
ENDBRANCH  30  31
ENDBRANCH  29  30
ENDBRANCH   4  29
TORSDOF 9
ENDMDL
MODEL 4
REMARK VINA RESULT: -5.701866970      2.953      9.413
REMARK  9 active torsions:
REMARK  status: ('A' for Active; 'I' for Inactive)
REMARK    1  A    between atoms: O1_2  and  C2_3 
REMARK    2  A    between atoms: C5_6  and  C6_7 
REMARK    3  A    between atoms: C7_8  and  C8_9 
REMARK    4  A    between atoms: C11_12  and  C12_13 
REMARK    5  A    between atoms: C15_16  and  N1_17 
REMARK    6  A    between atoms: N2_26  and  C24_27 
REMARK    7  A    between atoms: C24_27  and  C25_28 
REMARK    8  A    between atoms: C25_28  and  C26_29 
REMARK    9  A    between atoms: C26_29  and  N3_30 
ROOT
HETATM    1  C6  UNL     1     -19.578  30.723  47.654  1.00  0.00     0.266 C 
HETATM    2  C7  UNL     1     -20.983  30.989  47.635  1.00  0.00     0.085 C 
HETATM    3  C23 UNL     1     -21.123  30.002  48.806  1.00  0.00     0.285 C 
HETATM    4  N2  UNL     1     -19.690  30.173  49.018  1.00  0.00     0.099 N 
ENDROOT
BRANCH   2   5
HETATM    5  C8  UNL     1     -21.944  30.722  46.593  1.00  0.00    -0.049 A 
HETATM    6  C9  UNL     1     -22.234  29.359  46.370  1.00  0.00     0.008 A 
HETATM    7  C10 UNL     1     -23.132  28.951  45.424  1.00  0.00     0.013 A 
HETATM    8  C11 UNL     1     -23.819  29.860  44.620  1.00  0.00    -0.020 A 
HETATM    9  C20 UNL     1     -23.541  31.190  44.830  1.00  0.00    -0.050 A 
HETATM   10  C21 UNL     1     -24.227  32.226  43.992  1.00  0.00     0.049 C 
HETATM   11  C22 UNL     1     -22.622  31.601  45.800  1.00  0.00     0.015 A 
BRANCH   8  12
HETATM   12  C12 UNL     1     -24.781  29.382  43.634  1.00  0.00    -0.025 A 
HETATM   13  C13 UNL     1     -26.117  29.440  43.918  1.00  0.00     0.014 A 
HETATM   14  C14 UNL     1     -27.065  29.007  43.025  1.00  0.00     0.030 A 
HETATM   15  C15 UNL     1     -26.630  28.506  41.815  1.00  0.00     0.029 A 
HETATM   16  C18 UNL     1     -25.283  28.437  41.500  1.00  0.00     0.030 A 
HETATM   17  C19 UNL     1     -24.373  28.883  42.432  1.00  0.00     0.014 A 
BRANCH  15  18
HETATM   18  N1  UNL     1     -27.632  28.068  40.919  1.00  0.00    -0.390 N 
HETATM   19  C16 UNL     1     -27.412  26.889  40.131  1.00  0.00     0.149 C 
HETATM   20  C17 UNL     1     -28.864  28.797  40.800  1.00  0.00     0.149 C 
ENDBRANCH  15  18
ENDBRANCH   8  12
ENDBRANCH   2   5
BRANCH   1  21
HETATM   21  C5  UNL     1     -18.812  29.822  46.837  1.00  0.00    -0.024 A 
HETATM   22  C4  UNL     1     -18.149  30.374  45.728  1.00  0.00     0.012 A 
HETATM   23  C3  UNL     1     -17.359  29.631  44.884  1.00  0.00     0.037 A 
HETATM   24  C2  UNL     1     -17.198  28.269  45.125  1.00  0.00     0.068 A 
HETATM   25  C30 UNL     1     -17.837  27.706  46.206  1.00  0.00     0.037 A 
HETATM   26  C29 UNL     1     -18.639  28.488  47.053  1.00  0.00     0.012 A 
BRANCH  24  27
HETATM   27  O1  UNL     1     -16.433  27.451  44.339  1.00  0.00    -0.356 OA
HETATM   28  C1  UNL     1     -15.701  27.800  43.205  1.00  0.00     0.210 C 
ENDBRANCH  24  27
ENDBRANCH   1  21
BRANCH   4  29
HETATM   29  C24 UNL     1     -19.382  31.124  50.072  1.00  0.00     0.275 C 
BRANCH  29  30
HETATM   30  C25 UNL     1     -18.675  30.367  51.172  1.00  0.00     0.060 C 
BRANCH  30  31
HETATM   31  C26 UNL     1     -17.955  29.158  50.605  1.00  0.00     0.273 C 
BRANCH  31  32
HETATM   32  N3  UNL     1     -18.202  27.955  51.413  1.00  0.00     0.080 N 
HETATM   33  C27 UNL     1     -17.767  26.837  50.562  1.00  0.00     0.309 C 
HETATM   34  C28 UNL     1     -19.609  27.741  51.647  1.00  0.00     0.309 C 
ENDBRANCH  31  32
ENDBRANCH  30  31
ENDBRANCH  29  30
ENDBRANCH   4  29
TORSDOF 9
ENDMDL
MODEL 5
REMARK VINA RESULT: -5.701391538      7.180     11.012
REMARK  9 active torsions:
REMARK  status: ('A' for Active; 'I' for Inactive)
REMARK    1  A    between atoms: O1_2  and  C2_3 
REMARK    2  A    between atoms: C5_6  and  C6_7 
REMARK    3  A    between atoms: C7_8  and  C8_9 
REMARK    4  A    between atoms: C11_12  and  C12_13 
REMARK    5  A    between atoms: C15_16  and  N1_17 
REMARK    6  A    between atoms: N2_26  and  C24_27 
REMARK    7  A    between atoms: C24_27  and  C25_28 
REMARK    8  A    between atoms: C25_28  and  C26_29 
REMARK    9  A    between atoms: C26_29  and  N3_30 
ROOT
HETATM    1  C6  UNL     1     -29.248  29.954  42.117  1.00  0.00     0.266 C 
HETATM    2  C7  UNL     1     -29.383  31.221  41.466  1.00  0.00     0.085 C 
HETATM    3  C23 UNL     1     -30.556  30.619  40.675  1.00  0.00     0.285 C 
HETATM    4  N2  UNL     1     -30.612  29.582  41.699  1.00  0.00     0.099 N 
ENDROOT
BRANCH   2   5
HETATM    5  C8  UNL     1     -28.450  31.903  40.604  1.00  0.00    -0.049 A 
HETATM    6  C9  UNL     1     -29.029  32.663  39.565  1.00  0.00     0.008 A 
HETATM    7  C10 UNL     1     -28.275  33.374  38.674  1.00  0.00     0.013 A 
HETATM    8  C11 UNL     1     -26.881  33.393  38.740  1.00  0.00    -0.020 A 
HETATM    9  C20 UNL     1     -26.310  32.655  39.749  1.00  0.00    -0.050 A 
HETATM   10  C21 UNL     1     -24.817  32.612  39.873  1.00  0.00     0.049 C 
HETATM   11  C22 UNL     1     -27.087  31.930  40.657  1.00  0.00     0.015 A 
BRANCH   8  12
HETATM   12  C12 UNL     1     -26.115  34.178  37.780  1.00  0.00    -0.025 A 
HETATM   13  C13 UNL     1     -25.791  35.473  38.079  1.00  0.00     0.014 A 
HETATM   14  C14 UNL     1     -25.069  36.254  37.213  1.00  0.00     0.030 A 
HETATM   15  C15 UNL     1     -24.671  35.695  36.017  1.00  0.00     0.029 A 
HETATM   16  C18 UNL     1     -24.984  34.386  35.688  1.00  0.00     0.030 A 
HETATM   17  C19 UNL     1     -25.712  33.644  36.591  1.00  0.00     0.014 A 
BRANCH  15  18
HETATM   18  N1  UNL     1     -23.930  36.528  35.148  1.00  0.00    -0.390 N 
HETATM   19  C16 UNL     1     -23.766  37.917  35.466  1.00  0.00     0.149 C 
HETATM   20  C17 UNL     1     -23.344  35.987  33.953  1.00  0.00     0.149 C 
ENDBRANCH  15  18
ENDBRANCH   8  12
ENDBRANCH   2   5
BRANCH   1  21
HETATM   21  C5  UNL     1     -28.347  28.874  41.823  1.00  0.00    -0.024 A 
HETATM   22  C4  UNL     1     -27.493  28.456  42.859  1.00  0.00     0.012 A 
HETATM   23  C3  UNL     1     -26.607  27.414  42.721  1.00  0.00     0.037 A 
HETATM   24  C2  UNL     1     -26.539  26.733  41.509  1.00  0.00     0.068 A 
HETATM   25  C30 UNL     1     -27.365  27.124  40.481  1.00  0.00     0.037 A 
HETATM   26  C29 UNL     1     -28.262  28.192  40.647  1.00  0.00     0.012 A 
BRANCH  24  27
HETATM   27  O1  UNL     1     -25.687  25.686  41.281  1.00  0.00    -0.356 OA
HETATM   28  C1  UNL     1     -24.365  25.558  41.700  1.00  0.00     0.210 C 
ENDBRANCH  24  27
ENDBRANCH   1  21
BRANCH   4  29
HETATM   29  C24 UNL     1     -31.632  29.831  42.703  1.00  0.00     0.275 C 
BRANCH  29  30
HETATM   30  C25 UNL     1     -32.108  28.488  43.207  1.00  0.00     0.060 C 
BRANCH  30  31
HETATM   31  C26 UNL     1     -31.242  28.016  44.359  1.00  0.00     0.273 C 
BRANCH  31  32
HETATM   32  N3  UNL     1     -30.962  26.576  44.268  1.00  0.00     0.080 N 
HETATM   33  C27 UNL     1     -29.841  26.353  45.196  1.00  0.00     0.309 C 
HETATM   34  C28 UNL     1     -30.467  26.203  42.966  1.00  0.00     0.309 C 
ENDBRANCH  31  32
ENDBRANCH  30  31
ENDBRANCH  29  30
ENDBRANCH   4  29
TORSDOF 9
ENDMDL
