MODEL 1
REMARK VINA RESULT: -6.089642150      0.000      0.000
REMARK  2 active torsions:
REMARK  status: ('A' for Active; 'I' for Inactive)
REMARK    1  A    between atoms: C7_9  and  C8_10 
REMARK    2  A    between atoms: C9_11  and  C10_12 
ROOT
HETATM    1  C1  UNL     1       6.744 -41.892   1.531  1.00  0.00     0.170 C 
HETATM    2  N1  UNL     1       5.442 -41.778   0.952  1.00  0.00    -0.273 N 
HETATM    3  C2  UNL     1       4.513 -40.851   1.433  1.00  0.00     0.095 C 
HETATM    4  C3  UNL     1       4.819 -39.635   1.821  1.00  0.00     0.027 C 
HETATM    5  C4  UNL     1       6.144 -39.014   1.830  1.00  0.00     0.128 C 
HETATM    6  S1  UNL     1       5.905 -37.191   1.696  1.00  0.00    -0.123 SA
HETATM    7  C5  UNL     1       5.121 -36.728   3.233  1.00  0.00     0.019 A 
HETATM    8  C6  UNL     1       5.570 -35.764   4.089  1.00  0.00     0.040 A 
HETATM    9  C7  UNL     1       4.900 -35.466   5.282  1.00  0.00     0.019 A 
HETATM   10  C15 UNL     1       3.760 -36.155   5.609  1.00  0.00     0.022 A 
HETATM   11  C16 UNL     1       3.269 -37.150   4.756  1.00  0.00     0.021 A 
HETATM   12  C17 UNL     1       3.955 -37.413   3.593  1.00  0.00     0.022 A 
HETATM   13  S2  UNL     1       3.425 -38.648   2.423  1.00  0.00    -0.090 SA
HETATM   14  S3  UNL     1       2.782 -41.390   1.464  1.00  0.00    -0.110 SA
HETATM   15  C18 UNL     1       2.473 -42.071  -0.211  1.00  0.00     0.097 C 
HETATM   16  C19 UNL     1       3.361 -43.257  -0.405  1.00  0.00     0.174 C 
HETATM   17  S4  UNL     1       5.088 -42.856  -0.367  1.00  0.00     0.233 S 
HETATM   18  O1  UNL     1       5.882 -44.126  -0.274  1.00  0.00    -0.205 OA
HETATM   19  O2  UNL     1       5.479 -42.157  -1.634  1.00  0.00    -0.205 OA
ENDROOT
BRANCH   9  20
HETATM   20  C8  UNL     1       5.405 -34.444   6.157  1.00  0.00    -0.061 C 
HETATM   21  C9  UNL     1       5.844 -33.583   6.880  1.00  0.00    -0.061 C 
BRANCH  21  22
HETATM   22  C10 UNL     1       6.356 -32.549   7.735  1.00  0.00     0.020 A 
HETATM   23  C11 UNL     1       5.930 -31.240   7.697  1.00  0.00     0.037 A 
HETATM   24  C12 UNL     1       6.449 -30.269   8.539  1.00  0.00     0.089 A 
HETATM   25  N2  UNL     1       7.393 -30.633   9.412  1.00  0.00    -0.375 N 
HETATM   26  C13 UNL     1       7.856 -31.882   9.509  1.00  0.00     0.089 A 
ATOM     27  H2  UNL     1       7.779 -29.923  10.035  1.00  0.00     0.164 HD
HETATM   28  C14 UNL     1       7.340 -32.843   8.671  1.00  0.00     0.037 A 
ENDBRANCH  21  22
ENDBRANCH   9  20
TORSDOF 2
ENDMDL
MODEL 2
REMARK VINA RESULT: -6.020051762      1.223      1.239
REMARK  2 active torsions:
REMARK  status: ('A' for Active; 'I' for Inactive)
REMARK    1  A    between atoms: C7_9  and  C8_10 
REMARK    2  A    between atoms: C9_11  and  C10_12 
ROOT
HETATM    1  C1  UNL     1       7.622 -41.356   1.886  1.00  0.00     0.170 C 
HETATM    2  N1  UNL     1       6.239 -41.705   1.794  1.00  0.00    -0.273 N 
HETATM    3  C2  UNL     1       5.272 -41.045   2.557  1.00  0.00     0.095 C 
HETATM    4  C3  UNL     1       5.281 -39.755   2.803  1.00  0.00     0.027 C 
HETATM    5  C4  UNL     1       6.263 -38.773   2.346  1.00  0.00     0.128 C 
HETATM    6  S1  UNL     1       5.423 -37.133   2.283  1.00  0.00    -0.123 SA
HETATM    7  C5  UNL     1       5.077 -36.742   3.992  1.00  0.00     0.019 A 
HETATM    8  C6  UNL     1       5.446 -35.593   4.630  1.00  0.00     0.040 A 
HETATM    9  C7  UNL     1       5.143 -35.366   5.977  1.00  0.00     0.019 A 
HETATM   10  C15 UNL     1       4.455 -36.318   6.687  1.00  0.00     0.022 A 
HETATM   11  C16 UNL     1       4.060 -37.509   6.067  1.00  0.00     0.021 A 
HETATM   12  C17 UNL     1       4.377 -37.694   4.741  1.00  0.00     0.022 A 
HETATM   13  S2  UNL     1       3.920 -39.163   3.841  1.00  0.00    -0.090 SA
HETATM   14  S3  UNL     1       3.915 -42.066   3.193  1.00  0.00    -0.110 SA
HETATM   15  C18 UNL     1       3.313 -43.005   1.736  1.00  0.00     0.097 C 
HETATM   16  C19 UNL     1       4.420 -43.887   1.258  1.00  0.00     0.174 C 
HETATM   17  S4  UNL     1       5.840 -42.990   0.691  1.00  0.00     0.233 S 
HETATM   18  O1  UNL     1       6.984 -43.945   0.516  1.00  0.00    -0.205 OA
HETATM   19  O2  UNL     1       5.551 -42.364  -0.640  1.00  0.00    -0.205 OA
ENDROOT
BRANCH   9  20
HETATM   20  C8  UNL     1       5.550 -34.143   6.612  1.00  0.00    -0.061 C 
HETATM   21  C9  UNL     1       5.910 -33.118   7.139  1.00  0.00    -0.061 C 
BRANCH  21  22
HETATM   22  C10 UNL     1       6.332 -31.892   7.755  1.00  0.00     0.020 A 
HETATM   23  C11 UNL     1       5.602 -30.724   7.721  1.00  0.00     0.037 A 
HETATM   24  C12 UNL     1       6.044 -29.558   8.328  1.00  0.00     0.089 A 
HETATM   25  N2  UNL     1       7.219 -29.587   8.964  1.00  0.00    -0.375 N 
HETATM   26  C13 UNL     1       7.982 -30.680   9.040  1.00  0.00     0.089 A 
ATOM     27  H2  UNL     1       7.550 -28.732   9.413  1.00  0.00     0.164 HD
HETATM   28  C14 UNL     1       7.542 -31.835   8.436  1.00  0.00     0.037 A 
ENDBRANCH  21  22
ENDBRANCH   9  20
TORSDOF 2
ENDMDL
MODEL 3
REMARK VINA RESULT: -5.888720118      5.356     12.307
REMARK  2 active torsions:
REMARK  status: ('A' for Active; 'I' for Inactive)
REMARK    1  A    between atoms: C7_9  and  C8_10 
REMARK    2  A    between atoms: C9_11  and  C10_12 
ROOT
HETATM    1  C1  UNL     1       7.019 -36.389  -0.638  1.00  0.00     0.170 C 
HETATM    2  N1  UNL     1       6.492 -36.693   0.656  1.00  0.00    -0.273 N 
HETATM    3  C2  UNL     1       5.262 -37.339   0.806  1.00  0.00     0.095 C 
HETATM    4  C3  UNL     1       4.843 -38.314   0.032  1.00  0.00     0.027 C 
HETATM    5  C4  UNL     1       5.547 -38.909  -1.104  1.00  0.00     0.128 C 
HETATM    6  S1  UNL     1       4.929 -40.635  -1.299  1.00  0.00    -0.123 SA
HETATM    7  C5  UNL     1       3.225 -40.445  -1.805  1.00  0.00     0.019 A 
HETATM    8  C6  UNL     1       2.664 -41.007  -2.915  1.00  0.00     0.040 A 
HETATM    9  C7  UNL     1       1.320 -40.803  -3.247  1.00  0.00     0.019 A 
HETATM   10  C15 UNL     1       0.535 -40.017  -2.442  1.00  0.00     0.022 A 
HETATM   11  C16 UNL     1       1.075 -39.423  -1.295  1.00  0.00     0.021 A 
HETATM   12  C17 UNL     1       2.401 -39.649  -1.002  1.00  0.00     0.022 A 
HETATM   13  S2  UNL     1       3.199 -38.958   0.433  1.00  0.00    -0.090 SA
HETATM   14  S3  UNL     1       4.231 -36.795   2.195  1.00  0.00    -0.110 SA
HETATM   15  C18 UNL     1       5.353 -36.815   3.647  1.00  0.00     0.097 C 
HETATM   16  C19 UNL     1       6.441 -35.818   3.411  1.00  0.00     0.174 C 
HETATM   17  S4  UNL     1       7.463 -36.207   2.016  1.00  0.00     0.233 S 
HETATM   18  O1  UNL     1       8.319 -35.019   1.690  1.00  0.00    -0.205 OA
HETATM   19  O2  UNL     1       8.370 -37.354   2.351  1.00  0.00    -0.205 OA
ENDROOT
BRANCH   9  20
HETATM   20  C8  UNL     1       0.767 -41.412  -4.425  1.00  0.00    -0.061 C 
HETATM   21  C9  UNL     1       0.314 -41.939  -5.413  1.00  0.00    -0.061 C 
BRANCH  21  22
HETATM   22  C10 UNL     1      -0.235 -42.570  -6.579  1.00  0.00     0.020 A 
HETATM   23  C11 UNL     1      -1.491 -42.303  -7.078  1.00  0.00     0.037 A 
HETATM   24  C12 UNL     1      -1.988 -42.934  -8.208  1.00  0.00     0.089 A 
HETATM   25  N2  UNL     1      -1.207 -43.828  -8.823  1.00  0.00    -0.375 N 
HETATM   26  C13 UNL     1       0.021 -44.139  -8.401  1.00  0.00     0.089 A 
ATOM     27  H2  UNL     1      -1.566 -44.295  -9.656  1.00  0.00     0.164 HD
HETATM   28  C14 UNL     1       0.511 -43.512  -7.278  1.00  0.00     0.037 A 
ENDBRANCH  21  22
ENDBRANCH   9  20
TORSDOF 2
ENDMDL
MODEL 4
REMARK VINA RESULT: -5.776377655      6.208      9.190
REMARK  2 active torsions:
REMARK  status: ('A' for Active; 'I' for Inactive)
REMARK    1  A    between atoms: C7_9  and  C8_10 
REMARK    2  A    between atoms: C9_11  and  C10_12 
ROOT
HETATM    1  C1  UNL     1       0.579 -43.512  -7.720  1.00  0.00     0.170 C 
HETATM    2  N1  UNL     1       0.121 -44.538  -6.837  1.00  0.00    -0.273 N 
HETATM    3  C2  UNL     1       0.635 -44.666  -5.544  1.00  0.00     0.095 C 
HETATM    4  C3  UNL     1       0.924 -43.651  -4.763  1.00  0.00     0.027 C 
HETATM    5  C4  UNL     1       0.773 -42.228  -5.065  1.00  0.00     0.128 C 
HETATM    6  S1  UNL     1       0.560 -41.338  -3.465  1.00  0.00    -0.123 SA
HETATM    7  C5  UNL     1       2.137 -41.514  -2.642  1.00  0.00     0.019 A 
HETATM    8  C6  UNL     1       2.891 -40.487  -2.154  1.00  0.00     0.040 A 
HETATM    9  C7  UNL     1       4.123 -40.708  -1.528  1.00  0.00     0.019 A 
HETATM   10  C15 UNL     1       4.595 -41.989  -1.395  1.00  0.00     0.022 A 
HETATM   11  C16 UNL     1       3.849 -43.069  -1.883  1.00  0.00     0.021 A 
HETATM   12  C17 UNL     1       2.643 -42.810  -2.492  1.00  0.00     0.022 A 
HETATM   13  S2  UNL     1       1.599 -44.099  -3.143  1.00  0.00    -0.090 SA
HETATM   14  S3  UNL     1       0.860 -46.358  -4.932  1.00  0.00    -0.110 SA
HETATM   15  C18 UNL     1      -0.738 -47.195  -5.268  1.00  0.00     0.097 C 
HETATM   16  C19 UNL     1      -0.949 -47.223  -6.747  1.00  0.00     0.174 C 
HETATM   17  S4  UNL     1      -1.096 -45.610  -7.468  1.00  0.00     0.233 S 
HETATM   18  O1  UNL     1      -1.008 -45.732  -8.961  1.00  0.00    -0.205 OA
HETATM   19  O2  UNL     1      -2.432 -45.019  -7.129  1.00  0.00    -0.205 OA
ENDROOT
BRANCH   9  20
HETATM   20  C8  UNL     1       4.888 -39.599  -1.028  1.00  0.00    -0.061 C 
HETATM   21  C9  UNL     1       5.532 -38.675  -0.591  1.00  0.00    -0.061 C 
BRANCH  21  22
HETATM   22  C10 UNL     1       6.309 -37.584  -0.077  1.00  0.00     0.020 A 
HETATM   23  C11 UNL     1       7.205 -36.857  -0.829  1.00  0.00     0.037 A 
HETATM   24  C12 UNL     1       7.939 -35.809  -0.296  1.00  0.00     0.089 A 
HETATM   25  N2  UNL     1       7.756 -35.505   0.993  1.00  0.00    -0.375 N 
HETATM   26  C13 UNL     1       6.906 -36.162   1.785  1.00  0.00     0.089 A 
ATOM     27  H2  UNL     1       8.293 -34.733   1.391  1.00  0.00     0.164 HD
HETATM   28  C14 UNL     1       6.180 -37.203   1.254  1.00  0.00     0.037 A 
ENDBRANCH  21  22
ENDBRANCH   9  20
TORSDOF 2
ENDMDL
MODEL 5
REMARK VINA RESULT: -5.462542175      9.290     12.312
REMARK  2 active torsions:
REMARK  status: ('A' for Active; 'I' for Inactive)
REMARK    1  A    between atoms: C7_9  and  C8_10 
REMARK    2  A    between atoms: C9_11  and  C10_12 
ROOT
HETATM    1  C1  UNL     1      -1.736 -34.580  -5.363  1.00  0.00     0.170 C 
HETATM    2  N1  UNL     1      -2.207 -35.366  -6.460  1.00  0.00    -0.273 N 
HETATM    3  C2  UNL     1      -1.597 -36.576  -6.801  1.00  0.00     0.095 C 
HETATM    4  C3  UNL     1      -1.152 -37.449  -5.926  1.00  0.00     0.027 C 
HETATM    5  C4  UNL     1      -1.199 -37.345  -4.468  1.00  0.00     0.128 C 
HETATM    6  S1  UNL     1      -1.193 -39.058  -3.788  1.00  0.00    -0.123 SA
HETATM    7  C5  UNL     1       0.426 -39.695  -4.195  1.00  0.00     0.019 A 
HETATM    8  C6  UNL     1       1.310 -40.234  -3.305  1.00  0.00     0.040 A 
HETATM    9  C7  UNL     1       2.566 -40.705  -3.704  1.00  0.00     0.019 A 
HETATM   10  C15 UNL     1       2.930 -40.627  -5.025  1.00  0.00     0.022 A 
HETATM   11  C16 UNL     1       2.051 -40.081  -5.967  1.00  0.00     0.021 A 
HETATM   12  C17 UNL     1       0.825 -39.630  -5.535  1.00  0.00     0.022 A 
HETATM   13  S2  UNL     1      -0.383 -38.925  -6.639  1.00  0.00    -0.090 SA
HETATM   14  S3  UNL     1      -1.473 -36.944  -8.572  1.00  0.00    -0.110 SA
HETATM   15  C18 UNL     1      -3.163 -36.661  -9.229  1.00  0.00     0.097 C 
HETATM   16  C19 UNL     1      -3.502 -35.218  -9.041  1.00  0.00     0.174 C 
HETATM   17  S4  UNL     1      -3.565 -34.726  -7.339  1.00  0.00     0.233 S 
HETATM   18  O1  UNL     1      -3.618 -33.228  -7.266  1.00  0.00    -0.205 OA
HETATM   19  O2  UNL     1      -4.809 -35.265  -6.697  1.00  0.00    -0.205 OA
ENDROOT
BRANCH   9  20
HETATM   20  C8  UNL     1       3.468 -41.264  -2.736  1.00  0.00    -0.061 C 
HETATM   21  C9  UNL     1       4.221 -41.752  -1.927  1.00  0.00    -0.061 C 
BRANCH  21  22
HETATM   22  C10 UNL     1       5.126 -42.330  -0.976  1.00  0.00     0.020 A 
HETATM   23  C11 UNL     1       6.028 -41.602  -0.231  1.00  0.00     0.037 A 
HETATM   24  C12 UNL     1       6.888 -42.196   0.678  1.00  0.00     0.089 A 
HETATM   25  N2  UNL     1       6.826 -43.524   0.827  1.00  0.00    -0.375 N 
HETATM   26  C13 UNL     1       5.979 -44.297   0.143  1.00  0.00     0.089 A 
ATOM     27  H2  UNL     1       7.456 -43.967   1.496  1.00  0.00     0.164 HD
HETATM   28  C14 UNL     1       5.127 -43.704  -0.760  1.00  0.00     0.037 A 
ENDBRANCH  21  22
ENDBRANCH   9  20
TORSDOF 2
ENDMDL
