MODEL 1
REMARK VINA RESULT: -8.108519277      0.000      0.000
REMARK  2 active torsions:
REMARK  status: ('A' for Active; 'I' for Inactive)
REMARK    1  A    between atoms: C2_2  and  C5_5 
REMARK    2  A    between atoms: C7_12  and  O1_13 
ROOT
HETATM    1  C5  UNL     1       4.405 -42.968   1.111  1.00  0.00     0.028 A 
HETATM    2  C6  UNL     1       5.134 -43.520   0.105  1.00  0.00     0.056 A 
HETATM    3  N1  UNL     1       5.932 -42.614  -0.606  1.00  0.00    -0.288 N 
ATOM      4  H1  UNL     1       6.503 -42.956  -1.380  1.00  0.00     0.188 HD
HETATM    5  N2  UNL     1       5.962 -41.447  -0.332  1.00  0.00    -0.233 N 
ATOM      6  H2  UNL     1       6.575 -40.876  -0.914  1.00  0.00     0.209 HD
HETATM    7  N3  UNL     1       5.300 -40.784   0.638  1.00  0.00    -0.215 N 
HETATM    8  C7  UNL     1       4.534 -41.567   1.338  1.00  0.00     0.172 A 
HETATM    9  C8  UNL     1       5.785 -39.423   0.605  1.00  0.00     0.110 A 
HETATM   10  C9  UNL     1       5.280 -38.293   0.041  1.00  0.00     0.123 A 
HETATM   11  N4  UNL     1       5.835 -37.073   0.027  1.00  0.00    -0.363 N 
ATOM     12  H4  UNL     1       5.370 -36.286  -0.425  1.00  0.00     0.165 HD
HETATM   13  C10 UNL     1       7.016 -36.924   0.625  1.00  0.00     0.045 A 
HETATM   14  C11 UNL     1       7.657 -35.696   0.649  1.00  0.00     0.030 A 
HETATM   15  C12 UNL     1       8.874 -35.574   1.268  1.00  0.00     0.002 A 
HETATM   16  C13 UNL     1       9.491 -36.641   1.875  1.00  0.00     0.001 A 
HETATM   17  C14 UNL     1       8.856 -37.837   1.847  1.00  0.00     0.017 A 
HETATM   18  C15 UNL     1       7.597 -38.004   1.217  1.00  0.00     0.027 A 
HETATM   19  C16 UNL     1       7.051 -39.286   1.254  1.00  0.00     0.117 A 
HETATM   20  O2  UNL     1       7.664 -40.323   1.861  1.00  0.00    -0.319 OA
HETATM   21  C17 UNL     1       7.643 -41.378   2.672  1.00  0.00     0.144 C 
HETATM   22  C18 UNL     1       7.984 -42.653   2.556  1.00  0.00     0.041 C 
HETATM   23  C19 UNL     1       8.525 -43.492   1.519  1.00  0.00     0.091 C 
HETATM   24  N5  UNL     1       8.150 -44.578   1.019  1.00  0.00    -0.352 N 
ATOM     25  H5  UNL     1       8.867 -44.764   0.318  1.00  0.00     0.166 HD
HETATM   26  C20 UNL     1       7.323 -45.640   0.893  1.00  0.00     0.107 A 
HETATM   27  C21 UNL     1       7.718 -46.835   1.549  1.00  0.00     0.049 A 
HETATM   28  C22 UNL     1       7.040 -48.015   1.533  1.00  0.00     0.005 A 
HETATM   29  C23 UNL     1       5.873 -48.092   0.835  1.00  0.00     0.017 A 
HETATM   30  C24 UNL     1       5.468 -46.964   0.195  1.00  0.00     0.093 A 
HETATM   31  N6  UNL     1       6.144 -45.767   0.205  1.00  0.00    -0.338 N 
HETATM   32  C25 UNL     1       5.499 -44.757  -0.591  1.00  0.00     0.189 C 
ENDROOT
BRANCH   1  33
HETATM   33  C2  UNL     1       3.443 -43.673   2.055  1.00  0.00    -0.018 C 
HETATM   34  C1  UNL     1       4.152 -44.475   3.143  1.00  0.00     0.019 C 
HETATM   35  C3  UNL     1       2.623 -44.754   1.295  1.00  0.00     0.019 C 
HETATM   36  C4  UNL     1       2.365 -42.842   2.643  1.00  0.00     0.019 C 
ENDBRANCH   1  33
BRANCH   8  37
HETATM   37  O1  UNL     1       3.793 -41.149   2.348  1.00  0.00    -0.344 OA
ATOM     38  H1  UNL     1       4.242 -40.509   2.887  1.00  0.00     0.219 HD
ENDBRANCH   8  37
TORSDOF 2
ENDMDL
MODEL 2
REMARK VINA RESULT: -8.084972157      2.939      5.560
REMARK  2 active torsions:
REMARK  status: ('A' for Active; 'I' for Inactive)
REMARK    1  A    between atoms: C2_2  and  C5_5 
REMARK    2  A    between atoms: C7_12  and  O1_13 
ROOT
HETATM    1  C5  UNL     1       6.971 -39.684   1.330  1.00  0.00     0.028 A 
HETATM    2  C6  UNL     1       6.504 -40.573   2.246  1.00  0.00     0.056 A 
HETATM    3  N1  UNL     1       5.174 -40.368   2.638  1.00  0.00    -0.288 N 
ATOM      4  H1  UNL     1       4.758 -40.995   3.327  1.00  0.00     0.188 HD
HETATM    5  N2  UNL     1       4.513 -39.477   2.186  1.00  0.00    -0.233 N 
ATOM      6  H2  UNL     1       3.558 -39.417   2.541  1.00  0.00     0.209 HD
HETATM    7  N3  UNL     1       4.853 -38.543   1.275  1.00  0.00    -0.215 N 
HETATM    8  C7  UNL     1       6.081 -38.671   0.869  1.00  0.00     0.172 A 
HETATM    9  C8  UNL     1       3.653 -37.785   1.001  1.00  0.00     0.110 A 
HETATM   10  C9  UNL     1       3.207 -36.588   1.472  1.00  0.00     0.123 A 
HETATM   11  N4  UNL     1       2.045 -35.985   1.188  1.00  0.00    -0.363 N 
ATOM     12  H4  UNL     1       1.805 -35.082   1.596  1.00  0.00     0.165 HD
HETATM   13  C10 UNL     1       1.213 -36.606   0.353  1.00  0.00     0.045 A 
HETATM   14  C11 UNL     1      -0.010 -36.050   0.015  1.00  0.00     0.030 A 
HETATM   15  C12 UNL     1      -0.848 -36.715  -0.844  1.00  0.00     0.002 A 
HETATM   16  C13 UNL     1      -0.513 -37.932  -1.388  1.00  0.00     0.001 A 
HETATM   17  C14 UNL     1       0.684 -38.467  -1.050  1.00  0.00     0.017 A 
HETATM   18  C15 UNL     1       1.578 -37.811  -0.167  1.00  0.00     0.027 A 
HETATM   19  C16 UNL     1       2.777 -38.468   0.102  1.00  0.00     0.117 A 
HETATM   20  O2  UNL     1       3.095 -39.660  -0.446  1.00  0.00    -0.319 OA
HETATM   21  C17 UNL     1       3.954 -40.467  -1.064  1.00  0.00     0.144 C 
HETATM   22  C18 UNL     1       4.441 -41.675  -0.821  1.00  0.00     0.041 C 
HETATM   23  C19 UNL     1       4.282 -42.671   0.205  1.00  0.00     0.091 C 
HETATM   24  N5  UNL     1       5.099 -43.284   0.931  1.00  0.00    -0.352 N 
ATOM     25  H5  UNL     1       4.495 -43.880   1.498  1.00  0.00     0.166 HD
HETATM   26  C20 UNL     1       6.336 -43.595   1.380  1.00  0.00     0.107 A 
HETATM   27  C21 UNL     1       6.927 -44.773   0.852  1.00  0.00     0.049 A 
HETATM   28  C22 UNL     1       8.150 -45.268   1.183  1.00  0.00     0.005 A 
HETATM   29  C23 UNL     1       8.903 -44.599   2.100  1.00  0.00     0.017 A 
HETATM   30  C24 UNL     1       8.364 -43.468   2.625  1.00  0.00     0.093 A 
HETATM   31  N6  UNL     1       7.130 -42.958   2.297  1.00  0.00    -0.338 N 
HETATM   32  C25 UNL     1       6.805 -41.768   3.039  1.00  0.00     0.189 C 
ENDROOT
BRANCH   1  33
HETATM   33  C2  UNL     1       8.361 -39.629   0.715  1.00  0.00    -0.018 C 
HETATM   34  C1  UNL     1       8.719 -40.890  -0.067  1.00  0.00     0.019 C 
HETATM   35  C3  UNL     1       9.450 -39.578   1.823  1.00  0.00     0.019 C 
HETATM   36  C4  UNL     1       8.686 -38.418  -0.078  1.00  0.00     0.019 C 
ENDBRANCH   1  33
BRANCH   8  37
HETATM   37  O1  UNL     1       6.639 -37.878  -0.028  1.00  0.00    -0.344 OA
ATOM     38  H1  UNL     1       6.934 -37.057   0.348  1.00  0.00     0.219 HD
ENDBRANCH   8  37
TORSDOF 2
ENDMDL
MODEL 3
REMARK VINA RESULT: -7.877715102      2.199      7.690
REMARK  2 active torsions:
REMARK  status: ('A' for Active; 'I' for Inactive)
REMARK    1  A    between atoms: C2_2  and  C5_5 
REMARK    2  A    between atoms: C7_12  and  O1_13 
ROOT
HETATM    1  C5  UNL     1       7.472 -41.579   1.271  1.00  0.00     0.028 A 
HETATM    2  C6  UNL     1       7.422 -40.603   0.326  1.00  0.00     0.056 A 
HETATM    3  N1  UNL     1       6.569 -40.874  -0.753  1.00  0.00    -0.288 N 
ATOM      4  H1  UNL     1       6.485 -40.188  -1.504  1.00  0.00     0.188 HD
HETATM    5  N2  UNL     1       5.937 -41.890  -0.818  1.00  0.00    -0.233 N 
ATOM      6  H2  UNL     1       5.350 -41.988  -1.647  1.00  0.00     0.209 HD
HETATM    7  N3  UNL     1       5.893 -42.922   0.049  1.00  0.00    -0.215 N 
HETATM    8  C7  UNL     1       6.668 -42.738   1.076  1.00  0.00     0.172 A 
HETATM    9  C8  UNL     1       4.889 -43.833  -0.452  1.00  0.00     0.110 A 
HETATM   10  C9  UNL     1       4.984 -44.975  -1.187  1.00  0.00     0.123 A 
HETATM   11  N4  UNL     1       3.977 -45.731  -1.645  1.00  0.00    -0.363 N 
ATOM     12  H4  UNL     1       4.156 -46.575  -2.189  1.00  0.00     0.165 HD
HETATM   13  C10 UNL     1       2.734 -45.344  -1.365  1.00  0.00     0.045 A 
HETATM   14  C11 UNL     1       1.640 -46.070  -1.808  1.00  0.00     0.030 A 
HETATM   15  C12 UNL     1       0.372 -45.644  -1.508  1.00  0.00     0.002 A 
HETATM   16  C13 UNL     1       0.142 -44.506  -0.773  1.00  0.00     0.001 A 
HETATM   17  C14 UNL     1       1.218 -43.803  -0.344  1.00  0.00     0.017 A 
HETATM   18  C15 UNL     1       2.545 -44.211  -0.633  1.00  0.00     0.027 A 
HETATM   19  C16 UNL     1       3.564 -43.399  -0.138  1.00  0.00     0.117 A 
HETATM   20  O2  UNL     1       3.324 -42.289   0.589  1.00  0.00    -0.319 OA
HETATM   21  C17 UNL     1       3.561 -41.511   1.643  1.00  0.00     0.144 C 
HETATM   22  C18 UNL     1       3.880 -40.236   1.811  1.00  0.00     0.041 C 
HETATM   23  C19 UNL     1       4.125 -39.106   0.954  1.00  0.00     0.091 C 
HETATM   24  N5  UNL     1       5.081 -38.302   0.856  1.00  0.00    -0.352 N 
ATOM     25  H5  UNL     1       4.782 -37.685   0.100  1.00  0.00     0.166 HD
HETATM   26  C20 UNL     1       6.288 -37.798   1.196  1.00  0.00     0.107 A 
HETATM   27  C21 UNL     1       6.287 -36.669   2.056  1.00  0.00     0.049 A 
HETATM   28  C22 UNL     1       7.387 -36.004   2.502  1.00  0.00     0.005 A 
HETATM   29  C23 UNL     1       8.618 -36.433   2.105  1.00  0.00     0.017 A 
HETATM   30  C24 UNL     1       8.653 -37.511   1.279  1.00  0.00     0.093 A 
HETATM   31  N6  UNL     1       7.548 -38.191   0.825  1.00  0.00    -0.338 N 
HETATM   32  C25 UNL     1       7.886 -39.269  -0.067  1.00  0.00     0.189 C 
ENDROOT
BRANCH   1  33
HETATM   33  C2  UNL     1       8.300 -41.592   2.547  1.00  0.00    -0.018 C 
HETATM   34  C1  UNL     1       7.542 -41.052   3.757  1.00  0.00     0.019 C 
HETATM   35  C3  UNL     1       9.511 -40.625   2.426  1.00  0.00     0.019 C 
HETATM   36  C4  UNL     1       8.973 -42.870   2.885  1.00  0.00     0.019 C 
ENDBRANCH   1  33
BRANCH   8  37
HETATM   37  O1  UNL     1       6.787 -43.607   2.064  1.00  0.00    -0.344 OA
ATOM     38  H1  UNL     1       6.002 -44.128   2.186  1.00  0.00     0.219 HD
ENDBRANCH   8  37
TORSDOF 2
ENDMDL
MODEL 4
REMARK VINA RESULT: -7.445204335      2.145      4.107
REMARK  2 active torsions:
REMARK  status: ('A' for Active; 'I' for Inactive)
REMARK    1  A    between atoms: C2_2  and  C5_5 
REMARK    2  A    between atoms: C7_12  and  O1_13 
ROOT
HETATM    1  C5  UNL     1       6.032 -44.428   1.738  1.00  0.00     0.028 A 
HETATM    2  C6  UNL     1       4.932 -44.067   2.451  1.00  0.00     0.056 A 
HETATM    3  N1  UNL     1       4.873 -42.708   2.788  1.00  0.00    -0.288 N 
ATOM      4  H1  UNL     1       4.077 -42.364   3.328  1.00  0.00     0.188 HD
HETATM    5  N2  UNL     1       5.731 -41.938   2.461  1.00  0.00    -0.233 N 
ATOM      6  H2  UNL     1       5.590 -40.972   2.760  1.00  0.00     0.209 HD
HETATM    7  N3  UNL     1       6.855 -42.167   1.753  1.00  0.00    -0.215 N 
HETATM    8  C7  UNL     1       6.977 -43.415   1.409  1.00  0.00     0.172 A 
HETATM    9  C8  UNL     1       7.475 -40.878   1.543  1.00  0.00     0.110 A 
HETATM   10  C9  UNL     1       8.490 -40.243   2.190  1.00  0.00     0.123 A 
HETATM   11  N4  UNL     1       8.966 -39.014   1.945  1.00  0.00    -0.363 N 
ATOM     12  H4  UNL     1       9.736 -38.628   2.491  1.00  0.00     0.165 HD
HETATM   13  C10 UNL     1       8.400 -38.315   0.963  1.00  0.00     0.045 A 
HETATM   14  C11 UNL     1       8.832 -37.036   0.652  1.00  0.00     0.030 A 
HETATM   15  C12 UNL     1       8.227 -36.339  -0.362  1.00  0.00     0.002 A 
HETATM   16  C13 UNL     1       7.191 -36.870  -1.091  1.00  0.00     0.001 A 
HETATM   17  C14 UNL     1       6.775 -38.121  -0.779  1.00  0.00     0.017 A 
HETATM   18  C15 UNL     1       7.375 -38.874   0.261  1.00  0.00     0.027 A 
HETATM   19  C16 UNL     1       6.854 -40.148   0.485  1.00  0.00     0.117 A 
HETATM   20  O2  UNL     1       5.841 -40.659  -0.245  1.00  0.00    -0.319 OA
HETATM   21  C17 UNL     1       5.290 -41.651  -0.941  1.00  0.00     0.144 C 
HETATM   22  C18 UNL     1       4.138 -42.303  -0.887  1.00  0.00     0.041 C 
HETATM   23  C19 UNL     1       2.958 -42.258  -0.066  1.00  0.00     0.091 C 
HETATM   24  N5  UNL     1       2.341 -43.130   0.590  1.00  0.00    -0.352 N 
ATOM     25  H5  UNL     1       1.572 -42.602   1.003  1.00  0.00     0.166 HD
HETATM   26  C20 UNL     1       2.129 -44.383   1.053  1.00  0.00     0.107 A 
HETATM   27  C21 UNL     1       1.164 -45.161   0.363  1.00  0.00     0.049 A 
HETATM   28  C22 UNL     1       0.792 -46.432   0.677  1.00  0.00     0.005 A 
HETATM   29  C23 UNL     1       1.378 -47.042   1.744  1.00  0.00     0.017 A 
HETATM   30  C24 UNL     1       2.307 -46.323   2.426  1.00  0.00     0.093 A 
HETATM   31  N6  UNL     1       2.691 -45.039   2.117  1.00  0.00    -0.338 N 
HETATM   32  C25 UNL     1       3.665 -44.513   3.037  1.00  0.00     0.189 C 
ENDROOT
BRANCH   1  33
HETATM   33  C2  UNL     1       6.394 -45.816   1.231  1.00  0.00    -0.018 C 
HETATM   34  C1  UNL     1       5.809 -46.121  -0.146  1.00  0.00     0.019 C 
HETATM   35  C3  UNL     1       5.762 -46.913   2.135  1.00  0.00     0.019 C 
HETATM   36  C4  UNL     1       7.830 -46.184   1.278  1.00  0.00     0.019 C 
ENDBRANCH   1  33
BRANCH   8  37
HETATM   37  O1  UNL     1       7.993 -43.881   0.704  1.00  0.00    -0.344 OA
ATOM     38  H1  UNL     1       7.920 -43.669  -0.219  1.00  0.00     0.219 HD
ENDBRANCH   8  37
TORSDOF 2
ENDMDL
MODEL 5
REMARK VINA RESULT: -7.382710885      2.970      7.798
REMARK  2 active torsions:
REMARK  status: ('A' for Active; 'I' for Inactive)
REMARK    1  A    between atoms: C2_2  and  C5_5 
REMARK    2  A    between atoms: C7_12  and  O1_13 
ROOT
HETATM    1  C5  UNL     1       6.819 -40.593  -0.001  1.00  0.00     0.028 A 
HETATM    2  C6  UNL     1       6.598 -39.398  -0.609  1.00  0.00     0.056 A 
HETATM    3  N1  UNL     1       5.408 -39.327  -1.348  1.00  0.00    -0.288 N 
ATOM      4  H1  UNL     1       5.178 -38.461  -1.837  1.00  0.00     0.188 HD
HETATM    5  N2  UNL     1       4.654 -40.255  -1.422  1.00  0.00    -0.233 N 
ATOM      6  H2  UNL     1       3.819 -40.098  -1.986  1.00  0.00     0.209 HD
HETATM    7  N3  UNL     1       4.754 -41.479  -0.863  1.00  0.00    -0.215 N 
HETATM    8  C7  UNL     1       5.841 -41.616  -0.164  1.00  0.00     0.172 A 
HETATM    9  C8  UNL     1       3.524 -42.170  -1.174  1.00  0.00     0.110 A 
HETATM   10  C9  UNL     1       3.210 -43.076  -2.140  1.00  0.00     0.123 A 
HETATM   11  N4  UNL     1       2.013 -43.631  -2.376  1.00  0.00    -0.363 N 
ATOM     12  H4  UNL     1       1.883 -44.305  -3.130  1.00  0.00     0.165 HD
HETATM   13  C10 UNL     1       0.999 -43.272  -1.592  1.00  0.00     0.045 A 
HETATM   14  C11 UNL     1      -0.270 -43.796  -1.776  1.00  0.00     0.030 A 
HETATM   15  C12 UNL     1      -1.296 -43.405  -0.954  1.00  0.00     0.002 A 
HETATM   16  C13 UNL     1      -1.109 -42.496   0.059  1.00  0.00     0.001 A 
HETATM   17  C14 UNL     1       0.135 -41.989   0.230  1.00  0.00     0.017 A 
HETATM   18  C15 UNL     1       1.222 -42.369  -0.597  1.00  0.00     0.027 A 
HETATM   19  C16 UNL     1       2.451 -41.772  -0.319  1.00  0.00     0.117 A 
HETATM   20  O2  UNL     1       2.621 -40.887   0.685  1.00  0.00    -0.319 OA
HETATM   21  C17 UNL     1       3.298 -40.434   1.738  1.00  0.00     0.144 C 
HETATM   22  C18 UNL     1       3.830 -39.268   2.075  1.00  0.00     0.041 C 
HETATM   23  C19 UNL     1       3.935 -37.963   1.478  1.00  0.00     0.091 C 
HETATM   24  N5  UNL     1       4.908 -37.210   1.239  1.00  0.00    -0.352 N 
ATOM     25  H5  UNL     1       4.466 -36.400   0.806  1.00  0.00     0.166 HD
HETATM   26  C20 UNL     1       6.218 -36.877   1.238  1.00  0.00     0.107 A 
HETATM   27  C21 UNL     1       6.658 -36.022   2.282  1.00  0.00     0.049 A 
HETATM   28  C22 UNL     1       7.926 -35.557   2.451  1.00  0.00     0.005 A 
HETATM   29  C23 UNL     1       8.884 -35.923   1.555  1.00  0.00     0.017 A 
HETATM   30  C24 UNL     1       8.494 -36.741   0.542  1.00  0.00     0.093 A 
HETATM   31  N6  UNL     1       7.217 -37.218   0.363  1.00  0.00    -0.338 N 
HETATM   32  C25 UNL     1       7.088 -38.032  -0.817  1.00  0.00     0.189 C 
ENDROOT
BRANCH   1  33
HETATM   33  C2  UNL     1       8.010 -40.990   0.858  1.00  0.00    -0.018 C 
HETATM   34  C1  UNL     1       8.049 -40.263   2.200  1.00  0.00     0.019 C 
HETATM   35  C3  UNL     1       9.342 -40.558   0.182  1.00  0.00     0.019 C 
HETATM   36  C4  UNL     1       8.231 -42.444   1.049  1.00  0.00     0.019 C 
ENDBRANCH   1  33
BRANCH   8  37
HETATM   37  O1  UNL     1       6.156 -42.723   0.484  1.00  0.00    -0.344 OA
ATOM     38  H1  UNL     1       5.967 -43.505  -0.021  1.00  0.00     0.219 HD
ENDBRANCH   8  37
TORSDOF 2
ENDMDL
