MODEL 1
REMARK VINA RESULT: -8.578810306      0.000      0.000
REMARK  4 active torsions:
REMARK  status: ('A' for Active; 'I' for Inactive)
REMARK    1  A    between atoms: C2_2  and  O2_4 
REMARK    2  A    between atoms: O2_4  and  C3_5 
REMARK    3  A    between atoms: C3_5  and  C4_6 
REMARK    4  A    between atoms: C5_7  and  C6_8 
ROOT
HETATM    1  C6  UNL     1       2.832 -42.592  -2.766  1.00  0.00     0.084 A 
HETATM    2  C7  UNL     1       3.078 -43.621  -1.855  1.00  0.00     0.115 A 
HETATM    3  N1  UNL     1       3.790 -43.420  -0.743  1.00  0.00    -0.359 N 
HETATM    4  C8  UNL     1       4.099 -44.456   0.222  1.00  0.00     0.156 C 
HETATM    5  C9  UNL     1       4.324 -42.203  -0.423  1.00  0.00     0.041 A 
HETATM    6  C10 UNL     1       4.972 -41.952   0.706  1.00  0.00     0.012 A 
HETATM    7  C11 UNL     1       5.444 -40.482   0.961  1.00  0.00     0.057 A 
HETATM    8  C12 UNL     1       5.234 -40.243   0.417  1.00  0.00     0.063 A 
HETATM    9  N2  UNL     1       4.138 -38.880   1.345  1.00  0.00    -0.345 N 
ATOM     10  H2  UNL     1       3.202 -38.635   1.020  1.00  0.00     0.163 HD
HETATM   11  C13 UNL     1       4.676 -38.300   2.410  1.00  0.00     0.253 C 
HETATM   12  O3  UNL     1       4.358 -38.408   3.597  1.00  0.00    -0.268 OA
HETATM   13  C14 UNL     1       5.779 -37.386   2.266  1.00  0.00     0.043 A 
HETATM   14  C15 UNL     1       6.008 -36.697   3.337  1.00  0.00     0.018 A 
HETATM   15  C16 UNL     1       7.004 -35.706   3.227  1.00  0.00     0.002 A 
HETATM   16  C17 UNL     1       7.662 -35.538   1.988  1.00  0.00     0.012 A 
HETATM   17  C18 UNL     1       7.383 -36.303   0.862  1.00  0.00    -0.024 A 
HETATM   18  C19 UNL     1       8.000 -36.150  -0.368  1.00  0.00     0.012 A 
HETATM   19  C20 UNL     1       7.614 -36.982  -1.430  1.00  0.00     0.001 A 
HETATM   20  C21 UNL     1       6.663 -37.940  -1.329  1.00  0.00     0.009 A 
HETATM   21  C22 UNL     1       6.047 -38.082  -0.076  1.00  0.00    -0.033 A 
HETATM   22  C23 UNL     1       6.421 -37.256   0.990  1.00  0.00    -0.003 A 
HETATM   23  C24 UNL     1       5.270 -39.171  -0.245  1.00  0.00     0.034 A 
HETATM   24  C25 UNL     1       4.653 -39.970  -0.856  1.00  0.00     0.071 A 
HETATM   25  C26 UNL     1       4.103 -41.151  -1.314  1.00  0.00     0.028 A 
HETATM   26  C27 UNL     1       3.379 -41.376  -2.435  1.00  0.00     0.201 A 
HETATM   27  O4  UNL     1       3.185 -40.418  -3.236  1.00  0.00    -0.286 OA
ENDROOT
BRANCH   1  28
HETATM   28  C5  UNL     1       1.976 -42.839  -3.885  1.00  0.00    -0.059 C 
HETATM   29  C4  UNL     1       1.281 -43.011  -4.851  1.00  0.00    -0.074 C 
BRANCH  29  30
HETATM   30  C3  UNL     1       0.438 -43.179  -6.059  1.00  0.00     0.272 C 
BRANCH  30  31
HETATM   31  O2  UNL     1       1.040 -42.514  -7.149  1.00  0.00    -0.310 OA
BRANCH  31  32
HETATM   32  C2  UNL     1       1.761 -41.362  -6.969  1.00  0.00     0.255 C 
HETATM   33  C1  UNL     1       1.203 -40.047  -6.562  1.00  0.00     0.126 C 
HETATM   34  O1  UNL     1       3.027 -41.405  -7.172  1.00  0.00    -0.266 OA
ENDBRANCH  31  32
ENDBRANCH  30  31
ENDBRANCH  29  30
ENDBRANCH   1  28
TORSDOF 4
ENDMDL
MODEL 2
REMARK VINA RESULT: -8.214973934      1.059      1.561
REMARK  4 active torsions:
REMARK  status: ('A' for Active; 'I' for Inactive)
REMARK    1  A    between atoms: C2_2  and  O2_4 
REMARK    2  A    between atoms: O2_4  and  C3_5 
REMARK    3  A    between atoms: C3_5  and  C4_6 
REMARK    4  A    between atoms: C5_7  and  C6_8 
ROOT
HETATM    1  C6  UNL     1       2.557 -42.248  -3.206  1.00  0.00     0.084 A 
HETATM    2  C7  UNL     1       2.702 -43.317  -2.321  1.00  0.00     0.115 A 
HETATM    3  N1  UNL     1       3.376 -43.195  -1.174  1.00  0.00    -0.359 N 
HETATM    4  C8  UNL     1       3.580 -44.278  -0.232  1.00  0.00     0.156 C 
HETATM    5  C9  UNL     1       3.966 -42.023  -0.790  1.00  0.00     0.041 A 
HETATM    6  C10 UNL     1       4.578 -41.847   0.373  1.00  0.00     0.012 A 
HETATM    7  C11 UNL     1       5.123 -40.417   0.697  1.00  0.00     0.057 A 
HETATM    8  C12 UNL     1       4.952 -40.149   0.154  1.00  0.00     0.063 A 
HETATM    9  N2  UNL     1       3.898 -38.753   1.081  1.00  0.00    -0.345 N 
ATOM     10  H2  UNL     1       2.993 -38.442   0.726  1.00  0.00     0.163 HD
HETATM   11  C13 UNL     1       4.422 -38.241   2.186  1.00  0.00     0.253 C 
HETATM   12  O3  UNL     1       4.047 -38.367   3.355  1.00  0.00    -0.268 OA
HETATM   13  C14 UNL     1       5.582 -37.391   2.120  1.00  0.00     0.043 A 
HETATM   14  C15 UNL     1       5.804 -36.751   3.223  1.00  0.00     0.018 A 
HETATM   15  C16 UNL     1       6.861 -35.818   3.188  1.00  0.00     0.002 A 
HETATM   16  C17 UNL     1       7.581 -35.651   1.984  1.00  0.00     0.012 A 
HETATM   17  C18 UNL     1       7.307 -36.362   0.822  1.00  0.00    -0.024 A 
HETATM   18  C19 UNL     1       7.985 -36.207  -0.374  1.00  0.00     0.012 A 
HETATM   19  C20 UNL     1       7.597 -36.980  -1.480  1.00  0.00     0.001 A 
HETATM   20  C21 UNL     1       6.588 -37.882  -1.451  1.00  0.00     0.009 A 
HETATM   21  C22 UNL     1       5.911 -38.026  -0.231  1.00  0.00    -0.033 A 
HETATM   22  C23 UNL     1       6.286 -37.259   0.877  1.00  0.00    -0.003 A 
HETATM   23  C24 UNL     1       5.080 -39.060  -0.470  1.00  0.00     0.034 A 
HETATM   24  C25 UNL     1       4.444 -39.801  -1.132  1.00  0.00     0.071 A 
HETATM   25  C26 UNL     1       3.846 -40.932  -1.653  1.00  0.00     0.028 A 
HETATM   26  C27 UNL     1       3.159 -41.077  -2.811  1.00  0.00     0.201 A 
HETATM   27  O4  UNL     1       3.058 -40.085  -3.586  1.00  0.00    -0.286 OA
ENDROOT
BRANCH   1  28
HETATM   28  C5  UNL     1       1.738 -42.407  -4.367  1.00  0.00    -0.059 C 
HETATM   29  C4  UNL     1       1.080 -42.510  -5.368  1.00  0.00    -0.074 C 
BRANCH  29  30
HETATM   30  C3  UNL     1       0.289 -42.595  -6.619  1.00  0.00     0.272 C 
BRANCH  30  31
HETATM   31  O2  UNL     1       0.935 -43.464  -7.526  1.00  0.00    -0.310 OA
BRANCH  31  32
HETATM   32  C2  UNL     1       0.218 -44.247  -8.394  1.00  0.00     0.255 C 
HETATM   33  C1  UNL     1       0.771 -45.342  -9.231  1.00  0.00     0.126 C 
HETATM   34  O1  UNL     1      -1.040 -44.023  -8.508  1.00  0.00    -0.266 OA
ENDBRANCH  31  32
ENDBRANCH  30  31
ENDBRANCH  29  30
ENDBRANCH   1  28
TORSDOF 4
ENDMDL
MODEL 3
REMARK VINA RESULT: -8.125936228      5.006      7.220
REMARK  4 active torsions:
REMARK  status: ('A' for Active; 'I' for Inactive)
REMARK    1  A    between atoms: C2_2  and  O2_4 
REMARK    2  A    between atoms: O2_4  and  C3_5 
REMARK    3  A    between atoms: C3_5  and  C4_6 
REMARK    4  A    between atoms: C5_7  and  C6_8 
ROOT
HETATM    1  C6  UNL     1       7.099 -45.838   1.567  1.00  0.00     0.084 A 
HETATM    2  C7  UNL     1       5.737 -45.770   1.862  1.00  0.00     0.115 A 
HETATM    3  N1  UNL     1       5.095 -44.603   1.957  1.00  0.00    -0.359 N 
HETATM    4  C8  UNL     1       3.690 -44.473   2.287  1.00  0.00     0.156 C 
HETATM    5  C9  UNL     1       5.723 -43.402   1.774  1.00  0.00     0.041 A 
HETATM    6  C10 UNL     1       5.102 -42.231   1.789  1.00  0.00     0.012 A 
HETATM    7  C11 UNL     1       5.951 -40.955   1.474  1.00  0.00     0.057 A 
HETATM    8  C12 UNL     1       6.503 -41.251   1.402  1.00  0.00     0.063 A 
HETATM    9  N2  UNL     1       6.751 -40.517  -0.421  1.00  0.00    -0.345 N 
ATOM     10  H2  UNL     1       7.130 -41.085  -1.178  1.00  0.00     0.163 HD
HETATM   11  C13 UNL     1       6.402 -39.252  -0.610  1.00  0.00     0.253 C 
HETATM   12  O3  UNL     1       5.463 -38.795  -1.269  1.00  0.00    -0.268 OA
HETATM   13  C14 UNL     1       7.169 -38.185  -0.022  1.00  0.00     0.043 A 
HETATM   14  C15 UNL     1       6.882 -37.023  -0.517  1.00  0.00     0.018 A 
HETATM   15  C16 UNL     1       7.676 -35.951  -0.062  1.00  0.00     0.002 A 
HETATM   16  C17 UNL     1       8.701 -36.213   0.874  1.00  0.00     0.012 A 
HETATM   17  C18 UNL     1       8.974 -37.479   1.379  1.00  0.00    -0.024 A 
HETATM   18  C19 UNL     1       9.981 -37.766   2.283  1.00  0.00     0.012 A 
HETATM   19  C20 UNL     1      10.158 -39.094   2.703  1.00  0.00     0.001 A 
HETATM   20  C21 UNL     1       9.395 -40.127   2.275  1.00  0.00     0.009 A 
HETATM   21  C22 UNL     1       8.378 -39.818   1.358  1.00  0.00    -0.033 A 
HETATM   22  C23 UNL     1       8.194 -38.499   0.930  1.00  0.00    -0.003 A 
HETATM   23  C24 UNL     1       7.725 -40.990   1.230  1.00  0.00     0.034 A 
HETATM   24  C25 UNL     1       7.593 -42.162   1.277  1.00  0.00     0.071 A 
HETATM   25  C26 UNL     1       7.088 -43.431   1.483  1.00  0.00     0.028 A 
HETATM   26  C27 UNL     1       7.720 -44.625   1.392  1.00  0.00     0.201 A 
HETATM   27  O4  UNL     1       8.956 -44.640   1.129  1.00  0.00    -0.286 OA
ENDROOT
BRANCH   1  28
HETATM   28  C5  UNL     1       7.711 -47.116   1.375  1.00  0.00    -0.059 C 
HETATM   29  C4  UNL     1       8.253 -48.172   1.177  1.00  0.00    -0.074 C 
BRANCH  29  30
HETATM   30  C3  UNL     1       8.934 -49.457   0.889  1.00  0.00     0.272 C 
BRANCH  30  31
HETATM   31  O2  UNL     1       9.899 -49.712   1.888  1.00  0.00    -0.310 OA
BRANCH  31  32
HETATM   32  C2  UNL     1      11.213 -49.359   1.713  1.00  0.00     0.255 C 
HETATM   33  C1  UNL     1      12.073 -49.765   0.572  1.00  0.00     0.126 C 
HETATM   34  O1  UNL     1      11.763 -48.621   2.606  1.00  0.00    -0.266 OA
ENDBRANCH  31  32
ENDBRANCH  30  31
ENDBRANCH  29  30
ENDBRANCH   1  28
TORSDOF 4
ENDMDL
MODEL 4
REMARK VINA RESULT: -7.847309015      0.980      1.167
REMARK  4 active torsions:
REMARK  status: ('A' for Active; 'I' for Inactive)
REMARK    1  A    between atoms: C2_2  and  O2_4 
REMARK    2  A    between atoms: O2_4  and  C3_5 
REMARK    3  A    between atoms: C3_5  and  C4_6 
REMARK    4  A    between atoms: C5_7  and  C6_8 
ROOT
HETATM    1  C6  UNL     1       1.859 -42.182  -2.184  1.00  0.00     0.084 A 
HETATM    2  C7  UNL     1       2.047 -43.174  -1.221  1.00  0.00     0.115 A 
HETATM    3  N1  UNL     1       2.875 -43.001  -0.187  1.00  0.00    -0.359 N 
HETATM    4  C8  UNL     1       3.129 -44.007   0.827  1.00  0.00     0.156 C 
HETATM    5  C9  UNL     1       3.589 -41.851  -0.001  1.00  0.00     0.041 A 
HETATM    6  C10 UNL     1       4.361 -41.619   1.052  1.00  0.00     0.012 A 
HETATM    7  C11 UNL     1       5.041 -40.214   1.158  1.00  0.00     0.057 A 
HETATM    8  C12 UNL     1       4.817 -39.984   0.616  1.00  0.00     0.063 A 
HETATM    9  N2  UNL     1       3.993 -38.428   1.522  1.00  0.00    -0.345 N 
ATOM     10  H2  UNL     1       3.072 -38.079   1.254  1.00  0.00     0.163 HD
HETATM   11  C13 UNL     1       4.694 -37.860   2.495  1.00  0.00     0.253 C 
HETATM   12  O3  UNL     1       4.470 -37.848   3.708  1.00  0.00    -0.268 OA
HETATM   13  C14 UNL     1       5.889 -37.116   2.197  1.00  0.00     0.043 A 
HETATM   14  C15 UNL     1       6.299 -36.397   3.192  1.00  0.00     0.018 A 
HETATM   15  C16 UNL     1       7.403 -35.560   2.930  1.00  0.00     0.002 A 
HETATM   16  C17 UNL     1       7.966 -35.563   1.635  1.00  0.00     0.012 A 
HETATM   17  C18 UNL     1       7.492 -36.353   0.594  1.00  0.00    -0.024 A 
HETATM   18  C19 UNL     1       8.014 -36.364  -0.688  1.00  0.00     0.012 A 
HETATM   19  C20 UNL     1       7.430 -37.202  -1.651  1.00  0.00     0.001 A 
HETATM   20  C21 UNL     1       6.375 -38.013  -1.404  1.00  0.00     0.009 A 
HETATM   21  C22 UNL     1       5.858 -37.989  -0.100  1.00  0.00    -0.033 A 
HETATM   22  C23 UNL     1       6.429 -37.156   0.869  1.00  0.00    -0.003 A 
HETATM   23  C24 UNL     1       4.934 -38.971  -0.126  1.00  0.00     0.034 A 
HETATM   24  C25 UNL     1       4.167 -39.715  -0.624  1.00  0.00     0.071 A 
HETATM   25  C26 UNL     1       3.429 -40.838  -0.948  1.00  0.00     0.028 A 
HETATM   26  C27 UNL     1       2.586 -41.033  -1.990  1.00  0.00     0.201 A 
HETATM   27  O4  UNL     1       2.450 -40.111  -2.843  1.00  0.00    -0.286 OA
ENDROOT
BRANCH   1  28
HETATM   28  C5  UNL     1       0.884 -42.380  -3.211  1.00  0.00    -0.059 C 
HETATM   29  C4  UNL     1       0.085 -42.511  -4.101  1.00  0.00    -0.074 C 
BRANCH  29  30
HETATM   30  C3  UNL     1      -0.888 -42.627  -5.214  1.00  0.00     0.272 C 
BRANCH  30  31
HETATM   31  O2  UNL     1      -0.325 -42.083  -6.389  1.00  0.00    -0.310 OA
BRANCH  31  32
HETATM   32  C2  UNL     1       0.698 -42.717  -7.047  1.00  0.00     0.255 C 
HETATM   33  C1  UNL     1       0.585 -43.995  -7.795  1.00  0.00     0.126 C 
HETATM   34  O1  UNL     1       1.861 -42.177  -7.016  1.00  0.00    -0.266 OA
ENDBRANCH  31  32
ENDBRANCH  30  31
ENDBRANCH  29  30
ENDBRANCH   1  28
TORSDOF 4
ENDMDL
MODEL 5
REMARK VINA RESULT: -7.807342587      1.137      1.849
REMARK  4 active torsions:
REMARK  status: ('A' for Active; 'I' for Inactive)
REMARK    1  A    between atoms: C2_2  and  O2_4 
REMARK    2  A    between atoms: O2_4  and  C3_5 
REMARK    3  A    between atoms: C3_5  and  C4_6 
REMARK    4  A    between atoms: C5_7  and  C6_8 
ROOT
HETATM    1  C6  UNL     1       2.686 -42.562  -2.975  1.00  0.00     0.084 A 
HETATM    2  C7  UNL     1       2.925 -43.605  -2.080  1.00  0.00     0.115 A 
HETATM    3  N1  UNL     1       3.643 -43.426  -0.968  1.00  0.00    -0.359 N 
HETATM    4  C8  UNL     1       3.944 -44.479  -0.018  1.00  0.00     0.156 C 
HETATM    5  C9  UNL     1       4.189 -42.219  -0.632  1.00  0.00     0.041 A 
HETATM    6  C10 UNL     1       4.843 -41.990   0.499  1.00  0.00     0.012 A 
HETATM    7  C11 UNL     1       5.329 -40.528   0.773  1.00  0.00     0.057 A 
HETATM    8  C12 UNL     1       5.120 -40.280   0.233  1.00  0.00     0.063 A 
HETATM    9  N2  UNL     1       4.038 -38.920   1.184  1.00  0.00    -0.345 N 
ATOM     10  H2  UNL     1       3.104 -38.663   0.865  1.00  0.00     0.163 HD
HETATM   11  C13 UNL     1       4.585 -38.361   2.255  1.00  0.00     0.253 C 
HETATM   12  O3  UNL     1       4.270 -38.483   3.442  1.00  0.00    -0.268 OA
HETATM   13  C14 UNL     1       5.696 -37.455   2.120  1.00  0.00     0.043 A 
HETATM   14  C15 UNL     1       5.934 -36.783   3.201  1.00  0.00     0.018 A 
HETATM   15  C16 UNL     1       6.939 -35.800   3.101  1.00  0.00     0.002 A 
HETATM   16  C17 UNL     1       7.595 -35.621   1.863  1.00  0.00     0.012 A 
HETATM   17  C18 UNL     1       7.306 -36.367   0.727  1.00  0.00    -0.024 A 
HETATM   18  C19 UNL     1       7.921 -36.201  -0.502  1.00  0.00     0.012 A 
HETATM   19  C20 UNL     1       7.523 -37.015  -1.575  1.00  0.00     0.001 A 
HETATM   20  C21 UNL     1       6.564 -37.965  -1.484  1.00  0.00     0.009 A 
HETATM   21  C22 UNL     1       5.951 -38.119  -0.231  1.00  0.00    -0.033 A 
HETATM   22  C23 UNL     1       6.335 -37.312   0.845  1.00  0.00    -0.003 A 
HETATM   23  C24 UNL     1       5.163 -39.198  -0.414  1.00  0.00     0.034 A 
HETATM   24  C25 UNL     1       4.536 -39.983  -1.034  1.00  0.00     0.071 A 
HETATM   25  C26 UNL     1       3.974 -41.153  -1.507  1.00  0.00     0.028 A 
HETATM   26  C27 UNL     1       3.245 -41.355  -2.629  1.00  0.00     0.201 A 
HETATM   27  O4  UNL     1       3.058 -40.384  -3.416  1.00  0.00    -0.286 OA
ENDROOT
BRANCH   1  28
HETATM   28  C5  UNL     1       1.825 -42.784  -4.095  1.00  0.00    -0.059 C 
HETATM   29  C4  UNL     1       1.066 -42.943  -5.015  1.00  0.00    -0.074 C 
BRANCH  29  30
HETATM   30  C3  UNL     1       0.095 -43.126  -6.119  1.00  0.00     0.272 C 
BRANCH  30  31
HETATM   31  O2  UNL     1       0.205 -44.438  -6.631  1.00  0.00    -0.310 OA
BRANCH  31  32
HETATM   32  C2  UNL     1      -0.125 -45.528  -5.867  1.00  0.00     0.255 C 
HETATM   33  C1  UNL     1       0.767 -46.677  -5.568  1.00  0.00     0.126 C 
HETATM   34  O1  UNL     1      -1.305 -45.579  -5.368  1.00  0.00    -0.266 OA
ENDBRANCH  31  32
ENDBRANCH  30  31
ENDBRANCH  29  30
ENDBRANCH   1  28
TORSDOF 4
ENDMDL
