MODEL 1
REMARK VINA RESULT: -10.378365062      0.000      0.000
REMARK  0 active torsions:
REMARK  status: ('A' for Active; 'I' for Inactive)
ROOT
HETATM    1  C1  UNL     1       6.824 -45.728   0.726  1.00  0.00     0.152 C 
HETATM    2  N1  UNL     1       6.696 -44.286   0.662  1.00  0.00    -0.359 N 
HETATM    3  C2  UNL     1       7.543 -43.549   1.569  1.00  0.00     0.041 A 
HETATM    4  C3  UNL     1       8.146 -44.042   2.687  1.00  0.00     0.030 A 
HETATM    5  C4  UNL     1       8.892 -43.197   3.495  1.00  0.00     0.003 A 
HETATM    6  C5  UNL     1       9.033 -41.841   3.179  1.00  0.00     0.014 A 
HETATM    7  C6  UNL     1       8.412 -41.349   2.034  1.00  0.00     0.004 A 
HETATM    8  C7  UNL     1       7.720 -42.229   1.314  1.00  0.00     0.010 A 
HETATM    9  C8  UNL     1       7.158 -41.577   0.087  1.00  0.00     0.178 C 
HETATM   10  C9  UNL     1       7.407 -40.190   0.308  1.00  0.00     0.065 A 
HETATM   11  N2  UNL     1       7.092 -39.011  -0.319  1.00  0.00    -0.354 N 
ATOM     12  H2  UNL     1       6.487 -39.047  -1.139  1.00  0.00     0.166 HD
HETATM   13  C10 UNL     1       7.537 -37.817   0.090  1.00  0.00     0.059 A 
HETATM   14  C11 UNL     1       7.220 -36.635  -0.542  1.00  0.00     0.032 A 
HETATM   15  C12 UNL     1       7.703 -35.425  -0.083  1.00  0.00     0.002 A 
HETATM   16  C13 UNL     1       8.524 -35.348   1.025  1.00  0.00     0.002 A 
HETATM   17  C14 UNL     1       8.843 -36.529   1.660  1.00  0.00     0.032 A 
HETATM   18  C15 UNL     1       8.355 -37.733   1.195  1.00  0.00     0.059 A 
HETATM   19  N3  UNL     1       8.693 -38.836   1.844  1.00  0.00    -0.352 N 
ATOM     20  H3  UNL     1       9.299 -38.782   2.663  1.00  0.00     0.166 HD
HETATM   21  C16 UNL     1       8.239 -40.015   1.423  1.00  0.00     0.069 A 
HETATM   22  N4  UNL     1       5.860 -42.148   0.006  1.00  0.00    -0.308 N 
HETATM   23  C17 UNL     1       4.516 -41.676   0.097  1.00  0.00     0.259 A 
HETATM   24  O1  UNL     1       4.277 -40.477   0.238  1.00  0.00    -0.267 OA
HETATM   25  C18 UNL     1       3.638 -42.806  -0.004  1.00  0.00     0.071 A 
HETATM   26  C19 UNL     1       4.400 -43.961  -0.160  1.00  0.00     0.002 A 
HETATM   27  C20 UNL     1       3.858 -45.205  -0.268  1.00  0.00     0.014 A 
HETATM   28  C21 UNL     1       2.499 -45.377  -0.228  1.00  0.00     0.032 A 
HETATM   29  C22 UNL     1       1.720 -44.242  -0.075  1.00  0.00     0.061 A 
HETATM   30  N5  UNL     1       0.378 -44.073  -0.002  1.00  0.00    -0.350 N 
ATOM     31  H5  UNL     1      -0.319 -44.816  -0.053  1.00  0.00     0.166 HD
HETATM   32  C23 UNL     1       0.120 -42.778   0.146  1.00  0.00     0.183 A 
HETATM   33  N6  UNL     1       1.285 -42.066   0.172  1.00  0.00    -0.345 N 
HETATM   34  C24 UNL     1       1.302 -40.627   0.322  1.00  0.00     0.157 C 
HETATM   35  C25 UNL     1       2.259 -42.971   0.036  1.00  0.00     0.078 A 
HETATM   36  C26 UNL     1       5.829 -43.582  -0.207  1.00  0.00     0.225 A 
ENDROOT
TORSDOF 0
ENDMDL
MODEL 2
REMARK VINA RESULT: -9.274242094      0.961      1.115
REMARK  0 active torsions:
REMARK  status: ('A' for Active; 'I' for Inactive)
ROOT
HETATM    1  C1  UNL     1       5.477 -45.457  -0.263  1.00  0.00     0.152 C 
HETATM    2  N1  UNL     1       5.589 -44.023  -0.080  1.00  0.00    -0.359 N 
HETATM    3  C2  UNL     1       6.661 -43.592   0.783  1.00  0.00     0.041 A 
HETATM    4  C3  UNL     1       7.315 -44.359   1.700  1.00  0.00     0.030 A 
HETATM    5  C4  UNL     1       8.295 -43.789   2.499  1.00  0.00     0.003 A 
HETATM    6  C5  UNL     1       8.621 -42.434   2.379  1.00  0.00     0.014 A 
HETATM    7  C6  UNL     1       7.946 -41.659   1.440  1.00  0.00     0.004 A 
HETATM    8  C7  UNL     1       7.025 -42.286   0.711  1.00  0.00     0.010 A 
HETATM    9  C8  UNL     1       6.423 -41.351  -0.293  1.00  0.00     0.178 C 
HETATM   10  C9  UNL     1       6.931 -40.077   0.098  1.00  0.00     0.065 A 
HETATM   11  N2  UNL     1       6.741 -38.772  -0.279  1.00  0.00    -0.354 N 
ATOM     12  H2  UNL     1       6.035 -38.572  -0.987  1.00  0.00     0.166 HD
HETATM   13  C10 UNL     1       7.433 -37.747   0.234  1.00  0.00     0.059 A 
HETATM   14  C11 UNL     1       7.239 -36.438  -0.146  1.00  0.00     0.032 A 
HETATM   15  C12 UNL     1       7.978 -35.413   0.412  1.00  0.00     0.002 A 
HETATM   16  C13 UNL     1       8.940 -35.656   1.372  1.00  0.00     0.002 A 
HETATM   17  C14 UNL     1       9.136 -36.965   1.756  1.00  0.00     0.032 A 
HETATM   18  C15 UNL     1       8.392 -37.983   1.193  1.00  0.00     0.059 A 
HETATM   19  N3  UNL     1       8.622 -39.221   1.600  1.00  0.00    -0.352 N 
ATOM     20  H3  UNL     1       9.332 -39.403   2.310  1.00  0.00     0.166 HD
HETATM   21  C16 UNL     1       7.922 -40.228   1.079  1.00  0.00     0.069 A 
HETATM   22  N4  UNL     1       5.048 -41.703  -0.253  1.00  0.00    -0.308 N 
HETATM   23  C17 UNL     1       3.828 -41.067   0.125  1.00  0.00     0.259 A 
HETATM   24  O1  UNL     1       3.817 -39.890   0.487  1.00  0.00    -0.267 OA
HETATM   25  C18 UNL     1       2.766 -42.021  -0.009  1.00  0.00     0.071 A 
HETATM   26  C19 UNL     1       3.292 -43.227  -0.463  1.00  0.00     0.002 A 
HETATM   27  C20 UNL     1       2.537 -44.340  -0.675  1.00  0.00     0.014 A 
HETATM   28  C21 UNL     1       1.187 -44.317  -0.445  1.00  0.00     0.032 A 
HETATM   29  C22 UNL     1       0.639 -43.127   0.005  1.00  0.00     0.061 A 
HETATM   30  N5  UNL     1      -0.633 -42.781   0.318  1.00  0.00    -0.350 N 
ATOM     31  H5  UNL     1      -1.446 -43.395   0.264  1.00  0.00     0.166 HD
HETATM   32  C23 UNL     1      -0.645 -41.510   0.705  1.00  0.00     0.183 A 
HETATM   33  N6  UNL     1       0.617 -40.991   0.655  1.00  0.00    -0.345 N 
HETATM   34  C24 UNL     1       0.898 -39.620   1.023  1.00  0.00     0.157 C 
HETATM   35  C25 UNL     1       1.397 -41.988   0.225  1.00  0.00     0.078 A 
HETATM   36  C26 UNL     1       4.745 -43.057  -0.679  1.00  0.00     0.225 A 
ENDROOT
TORSDOF 0
ENDMDL
MODEL 3
REMARK VINA RESULT: -8.427517654      1.336      1.659
REMARK  0 active torsions:
REMARK  status: ('A' for Active; 'I' for Inactive)
ROOT
HETATM    1  C1  UNL     1       4.918 -46.009  -0.096  1.00  0.00     0.152 C 
HETATM    2  N1  UNL     1       5.074 -44.577   0.063  1.00  0.00    -0.359 N 
HETATM    3  C2  UNL     1       6.333 -44.150   0.623  1.00  0.00     0.041 A 
HETATM    4  C3  UNL     1       7.201 -44.924   1.334  1.00  0.00     0.030 A 
HETATM    5  C4  UNL     1       8.354 -44.359   1.858  1.00  0.00     0.003 A 
HETATM    6  C5  UNL     1       8.639 -43.003   1.668  1.00  0.00     0.014 A 
HETATM    7  C6  UNL     1       7.745 -42.222   0.941  1.00  0.00     0.004 A 
HETATM    8  C7  UNL     1       6.666 -42.844   0.470  1.00  0.00     0.010 A 
HETATM    9  C8  UNL     1       5.827 -41.902  -0.337  1.00  0.00     0.178 C 
HETATM   10  C9  UNL     1       6.419 -40.630  -0.080  1.00  0.00     0.065 A 
HETATM   11  N2  UNL     1       6.139 -39.323  -0.385  1.00  0.00    -0.354 N 
ATOM     12  H2  UNL     1       5.273 -39.118  -0.885  1.00  0.00     0.166 HD
HETATM   13  C10 UNL     1       6.940 -38.301  -0.060  1.00  0.00     0.059 A 
HETATM   14  C11 UNL     1       6.656 -36.989  -0.368  1.00  0.00     0.032 A 
HETATM   15  C12 UNL     1       7.514 -35.967  -0.011  1.00  0.00     0.002 A 
HETATM   16  C13 UNL     1       8.692 -36.216   0.666  1.00  0.00     0.002 A 
HETATM   17  C14 UNL     1       8.979 -37.528   0.977  1.00  0.00     0.032 A 
HETATM   18  C15 UNL     1       8.115 -38.542   0.617  1.00  0.00     0.059 A 
HETATM   19  N3  UNL     1       8.441 -39.784   0.941  1.00  0.00    -0.352 N 
ATOM     20  H3  UNL     1       9.310 -39.970   1.441  1.00  0.00     0.166 HD
HETATM   21  C16 UNL     1       7.630 -40.787   0.610  1.00  0.00     0.069 A 
HETATM   22  N4  UNL     1       4.508 -42.257   0.054  1.00  0.00    -0.308 N 
HETATM   23  C17 UNL     1       3.428 -41.625   0.739  1.00  0.00     0.259 A 
HETATM   24  O1  UNL     1       3.511 -40.451   1.101  1.00  0.00    -0.267 OA
HETATM   25  C18 UNL     1       2.366 -42.579   0.876  1.00  0.00     0.071 A 
HETATM   26  C19 UNL     1       2.756 -43.781   0.293  1.00  0.00     0.002 A 
HETATM   27  C20 UNL     1       1.971 -44.893   0.274  1.00  0.00     0.014 A 
HETATM   28  C21 UNL     1       0.727 -44.874   0.845  1.00  0.00     0.032 A 
HETATM   29  C22 UNL     1       0.314 -43.689   1.431  1.00  0.00     0.061 A 
HETATM   30  N5  UNL     1      -0.833 -43.347   2.064  1.00  0.00    -0.350 N 
ATOM     31  H5  UNL     1      -1.634 -43.961   2.217  1.00  0.00     0.166 HD
HETATM   32  C23 UNL     1      -0.745 -42.079   2.451  1.00  0.00     0.183 A 
HETATM   33  N6  UNL     1       0.462 -41.558   2.081  1.00  0.00    -0.345 N 
HETATM   34  C24 UNL     1       0.829 -40.190   2.374  1.00  0.00     0.157 C 
HETATM   35  C25 UNL     1       1.104 -42.550   1.456  1.00  0.00     0.078 A 
HETATM   36  C26 UNL     1       4.105 -43.607  -0.290  1.00  0.00     0.225 A 
ENDROOT
TORSDOF 0
ENDMDL
MODEL 4
REMARK VINA RESULT: -8.190886675      2.685      3.090
REMARK  0 active torsions:
REMARK  status: ('A' for Active; 'I' for Inactive)
ROOT
HETATM    1  C1  UNL     1       3.670 -45.266   1.033  1.00  0.00     0.152 C 
HETATM    2  N1  UNL     1       4.102 -43.942   0.628  1.00  0.00    -0.359 N 
HETATM    3  C2  UNL     1       4.157 -42.960   1.683  1.00  0.00     0.041 A 
HETATM    4  C3  UNL     1       3.519 -43.034   2.885  1.00  0.00     0.030 A 
HETATM    5  C4  UNL     1       3.624 -41.982   3.784  1.00  0.00     0.003 A 
HETATM    6  C5  UNL     1       4.374 -40.843   3.472  1.00  0.00     0.014 A 
HETATM    7  C6  UNL     1       5.020 -40.779   2.241  1.00  0.00     0.004 A 
HETATM    8  C7  UNL     1       4.871 -41.833   1.441  1.00  0.00     0.010 A 
HETATM    9  C8  UNL     1       5.664 -41.653   0.182  1.00  0.00     0.178 C 
HETATM   10  C9  UNL     1       6.087 -40.292   0.250  1.00  0.00     0.065 A 
HETATM   11  N2  UNL     1       6.745 -39.413  -0.571  1.00  0.00    -0.354 N 
ATOM     12  H2  UNL     1       6.990 -39.722  -1.512  1.00  0.00     0.166 HD
HETATM   13  C10 UNL     1       7.081 -38.171  -0.203  1.00  0.00     0.059 A 
HETATM   14  C11 UNL     1       7.742 -37.290  -1.030  1.00  0.00     0.032 A 
HETATM   15  C12 UNL     1       8.070 -36.017  -0.606  1.00  0.00     0.002 A 
HETATM   16  C13 UNL     1       7.749 -35.573   0.662  1.00  0.00     0.002 A 
HETATM   17  C14 UNL     1       7.087 -36.452   1.492  1.00  0.00     0.032 A 
HETATM   18  C15 UNL     1       6.764 -37.722   1.059  1.00  0.00     0.059 A 
HETATM   19  N3  UNL     1       6.127 -38.523   1.899  1.00  0.00    -0.352 N 
ATOM     20  H3  UNL     1       5.889 -38.199   2.836  1.00  0.00     0.166 HD
HETATM   21  C16 UNL     1       5.799 -39.756   1.514  1.00  0.00     0.069 A 
HETATM   22  N4  UNL     1       4.781 -42.161  -0.809  1.00  0.00    -0.308 N 
HETATM   23  C17 UNL     1       4.076 -41.635  -1.932  1.00  0.00     0.259 A 
HETATM   24  O1  UNL     1       4.213 -40.459  -2.269  1.00  0.00    -0.267 OA
HETATM   25  C18 UNL     1       3.278 -42.688  -2.491  1.00  0.00     0.071 A 
HETATM   26  C19 UNL     1       3.471 -43.849  -1.749  1.00  0.00     0.002 A 
HETATM   27  C20 UNL     1       2.838 -45.023  -2.018  1.00  0.00     0.014 A 
HETATM   28  C21 UNL     1       1.958 -45.114  -3.064  1.00  0.00     0.032 A 
HETATM   29  C22 UNL     1       1.749 -43.972  -3.819  1.00  0.00     0.061 A 
HETATM   30  N5  UNL     1       0.962 -43.733  -4.895  1.00  0.00    -0.350 N 
ATOM     31  H5  UNL     1       0.354 -44.415  -5.350  1.00  0.00     0.166 HD
HETATM   32  C23 UNL     1       1.113 -42.465  -5.261  1.00  0.00     0.183 A 
HETATM   33  N6  UNL     1       2.003 -41.841  -4.434  1.00  0.00    -0.345 N 
HETATM   34  C24 UNL     1       2.359 -40.448  -4.602  1.00  0.00     0.157 C 
HETATM   35  C25 UNL     1       2.387 -42.770  -3.555  1.00  0.00     0.078 A 
HETATM   36  C26 UNL     1       4.465 -43.572  -0.689  1.00  0.00     0.225 A 
ENDROOT
TORSDOF 0
ENDMDL
MODEL 5
REMARK VINA RESULT: -8.187046487      3.887      6.089
REMARK  0 active torsions:
REMARK  status: ('A' for Active; 'I' for Inactive)
ROOT
HETATM    1  C1  UNL     1      -0.677 -39.276  -0.872  1.00  0.00     0.152 C 
HETATM    2  N1  UNL     1       0.762 -39.447  -0.909  1.00  0.00    -0.359 N 
HETATM    3  C2  UNL     1       1.514 -38.528  -0.092  1.00  0.00     0.041 A 
HETATM    4  C3  UNL     1       1.072 -37.334   0.394  1.00  0.00     0.030 A 
HETATM    5  C4  UNL     1       1.931 -36.528   1.125  1.00  0.00     0.003 A 
HETATM    6  C5  UNL     1       3.251 -36.923   1.371  1.00  0.00     0.014 A 
HETATM    7  C6  UNL     1       3.693 -38.144   0.869  1.00  0.00     0.004 A 
HETATM    8  C7  UNL     1       2.802 -38.857   0.182  1.00  0.00     0.010 A 
HETATM    9  C8  UNL     1       3.392 -40.165  -0.244  1.00  0.00     0.178 C 
HETATM   10  C9  UNL     1       4.777 -40.020   0.069  1.00  0.00     0.065 A 
HETATM   11  N2  UNL     1       5.923 -40.748  -0.126  1.00  0.00    -0.354 N 
ATOM     12  H2  UNL     1       5.860 -41.610  -0.668  1.00  0.00     0.166 HD
HETATM   13  C10 UNL     1       7.117 -40.387   0.356  1.00  0.00     0.059 A 
HETATM   14  C11 UNL     1       8.266 -41.120   0.159  1.00  0.00     0.032 A 
HETATM   15  C12 UNL     1       9.478 -40.707   0.678  1.00  0.00     0.002 A 
HETATM   16  C13 UNL     1       9.590 -39.544   1.415  1.00  0.00     0.002 A 
HETATM   17  C14 UNL     1       8.442 -38.807   1.614  1.00  0.00     0.032 A 
HETATM   18  C15 UNL     1       7.236 -39.228   1.091  1.00  0.00     0.059 A 
HETATM   19  N3  UNL     1       6.166 -38.481   1.313  1.00  0.00    -0.352 N 
ATOM     20  H3  UNL     1       6.246 -37.622   1.857  1.00  0.00     0.166 HD
HETATM   21  C16 UNL     1       4.986 -38.856   0.823  1.00  0.00     0.069 A 
HETATM   22  N4  UNL     1       2.889 -40.312  -1.565  1.00  0.00    -0.308 N 
HETATM   23  C17 UNL     1       3.438 -40.360  -2.881  1.00  0.00     0.259 A 
HETATM   24  O1  UNL     1       4.655 -40.320  -3.058  1.00  0.00    -0.267 OA
HETATM   25  C18 UNL     1       2.353 -40.455  -3.814  1.00  0.00     0.071 A 
HETATM   26  C19 UNL     1       1.150 -40.470  -3.113  1.00  0.00     0.002 A 
HETATM   27  C20 UNL     1      -0.067 -40.537  -3.719  1.00  0.00     0.014 A 
HETATM   28  C21 UNL     1      -0.162 -40.595  -5.084  1.00  0.00     0.032 A 
HETATM   29  C22 UNL     1       1.021 -40.582  -5.804  1.00  0.00     0.061 A 
HETATM   30  N5  UNL     1       1.267 -40.628  -7.135  1.00  0.00    -0.350 N 
ATOM     31  H5  UNL     1       0.561 -40.684  -7.869  1.00  0.00     0.166 HD
HETATM   32  C23 UNL     1       2.582 -40.589  -7.326  1.00  0.00     0.183 A 
HETATM   33  N6  UNL     1       3.229 -40.518  -6.126  1.00  0.00    -0.345 N 
HETATM   34  C24 UNL     1       4.673 -40.465  -6.035  1.00  0.00     0.157 C 
HETATM   35  C25 UNL     1       2.266 -40.514  -5.199  1.00  0.00     0.078 A 
HETATM   36  C26 UNL     1       1.446 -40.429  -1.665  1.00  0.00     0.225 A 
ENDROOT
TORSDOF 0
ENDMDL
