MODEL 1
REMARK VINA RESULT: -6.465856367      0.000      0.000
REMARK  2 active torsions:
REMARK  status: ('A' for Active; 'I' for Inactive)
REMARK    1  A    between atoms: C2_5  and  N3_6 
REMARK    2  A    between atoms: C6_15  and  N6_16 
ROOT
HETATM    1  C1  UNL     1       7.380  16.038  38.865  1.00  0.00     0.178 C 
HETATM    2  N1  UNL     1       6.961  15.432  40.116  1.00  0.00    -0.288 N 
HETATM    3  N2  UNL     1       7.157  15.919  41.341  1.00  0.00    -0.276 N 
ATOM      4  H2  UNL     1       7.635  16.796  41.550  1.00  0.00     0.189 HD
HETATM    5  C2  UNL     1       6.635  15.092  42.265  1.00  0.00     0.217 A 
HETATM    6  C3  UNL     1       6.095  14.049  41.547  1.00  0.00     0.119 A 
HETATM    7  N4  UNL     1       5.464  12.988  42.109  1.00  0.00    -0.339 N 
ATOM      8  H4  UNL     1       5.645  12.828  43.100  1.00  0.00     0.167 HD
HETATM    9  C4  UNL     1       4.627  12.120  41.510  1.00  0.00     0.158 C 
HETATM   10  C5  UNL     1       3.515  11.603  42.263  1.00  0.00     0.121 C 
HETATM   11  N5  UNL     1       2.610  11.196  42.870  1.00  0.00    -0.190 NA
HETATM   12  C6  UNL     1       4.754  11.671  40.191  1.00  0.00     0.140 C 
HETATM   13  N7  UNL     1       5.389  12.228  39.143  1.00  0.00    -0.305 N 
ATOM     14  H7  UNL     1       5.474  11.662  38.299  1.00  0.00     0.170 HD
HETATM   15  C7  UNL     1       5.923  13.467  39.105  1.00  0.00     0.277 C 
HETATM   16  O3  UNL     1       6.102  13.967  37.977  1.00  0.00    -0.265 OA
HETATM   17  C8  UNL     1       6.300  14.262  40.188  1.00  0.00     0.149 A 
ENDROOT
BRANCH  12  18
HETATM   18  N6  UNL     1       4.162  10.542  39.961  1.00  0.00    -0.383 N 
ATOM     19  H62 UNL     1       3.143  10.557  39.995  1.00  0.00     0.157 HD
ATOM     20  H61 UNL     1       4.802   9.770  39.775  1.00  0.00     0.157 HD
ENDBRANCH  12  18
BRANCH   5  21
HETATM   21  N3  UNL     1       6.638  15.255  43.677  1.00  0.00    -0.094 N 
HETATM   22  O1  UNL     1       5.915  14.565  44.409  1.00  0.00    -0.530 OA
HETATM   23  O2  UNL     1       7.451  16.189  44.246  1.00  0.00    -0.530 OA
ENDBRANCH   5  21
TORSDOF 2
ENDMDL
MODEL 2
REMARK VINA RESULT: -6.346175626      2.189      3.989
REMARK  2 active torsions:
REMARK  status: ('A' for Active; 'I' for Inactive)
REMARK    1  A    between atoms: C2_5  and  N3_6 
REMARK    2  A    between atoms: C6_15  and  N6_16 
ROOT
HETATM    1  C1  UNL     1       2.652  11.597  42.299  1.00  0.00     0.178 C 
HETATM    2  N1  UNL     1       3.912  12.307  42.182  1.00  0.00    -0.288 N 
HETATM    3  N2  UNL     1       4.409  13.196  43.042  1.00  0.00    -0.276 N 
ATOM      4  H2  UNL     1       3.951  13.489  43.905  1.00  0.00     0.189 HD
HETATM    5  C2  UNL     1       5.599  13.653  42.612  1.00  0.00     0.217 A 
HETATM    6  C3  UNL     1       5.826  12.996  41.424  1.00  0.00     0.119 A 
HETATM    7  N4  UNL     1       6.931  13.174  40.658  1.00  0.00    -0.339 N 
ATOM      8  H4  UNL     1       7.470  14.022  40.833  1.00  0.00     0.167 HD
HETATM    9  C4  UNL     1       7.401  12.360  39.694  1.00  0.00     0.158 C 
HETATM   10  C5  UNL     1       8.825  12.229  39.534  1.00  0.00     0.121 C 
HETATM   11  N5  UNL     1       9.977  12.116  39.415  1.00  0.00    -0.190 NA
HETATM   12  C6  UNL     1       6.600  11.619  38.816  1.00  0.00     0.140 C 
HETATM   13  N7  UNL     1       5.325  11.209  38.945  1.00  0.00    -0.305 N 
ATOM     14  H7  UNL     1       4.888  10.795  38.121  1.00  0.00     0.170 HD
HETATM   15  C7  UNL     1       4.571  11.293  40.061  1.00  0.00     0.277 C 
HETATM   16  O3  UNL     1       3.591  10.526  40.136  1.00  0.00    -0.265 OA
HETATM   17  C8  UNL     1       4.760  12.144  41.150  1.00  0.00     0.149 A 
ENDROOT
BRANCH  12  18
HETATM   18  N6  UNL     1       7.197  11.285  37.717  1.00  0.00    -0.383 N 
ATOM     19  H62 UNL     1       6.856  10.438  37.262  1.00  0.00     0.157 HD
ATOM     20  H61 UNL     1       7.946  11.922  37.444  1.00  0.00     0.157 HD
ENDBRANCH  12  18
BRANCH   5  21
HETATM   21  N3  UNL     1       6.442  14.607  43.244  1.00  0.00    -0.094 N 
HETATM   22  O1  UNL     1       7.469  15.027  42.693  1.00  0.00    -0.530 OA
HETATM   23  O2  UNL     1       6.120  15.076  44.482  1.00  0.00    -0.530 OA
ENDBRANCH   5  21
TORSDOF 2
ENDMDL
MODEL 3
REMARK VINA RESULT: -6.246789533      1.722      3.980
REMARK  2 active torsions:
REMARK  status: ('A' for Active; 'I' for Inactive)
REMARK    1  A    between atoms: C2_5  and  N3_6 
REMARK    2  A    between atoms: C6_15  and  N6_16 
ROOT
HETATM    1  C1  UNL     1       5.312  10.727  43.403  1.00  0.00     0.178 C 
HETATM    2  N1  UNL     1       5.651  12.116  43.148  1.00  0.00    -0.288 N 
HETATM    3  N2  UNL     1       5.970  13.037  44.057  1.00  0.00    -0.276 N 
ATOM      4  H2  UNL     1       6.015  12.872  45.062  1.00  0.00     0.189 HD
HETATM    5  C2  UNL     1       6.224  14.216  43.461  1.00  0.00     0.217 A 
HETATM    6  C3  UNL     1       6.047  13.983  42.116  1.00  0.00     0.119 A 
HETATM    7  N4  UNL     1       6.209  14.927  41.155  1.00  0.00    -0.339 N 
ATOM      8  H4  UNL     1       6.187  15.898  41.468  1.00  0.00     0.167 HD
HETATM    9  C4  UNL     1       6.394  14.731  39.836  1.00  0.00     0.158 C 
HETATM   10  C5  UNL     1       7.264  15.627  39.121  1.00  0.00     0.121 C 
HETATM   11  N5  UNL     1       7.977  16.345  38.548  1.00  0.00    -0.190 NA
HETATM   12  C6  UNL     1       5.796  13.709  39.090  1.00  0.00     0.140 C 
HETATM   13  N7  UNL     1       5.292  12.526  39.490  1.00  0.00    -0.305 N 
ATOM     14  H7  UNL     1       4.776  11.986  38.796  1.00  0.00     0.170 HD
HETATM   15  C7  UNL     1       5.407  11.988  40.722  1.00  0.00     0.277 C 
HETATM   16  O3  UNL     1       5.250  10.755  40.814  1.00  0.00    -0.265 OA
HETATM   17  C8  UNL     1       5.684  12.655  41.916  1.00  0.00     0.149 A 
ENDROOT
BRANCH  12  18
HETATM   18  N6  UNL     1       5.726  13.957  37.822  1.00  0.00    -0.383 N 
ATOM     19  H62 UNL     1       4.802  14.195  37.462  1.00  0.00     0.157 HD
ATOM     20  H61 UNL     1       6.620  13.879  37.336  1.00  0.00     0.157 HD
ENDBRANCH  12  18
BRANCH   5  21
HETATM   21  N3  UNL     1       6.595  15.439  44.082  1.00  0.00    -0.094 N 
HETATM   22  O1  UNL     1       6.010  15.856  45.091  1.00  0.00    -0.530 OA
HETATM   23  O2  UNL     1       7.618  16.177  43.563  1.00  0.00    -0.530 OA
ENDBRANCH   5  21
TORSDOF 2
ENDMDL
MODEL 4
REMARK VINA RESULT: -6.080057447      2.751      4.472
REMARK  2 active torsions:
REMARK  status: ('A' for Active; 'I' for Inactive)
REMARK    1  A    between atoms: C2_5  and  N3_6 
REMARK    2  A    between atoms: C6_15  and  N6_16 
ROOT
HETATM    1  C1  UNL     1       8.776  11.836  39.767  1.00  0.00     0.178 C 
HETATM    2  N1  UNL     1       8.092  13.002  40.298  1.00  0.00    -0.288 N 
HETATM    3  N2  UNL     1       7.844  13.264  41.581  1.00  0.00    -0.276 N 
ATOM      4  H2  UNL     1       8.111  12.663  42.360  1.00  0.00     0.189 HD
HETATM    5  C2  UNL     1       7.190  14.434  41.703  1.00  0.00     0.217 A 
HETATM    6  C3  UNL     1       7.041  14.897  40.416  1.00  0.00     0.119 A 
HETATM    7  N4  UNL     1       6.427  16.063  40.096  1.00  0.00    -0.339 N 
ATOM      8  H4  UNL     1       5.817  16.463  40.810  1.00  0.00     0.167 HD
HETATM    9  C4  UNL     1       6.527  16.754  38.945  1.00  0.00     0.158 C 
HETATM   10  C5  UNL     1       6.504  18.192  39.000  1.00  0.00     0.121 C 
HETATM   11  N5  UNL     1       6.497  19.355  39.048  1.00  0.00    -0.190 NA
HETATM   12  C6  UNL     1       6.653  16.177  37.676  1.00  0.00     0.140 C 
HETATM   13  N7  UNL     1       7.098  14.958  37.320  1.00  0.00    -0.305 N 
ATOM     14  H7  UNL     1       6.976  14.689  36.343  1.00  0.00     0.170 HD
HETATM   15  C7  UNL     1       7.689  14.057  38.134  1.00  0.00     0.277 C 
HETATM   16  O3  UNL     1       8.387  13.181  37.588  1.00  0.00    -0.265 OA
HETATM   17  C8  UNL     1       7.611  13.993  39.525  1.00  0.00     0.149 A 
ENDROOT
BRANCH  12  18
HETATM   18  N6  UNL     1       6.280  16.951  36.708  1.00  0.00    -0.383 N 
ATOM     19  H62 UNL     1       6.042  17.909  36.968  1.00  0.00     0.157 HD
ATOM     20  H61 UNL     1       6.271  16.496  35.795  1.00  0.00     0.157 HD
ENDBRANCH  12  18
BRANCH   5  21
HETATM   21  N3  UNL     1       6.749  15.059  42.900  1.00  0.00    -0.094 N 
HETATM   22  O1  UNL     1       5.575  14.964  43.284  1.00  0.00    -0.530 OA
HETATM   23  O2  UNL     1       7.630  15.780  43.650  1.00  0.00    -0.530 OA
ENDBRANCH   5  21
TORSDOF 2
ENDMDL
MODEL 5
REMARK VINA RESULT: -5.983370912      1.904      2.320
REMARK  2 active torsions:
REMARK  status: ('A' for Active; 'I' for Inactive)
REMARK    1  A    between atoms: C2_5  and  N3_6 
REMARK    2  A    between atoms: C6_15  and  N6_16 
ROOT
HETATM    1  C1  UNL     1       6.365  17.543  39.109  1.00  0.00     0.178 C 
HETATM    2  N1  UNL     1       6.426  16.326  39.898  1.00  0.00    -0.288 N 
HETATM    3  N2  UNL     1       6.403  16.237  41.227  1.00  0.00    -0.276 N 
ATOM      4  H2  UNL     1       6.338  17.032  41.863  1.00  0.00     0.189 HD
HETATM    5  C2  UNL     1       6.478  14.950  41.614  1.00  0.00     0.217 A 
HETATM    6  C3  UNL     1       6.548  14.229  40.444  1.00  0.00     0.119 A 
HETATM    7  N4  UNL     1       6.636  12.876  40.391  1.00  0.00    -0.339 N 
ATOM      8  H4  UNL     1       6.938  12.410  41.247  1.00  0.00     0.167 HD
HETATM    9  C4  UNL     1       6.370  12.078  39.340  1.00  0.00     0.158 C 
HETATM   10  C5  UNL     1       5.771  10.792  39.585  1.00  0.00     0.121 C 
HETATM   11  N5  UNL     1       5.276   9.759  39.784  1.00  0.00    -0.190 NA
HETATM   12  C6  UNL     1       6.637  12.402  38.005  1.00  0.00     0.140 C 
HETATM   13  N7  UNL     1       6.795  13.603  37.421  1.00  0.00    -0.305 N 
ATOM     14  H7  UNL     1       7.121  13.608  36.454  1.00  0.00     0.170 HD
HETATM   15  C7  UNL     1       6.564  14.803  37.994  1.00  0.00     0.277 C 
HETATM   16  O3  UNL     1       6.369  15.765  37.225  1.00  0.00    -0.265 OA
HETATM   17  C8  UNL     1       6.516  15.097  39.357  1.00  0.00     0.149 A 
ENDROOT
BRANCH  12  18
HETATM   18  N6  UNL     1       6.742  11.373  37.227  1.00  0.00    -0.383 N 
ATOM     19  H62 UNL     1       5.899  11.112  36.714  1.00  0.00     0.157 HD
ATOM     20  H61 UNL     1       7.669  10.947  37.227  1.00  0.00     0.157 HD
ENDBRANCH  12  18
BRANCH   5  21
HETATM   21  N3  UNL     1       6.482  14.442  42.941  1.00  0.00    -0.094 N 
HETATM   22  O1  UNL     1       6.530  13.225  43.167  1.00  0.00    -0.530 OA
HETATM   23  O2  UNL     1       6.434  15.306  43.995  1.00  0.00    -0.530 OA
ENDBRANCH   5  21
TORSDOF 2
ENDMDL
