MODEL 1
REMARK VINA RESULT: -5.911207074      0.000      0.000
REMARK  5 active torsions:
REMARK  status: ('A' for Active; 'I' for Inactive)
REMARK    1  A    between atoms: O1_2  and  N1_3 
REMARK    2  A    between atoms: C6_12  and  O2_13 
REMARK    3  A    between atoms: C6_12  and  C7_15 
REMARK    4  A    between atoms: C7_15  and  O4_17 
REMARK    5  A    between atoms: C9_20  and  N3_21 
ROOT
HETATM    1  N1  UNL     1       6.239  18.802  36.310  1.00  0.00    -0.273 N 
ATOM      2  H1  UNL     1       6.387  18.294  35.438  1.00  0.00     0.193 HD
HETATM    3  C2  UNL     1       5.031  18.936  36.740  1.00  0.00     0.045 C 
HETATM    4  C3  UNL     1       3.768  18.469  36.173  1.00  0.00     0.061 C 
HETATM    5  C4  UNL     1       2.834  19.645  36.475  1.00  0.00     0.078 C 
HETATM    6  C5  UNL     1       3.232  19.968  37.895  1.00  0.00     0.271 C 
HETATM    7  N2  UNL     1       2.903  21.283  38.360  1.00  0.00     0.028 N 
ATOM      8  H21 UNL     1       2.719  22.057  37.721  1.00  0.00     0.288 HD
ATOM      9  H22 UNL     1       3.588  21.886  38.816  1.00  0.00     0.288 HD
HETATM   10  C6  UNL     1       1.848  20.619  39.094  1.00  0.00     0.432 C 
HETATM   11  O5  UNL     1       2.399  19.354  38.792  1.00  0.00    -0.283 OA
HETATM   12  C9  UNL     1       4.696  19.655  37.997  1.00  0.00     0.294 C 
ENDROOT
BRANCH  12  13
HETATM   13  N3  UNL     1       5.031  18.798  39.094  1.00  0.00    -0.065 N 
ATOM     14  H33 UNL     1       4.628  17.866  39.006  1.00  0.00     0.275 HD
ATOM     15  H32 UNL     1       6.013  18.521  39.094  1.00  0.00     0.275 HD
ATOM     16  H31 UNL     1       4.753  19.270  39.955  1.00  0.00     0.275 HD
ENDBRANCH  12  13
BRANCH  10  17
HETATM   17  O2  UNL     1       0.627  20.847  38.466  1.00  0.00    -0.335 OA
ATOM     18  H2  UNL     1       0.778  21.159  37.582  1.00  0.00     0.215 HD
ENDBRANCH  10  17
BRANCH  10  19
HETATM   19  C7  UNL     1       1.854  20.837  40.549  1.00  0.00     0.352 C 
HETATM   20  O3  UNL     1       2.946  21.049  41.135  1.00  0.00    -0.257 OA
BRANCH  19  21
HETATM   21  O4  UNL     1       0.709  20.819  41.299  1.00  0.00    -0.321 OA
HETATM   22  C8  UNL     1       0.394  21.722  42.321  1.00  0.00     0.213 C 
ENDBRANCH  19  21
ENDBRANCH  10  19
BRANCH   1  23
HETATM   23  O1  UNL     1       7.322  19.299  36.954  1.00  0.00    -0.285 OA
HETATM   24  C1  UNL     1       8.511  18.608  37.206  1.00  0.00     0.237 C 
ENDBRANCH   1  23
TORSDOF 5
ENDMDL
MODEL 2
REMARK VINA RESULT: -5.904420736      4.546      6.642
REMARK  5 active torsions:
REMARK  status: ('A' for Active; 'I' for Inactive)
REMARK    1  A    between atoms: O1_2  and  N1_3 
REMARK    2  A    between atoms: C6_12  and  O2_13 
REMARK    3  A    between atoms: C6_12  and  C7_15 
REMARK    4  A    between atoms: C7_15  and  O4_17 
REMARK    5  A    between atoms: C9_20  and  N3_21 
ROOT
HETATM    1  N1  UNL     1       6.551  18.725  36.489  1.00  0.00    -0.273 N 
ATOM      2  H1  UNL     1       7.122  19.266  35.840  1.00  0.00     0.193 HD
HETATM    3  C2  UNL     1       7.019  17.607  36.926  1.00  0.00     0.045 C 
HETATM    4  C3  UNL     1       8.287  16.938  36.645  1.00  0.00     0.061 C 
HETATM    5  C4  UNL     1       7.860  15.469  36.581  1.00  0.00     0.078 C 
HETATM    6  C5  UNL     1       6.933  15.390  37.770  1.00  0.00     0.271 C 
HETATM    7  N2  UNL     1       5.996  14.306  37.771  1.00  0.00     0.028 N 
ATOM      8  H21 UNL     1       5.732  13.814  36.917  1.00  0.00     0.288 HD
ATOM      9  H22 UNL     1       5.001  14.447  37.941  1.00  0.00     0.288 HD
HETATM   10  C6  UNL     1       6.874  13.718  38.760  1.00  0.00     0.432 C 
HETATM   11  O5  UNL     1       7.592  14.929  38.880  1.00  0.00    -0.283 OA
HETATM   12  C9  UNL     1       6.278  16.736  37.876  1.00  0.00     0.294 C 
ENDROOT
BRANCH  12  13
HETATM   13  N3  UNL     1       6.371  17.327  39.177  1.00  0.00    -0.065 N 
ATOM     14  H33 UNL     1       7.149  17.980  39.260  1.00  0.00     0.275 HD
ATOM     15  H32 UNL     1       5.618  17.989  39.365  1.00  0.00     0.275 HD
ATOM     16  H31 UNL     1       6.414  16.571  39.861  1.00  0.00     0.275 HD
ENDBRANCH  12  13
BRANCH  10  17
HETATM   17  O2  UNL     1       7.619  12.698  38.176  1.00  0.00    -0.335 OA
ATOM     18  H2  UNL     1       8.440  12.596  38.642  1.00  0.00     0.215 HD
ENDBRANCH  10  17
BRANCH  10  19
HETATM   19  C7  UNL     1       6.244  13.377  40.045  1.00  0.00     0.352 C 
HETATM   20  O3  UNL     1       6.333  12.201  40.480  1.00  0.00    -0.257 OA
BRANCH  19  21
HETATM   21  O4  UNL     1       5.560  14.295  40.794  1.00  0.00    -0.321 OA
HETATM   22  C8  UNL     1       5.971  14.800  42.033  1.00  0.00     0.213 C 
ENDBRANCH  19  21
ENDBRANCH  10  19
BRANCH   1  23
HETATM   23  O1  UNL     1       5.342  19.220  36.845  1.00  0.00    -0.285 OA
HETATM   24  C1  UNL     1       4.147  19.048  36.139  1.00  0.00     0.237 C 
ENDBRANCH   1  23
TORSDOF 5
ENDMDL
MODEL 3
REMARK VINA RESULT: -5.864070086      4.120      6.284
REMARK  5 active torsions:
REMARK  status: ('A' for Active; 'I' for Inactive)
REMARK    1  A    between atoms: O1_2  and  N1_3 
REMARK    2  A    between atoms: C6_12  and  O2_13 
REMARK    3  A    between atoms: C6_12  and  C7_15 
REMARK    4  A    between atoms: C7_15  and  O4_17 
REMARK    5  A    between atoms: C9_20  and  N3_21 
ROOT
HETATM    1  N1  UNL     1       7.256  13.031  39.927  1.00  0.00    -0.273 N 
ATOM      2  H1  UNL     1       7.133  12.058  39.649  1.00  0.00     0.193 HD
HETATM    3  C2  UNL     1       7.093  13.945  39.034  1.00  0.00     0.045 C 
HETATM    4  C3  UNL     1       6.747  13.834  37.619  1.00  0.00     0.061 C 
HETATM    5  C4  UNL     1       7.619  14.927  36.994  1.00  0.00     0.078 C 
HETATM    6  C5  UNL     1       7.422  16.050  37.984  1.00  0.00     0.271 C 
HETATM    7  N2  UNL     1       8.423  17.075  37.985  1.00  0.00     0.028 N 
ATOM      8  H21 UNL     1       9.357  16.925  37.603  1.00  0.00     0.288 HD
ATOM      9  H22 UNL     1       8.876  17.392  38.842  1.00  0.00     0.288 HD
HETATM   10  C6  UNL     1       7.426  17.868  37.300  1.00  0.00     0.432 C 
HETATM   11  O5  UNL     1       6.432  16.902  37.572  1.00  0.00    -0.283 OA
HETATM   12  C9  UNL     1       7.246  15.395  39.324  1.00  0.00     0.294 C 
ENDROOT
BRANCH  12  13
HETATM   13  N3  UNL     1       6.077  15.826  40.031  1.00  0.00    -0.065 N 
ATOM     14  H33 UNL     1       5.505  16.475  39.492  1.00  0.00     0.275 HD
ATOM     15  H32 UNL     1       5.383  15.086  40.133  1.00  0.00     0.275 HD
ATOM     16  H31 UNL     1       6.379  16.213  40.926  1.00  0.00     0.275 HD
ENDBRANCH  12  13
BRANCH  10  17
HETATM   17  O2  UNL     1       7.747  17.955  35.948  1.00  0.00    -0.335 OA
ATOM     18  H2  UNL     1       6.953  18.058  35.438  1.00  0.00     0.215 HD
ENDBRANCH  10  17
BRANCH  10  19
HETATM   19  C7  UNL     1       7.078  19.144  37.943  1.00  0.00     0.352 C 
HETATM   20  O3  UNL     1       7.746  20.174  37.670  1.00  0.00    -0.257 OA
BRANCH  19  21
HETATM   21  O4  UNL     1       6.046  19.260  38.835  1.00  0.00    -0.321 OA
HETATM   22  C8  UNL     1       4.732  19.619  38.513  1.00  0.00     0.213 C 
ENDBRANCH  19  21
ENDBRANCH  10  19
BRANCH   1  23
HETATM   23  O1  UNL     1       7.582  13.294  41.215  1.00  0.00    -0.285 OA
HETATM   24  C1  UNL     1       6.776  13.043  42.330  1.00  0.00     0.237 C 
ENDBRANCH   1  23
TORSDOF 5
ENDMDL
MODEL 4
REMARK VINA RESULT: -5.838443836      4.070      6.140
REMARK  5 active torsions:
REMARK  status: ('A' for Active; 'I' for Inactive)
REMARK    1  A    between atoms: O1_2  and  N1_3 
REMARK    2  A    between atoms: C6_12  and  O2_13 
REMARK    3  A    between atoms: C6_12  and  C7_15 
REMARK    4  A    between atoms: C7_15  and  O4_17 
REMARK    5  A    between atoms: C9_20  and  N3_21 
ROOT
HETATM    1  N1  UNL     1       8.282  13.119  39.457  1.00  0.00    -0.273 N 
ATOM      2  H1  UNL     1       8.611  12.216  39.115  1.00  0.00     0.193 HD
HETATM    3  C2  UNL     1       7.872  13.984  38.596  1.00  0.00     0.045 C 
HETATM    4  C3  UNL     1       7.789  13.904  37.139  1.00  0.00     0.061 C 
HETATM    5  C4  UNL     1       8.202  15.318  36.721  1.00  0.00     0.078 C 
HETATM    6  C5  UNL     1       7.431  16.147  37.720  1.00  0.00     0.271 C 
HETATM    7  N2  UNL     1       7.907  17.481  37.937  1.00  0.00     0.028 N 
ATOM      8  H21 UNL     1       8.860  17.763  37.707  1.00  0.00     0.288 HD
ATOM      9  H22 UNL     1       8.073  17.855  38.871  1.00  0.00     0.288 HD
HETATM   10  C6  UNL     1       6.769  17.878  37.137  1.00  0.00     0.432 C 
HETATM   11  O5  UNL     1       6.239  16.570  37.193  1.00  0.00    -0.283 OA
HETATM   12  C9  UNL     1       7.370  15.331  38.978  1.00  0.00     0.294 C 
ENDROOT
BRANCH  12  13
HETATM   13  N3  UNL     1       6.047  15.172  39.504  1.00  0.00    -0.065 N 
ATOM     14  H33 UNL     1       5.842  14.211  39.775  1.00  0.00     0.275 HD
ATOM     15  H32 UNL     1       5.934  15.599  40.423  1.00  0.00     0.275 HD
ATOM     16  H31 UNL     1       5.391  15.538  38.813  1.00  0.00     0.275 HD
ENDBRANCH  12  13
BRANCH  10  17
HETATM   17  O2  UNL     1       7.197  18.239  35.862  1.00  0.00    -0.335 OA
ATOM     18  H2  UNL     1       7.346  19.176  35.830  1.00  0.00     0.215 HD
ENDBRANCH  10  17
BRANCH  10  19
HETATM   19  C7  UNL     1       5.843  18.825  37.777  1.00  0.00     0.352 C 
HETATM   20  O3  UNL     1       5.828  18.918  39.031  1.00  0.00    -0.257 OA
BRANCH  19  21
HETATM   21  O4  UNL     1       4.990  19.618  37.058  1.00  0.00    -0.321 OA
HETATM   22  C8  UNL     1       3.786  19.199  36.480  1.00  0.00     0.213 C 
ENDBRANCH  19  21
ENDBRANCH  10  19
BRANCH   1  23
HETATM   23  O1  UNL     1       8.299  13.343  40.793  1.00  0.00    -0.285 OA
HETATM   24  C1  UNL     1       7.506  12.691  41.742  1.00  0.00     0.237 C 
ENDBRANCH   1  23
TORSDOF 5
ENDMDL
MODEL 5
REMARK VINA RESULT: -5.726495459      5.058      7.178
REMARK  5 active torsions:
REMARK  status: ('A' for Active; 'I' for Inactive)
REMARK    1  A    between atoms: O1_2  and  N1_3 
REMARK    2  A    between atoms: C6_12  and  O2_13 
REMARK    3  A    between atoms: C6_12  and  C7_15 
REMARK    4  A    between atoms: C7_15  and  O4_17 
REMARK    5  A    between atoms: C9_20  and  N3_21 
ROOT
HETATM    1  N1  UNL     1       6.453  18.642  38.341  1.00  0.00    -0.273 N 
ATOM      2  H1  UNL     1       6.940  19.406  37.873  1.00  0.00     0.193 HD
HETATM    3  C2  UNL     1       6.920  17.449  38.206  1.00  0.00     0.045 C 
HETATM    4  C3  UNL     1       8.082  16.966  37.464  1.00  0.00     0.061 C 
HETATM    5  C4  UNL     1       7.564  15.642  36.894  1.00  0.00     0.078 C 
HETATM    6  C5  UNL     1       6.842  15.078  38.094  1.00  0.00     0.271 C 
HETATM    7  N2  UNL     1       5.856  14.075  37.825  1.00  0.00     0.028 N 
ATOM      8  H21 UNL     1       5.425  13.967  36.906  1.00  0.00     0.288 HD
ATOM      9  H22 UNL     1       4.911  14.123  38.208  1.00  0.00     0.288 HD
HETATM   10  C6  UNL     1       6.847  13.149  38.327  1.00  0.00     0.432 C 
HETATM   11  O5  UNL     1       7.646  14.217  38.793  1.00  0.00    -0.283 OA
HETATM   12  C9  UNL     1       6.294  16.259  38.841  1.00  0.00     0.294 C 
ENDROOT
BRANCH  12  13
HETATM   13  N3  UNL     1       6.635  16.275  40.232  1.00  0.00    -0.065 N 
ATOM     14  H33 UNL     1       7.629  16.123  40.398  1.00  0.00     0.275 HD
ATOM     15  H32 UNL     1       6.570  17.206  40.644  1.00  0.00     0.275 HD
ATOM     16  H31 UNL     1       6.045  15.590  40.706  1.00  0.00     0.275 HD
ENDBRANCH  12  13
BRANCH  10  17
HETATM   17  O2  UNL     1       7.424  12.460  37.264  1.00  0.00    -0.335 OA
ATOM     18  H2  UNL     1       7.652  11.581  37.540  1.00  0.00     0.215 HD
ENDBRANCH  10  17
BRANCH  10  19
HETATM   19  C7  UNL     1       6.418  12.310  39.457  1.00  0.00     0.352 C 
HETATM   20  O3  UNL     1       7.109  11.309  39.777  1.00  0.00    -0.257 OA
BRANCH  19  21
HETATM   21  O4  UNL     1       5.288  12.577  40.181  1.00  0.00    -0.321 OA
HETATM   22  C8  UNL     1       5.259  13.158  41.454  1.00  0.00     0.213 C 
ENDBRANCH  19  21
ENDBRANCH  10  19
BRANCH   1  23
HETATM   23  O1  UNL     1       5.350  18.936  39.070  1.00  0.00    -0.285 OA
HETATM   24  C1  UNL     1       4.247  19.671  38.625  1.00  0.00     0.237 C 
ENDBRANCH   1  23
TORSDOF 5
ENDMDL
