MODEL 1
REMARK VINA RESULT: -5.644255160      0.000      0.000
REMARK  4 active torsions:
REMARK  status: ('A' for Active; 'I' for Inactive)
REMARK    1  A    between atoms: N1_2  and  O1_3 
REMARK    2  A    between atoms: N1_2  and  C2_5 
REMARK    3  A    between atoms: C3_8  and  N3_9 
REMARK    4  A    between atoms: C5_16  and  C6_17 
ROOT
HETATM    1  C2  UNL     1       4.484  12.299  42.551  1.00  0.00     0.160 A 
HETATM    2  N2  UNL     1       3.488  11.908  43.408  1.00  0.00    -0.174 N 
ATOM      3  H2  UNL     1       3.457  12.304  44.348  1.00  0.00     0.186 HD
HETATM    4  C3  UNL     1       2.552  11.017  43.044  1.00  0.00     0.678 A 
HETATM    5  N4  UNL     1       2.596  10.494  41.797  1.00  0.00    -0.178 N 
ATOM      6  H4  UNL     1       1.890   9.816  41.510  1.00  0.00     0.185 HD
HETATM    7  C4  UNL     1       3.564  10.859  40.930  1.00  0.00     0.149 A 
HETATM    8  N5  UNL     1       3.591  10.294  39.623  1.00  0.00    -0.081 NA
HETATM    9  C5  UNL     1       4.535  11.773  41.285  1.00  0.00     0.098 A 
ENDROOT
BRANCH   9  10
HETATM   10  C6  UNL     1       5.556  12.156  40.324  1.00  0.00     0.143 A 
HETATM   11  N6  UNL     1       5.452  13.060  39.333  1.00  0.00    -0.279 N 
HETATM   12  N7  UNL     1       6.586  13.163  38.664  1.00  0.00    -0.245 N 
ATOM     13  H6  UNL     1       4.608  13.594  39.125  1.00  0.00     0.189 HD
HETATM   14  C7  UNL     1       6.832  14.048  37.525  1.00  0.00     0.183 C 
HETATM   15  C8  UNL     1       7.435  12.302  39.244  1.00  0.00     0.344 A 
HETATM   16  O2  UNL     1       8.624  12.153  38.843  1.00  0.00    -0.245 OA
HETATM   17  N8  UNL     1       6.811  11.681  40.264  1.00  0.00    -0.286 N 
HETATM   18  C9  UNL     1       7.470  10.689  41.105  1.00  0.00     0.163 C 
ENDBRANCH   9  10
BRANCH   1  19
HETATM   19  N1  UNL     1       5.450  13.231  42.998  1.00  0.00    -0.247 N 
HETATM   20  C1  UNL     1       5.554  14.607  42.667  1.00  0.00     0.187 C 
BRANCH  19  21
HETATM   21  O1  UNL     1       6.395  12.722  43.858  1.00  0.00    -0.286 OA
ATOM     22  H1  UNL     1       7.279  13.059  43.777  1.00  0.00     0.244 HD
ENDBRANCH  19  21
ENDBRANCH   1  19
BRANCH   4  23
HETATM   23  N3  UNL     1       1.606  10.651  43.870  1.00  0.00    -0.234 N 
ATOM     24  H32 UNL     1       1.849  10.299  44.795  1.00  0.00     0.174 HD
ATOM     25  H31 UNL     1       0.623  10.710  43.607  1.00  0.00     0.174 HD
ENDBRANCH   4  23
TORSDOF 4
ENDMDL
MODEL 2
REMARK VINA RESULT: -5.556434039      3.223      5.205
REMARK  4 active torsions:
REMARK  status: ('A' for Active; 'I' for Inactive)
REMARK    1  A    between atoms: N1_2  and  O1_3 
REMARK    2  A    between atoms: N1_2  and  C2_5 
REMARK    3  A    between atoms: C3_8  and  N3_9 
REMARK    4  A    between atoms: C5_16  and  C6_17 
ROOT
HETATM    1  C2  UNL     1       6.932  15.353  40.263  1.00  0.00     0.160 A 
HETATM    2  N2  UNL     1       6.483  16.626  40.023  1.00  0.00    -0.174 N 
ATOM      3  H2  UNL     1       6.128  17.182  40.801  1.00  0.00     0.186 HD
HETATM    4  C3  UNL     1       6.497  17.160  38.792  1.00  0.00     0.678 A 
HETATM    5  N4  UNL     1       6.969  16.419  37.762  1.00  0.00    -0.178 N 
ATOM      6  H4  UNL     1       6.985  16.815  36.822  1.00  0.00     0.185 HD
HETATM    7  C4  UNL     1       7.419  15.163  37.966  1.00  0.00     0.149 A 
HETATM    8  N5  UNL     1       7.911  14.402  36.868  1.00  0.00    -0.081 NA
HETATM    9  C5  UNL     1       7.413  14.596  39.224  1.00  0.00     0.098 A 
ENDROOT
BRANCH   9  10
HETATM   10  C6  UNL     1       7.917  13.246  39.414  1.00  0.00     0.143 A 
HETATM   11  N6  UNL     1       9.199  12.860  39.543  1.00  0.00    -0.279 N 
HETATM   12  N7  UNL     1       9.286  11.553  39.717  1.00  0.00    -0.245 N 
ATOM     13  H6  UNL     1       9.999  13.493  39.510  1.00  0.00     0.189 HD
HETATM   14  C7  UNL     1      10.523  10.792  39.891  1.00  0.00     0.183 C 
HETATM   15  C8  UNL     1       8.025  11.095  39.698  1.00  0.00     0.344 A 
HETATM   16  O2  UNL     1       7.750   9.870  39.840  1.00  0.00    -0.245 OA
HETATM   17  N8  UNL     1       7.180  12.128  39.513  1.00  0.00    -0.286 N 
HETATM   18  C9  UNL     1       5.732  11.961  39.456  1.00  0.00     0.163 C 
ENDBRANCH   9  10
BRANCH   1  19
HETATM   19  N1  UNL     1       6.879  14.841  41.581  1.00  0.00    -0.247 N 
HETATM   20  C1  UNL     1       5.732  14.454  42.321  1.00  0.00     0.187 C 
BRANCH  19  21
HETATM   21  O1  UNL     1       8.098  14.712  42.204  1.00  0.00    -0.286 OA
ATOM     22  H1  UNL     1       8.686  15.457  42.162  1.00  0.00     0.244 HD
ENDBRANCH  19  21
ENDBRANCH   1  19
BRANCH   4  23
HETATM   23  N3  UNL     1       6.066  18.375  38.574  1.00  0.00    -0.234 N 
ATOM     24  H32 UNL     1       5.358  18.779  39.186  1.00  0.00     0.174 HD
ATOM     25  H31 UNL     1       6.425  18.933  37.799  1.00  0.00     0.174 HD
ENDBRANCH   4  23
TORSDOF 4
ENDMDL
MODEL 3
REMARK VINA RESULT: -5.471369745      2.646      6.367
REMARK  4 active torsions:
REMARK  status: ('A' for Active; 'I' for Inactive)
REMARK    1  A    between atoms: N1_2  and  O1_3 
REMARK    2  A    between atoms: N1_2  and  C2_5 
REMARK    3  A    between atoms: C3_8  and  N3_9 
REMARK    4  A    between atoms: C5_16  and  C6_17 
ROOT
HETATM    1  C2  UNL     1       7.494  14.569  37.987  1.00  0.00     0.160 A 
HETATM    2  N2  UNL     1       7.857  15.335  36.909  1.00  0.00    -0.174 N 
ATOM      3  H2  UNL     1       8.306  14.886  36.109  1.00  0.00     0.186 HD
HETATM    4  C3  UNL     1       7.639  16.659  36.876  1.00  0.00     0.678 A 
HETATM    5  N4  UNL     1       7.043  17.250  37.938  1.00  0.00    -0.178 N 
ATOM      6  H4  UNL     1       6.872  18.255  37.925  1.00  0.00     0.185 HD
HETATM    7  C4  UNL     1       6.674  16.523  39.014  1.00  0.00     0.149 A 
HETATM    8  N5  UNL     1       6.049  17.167  40.120  1.00  0.00    -0.081 NA
HETATM    9  C5  UNL     1       6.889  15.161  39.066  1.00  0.00     0.098 A 
ENDROOT
BRANCH   9  10
HETATM   10  C6  UNL     1       6.467  14.404  40.233  1.00  0.00     0.143 A 
HETATM   11  N6  UNL     1       5.287  13.789  40.428  1.00  0.00    -0.279 N 
HETATM   12  N7  UNL     1       5.258  13.182  41.602  1.00  0.00    -0.245 N 
ATOM     13  H6  UNL     1       4.517  13.790  39.759  1.00  0.00     0.189 HD
HETATM   14  C7  UNL     1       4.134  12.416  42.142  1.00  0.00     0.183 C 
HETATM   15  C8  UNL     1       6.450  13.418  42.168  1.00  0.00     0.344 A 
HETATM   16  O2  UNL     1       6.754  12.971  43.311  1.00  0.00    -0.245 OA
HETATM   17  N8  UNL     1       7.198  14.166  41.335  1.00  0.00    -0.286 N 
HETATM   18  C9  UNL     1       8.557  14.586  41.656  1.00  0.00     0.163 C 
ENDBRANCH   9  10
BRANCH   1  19
HETATM   19  N1  UNL     1       7.764  13.180  37.966  1.00  0.00    -0.247 N 
HETATM   20  C1  UNL     1       8.881  12.500  38.515  1.00  0.00     0.187 C 
BRANCH  19  21
HETATM   21  O1  UNL     1       6.815  12.414  37.331  1.00  0.00    -0.286 OA
ATOM     22  H1  UNL     1       6.797  11.487  37.540  1.00  0.00     0.244 HD
ENDBRANCH  19  21
ENDBRANCH   1  19
BRANCH   4  23
HETATM   23  N3  UNL     1       7.989  17.379  35.843  1.00  0.00    -0.234 N 
ATOM     24  H32 UNL     1       7.450  18.209  35.597  1.00  0.00     0.174 HD
ATOM     25  H31 UNL     1       8.796  17.128  35.272  1.00  0.00     0.174 HD
ENDBRANCH   4  23
TORSDOF 4
ENDMDL
MODEL 4
REMARK VINA RESULT: -5.449450034      2.121      5.380
REMARK  4 active torsions:
REMARK  status: ('A' for Active; 'I' for Inactive)
REMARK    1  A    between atoms: N1_2  and  O1_3 
REMARK    2  A    between atoms: N1_2  and  C2_5 
REMARK    3  A    between atoms: C3_8  and  N3_9 
REMARK    4  A    between atoms: C5_16  and  C6_17 
ROOT
HETATM    1  C2  UNL     1       5.807  12.800  39.594  1.00  0.00     0.160 A 
HETATM    2  N2  UNL     1       5.878  13.491  38.412  1.00  0.00    -0.174 N 
ATOM      3  H2  UNL     1       5.591  13.029  37.548  1.00  0.00     0.186 HD
HETATM    4  C3  UNL     1       6.315  14.759  38.359  1.00  0.00     0.678 A 
HETATM    5  N4  UNL     1       6.695  15.368  39.506  1.00  0.00    -0.178 N 
ATOM      6  H4  UNL     1       7.029  16.331  39.479  1.00  0.00     0.185 HD
HETATM    7  C4  UNL     1       6.636  14.715  40.686  1.00  0.00     0.149 A 
HETATM    8  N5  UNL     1       7.041  15.376  41.880  1.00  0.00    -0.081 NA
HETATM    9  C5  UNL     1       6.189  13.411  40.761  1.00  0.00     0.098 A 
ENDROOT
BRANCH   9  10
HETATM   10  C6  UNL     1       6.124  12.739  42.048  1.00  0.00     0.143 A 
HETATM   11  N6  UNL     1       5.210  12.913  43.019  1.00  0.00    -0.279 N 
HETATM   12  N7  UNL     1       5.454  12.121  44.048  1.00  0.00    -0.245 N 
ATOM     13  H6  UNL     1       4.431  13.571  42.968  1.00  0.00     0.189 HD
HETATM   14  C7  UNL     1       4.664  12.045  45.277  1.00  0.00     0.183 C 
HETATM   15  C8  UNL     1       6.553  11.424  43.723  1.00  0.00     0.344 A 
HETATM   16  O2  UNL     1       7.061  10.565  44.499  1.00  0.00    -0.245 OA
HETATM   17  N8  UNL     1       6.970  11.797  42.498  1.00  0.00    -0.286 N 
HETATM   18  C9  UNL     1       8.140  11.214  41.851  1.00  0.00     0.163 C 
ENDBRANCH   9  10
BRANCH   1  19
HETATM   19  N1  UNL     1       5.350  11.461  39.582  1.00  0.00    -0.247 N 
HETATM   20  C1  UNL     1       4.142  10.946  40.119  1.00  0.00     0.187 C 
BRANCH  19  21
HETATM   21  O1  UNL     1       6.195  10.564  38.970  1.00  0.00    -0.286 OA
ATOM     22  H1  UNL     1       6.318   9.725  39.398  1.00  0.00     0.244 HD
ENDBRANCH  19  21
ENDBRANCH   1  19
BRANCH   4  23
HETATM   23  N3  UNL     1       6.379  15.408  37.226  1.00  0.00    -0.234 N 
ATOM     24  H32 UNL     1       5.886  15.051  36.408  1.00  0.00     0.174 HD
ATOM     25  H31 UNL     1       6.916  16.271  37.141  1.00  0.00     0.174 HD
ENDBRANCH   4  23
TORSDOF 4
ENDMDL
MODEL 5
REMARK VINA RESULT: -5.417892218      6.128      8.338
REMARK  4 active torsions:
REMARK  status: ('A' for Active; 'I' for Inactive)
REMARK    1  A    between atoms: N1_2  and  O1_3 
REMARK    2  A    between atoms: N1_2  and  C2_5 
REMARK    3  A    between atoms: C3_8  and  N3_9 
REMARK    4  A    between atoms: C5_16  and  C6_17 
ROOT
HETATM    1  C2  UNL     1       7.918  17.428  36.451  1.00  0.00     0.160 A 
HETATM    2  N2  UNL     1       8.845  16.488  36.083  1.00  0.00    -0.174 N 
ATOM      3  H2  UNL     1       9.728  16.794  35.672  1.00  0.00     0.186 HD
HETATM    4  C3  UNL     1       8.624  15.174  36.248  1.00  0.00     0.678 A 
HETATM    5  N4  UNL     1       7.452  14.771  36.793  1.00  0.00    -0.178 N 
ATOM      6  H4  UNL     1       7.273  13.776  36.923  1.00  0.00     0.185 HD
HETATM    7  C4  UNL     1       6.520  15.673  37.167  1.00  0.00     0.149 A 
HETATM    8  N5  UNL     1       5.294  15.226  37.738  1.00  0.00    -0.081 NA
HETATM    9  C5  UNL     1       6.729  17.028  37.006  1.00  0.00     0.098 A 
ENDROOT
BRANCH   9  10
HETATM   10  C6  UNL     1       5.711  17.975  37.431  1.00  0.00     0.143 A 
HETATM   11  N6  UNL     1       4.664  18.427  36.719  1.00  0.00    -0.279 N 
HETATM   12  N7  UNL     1       3.935  19.269  37.430  1.00  0.00    -0.245 N 
ATOM     13  H6  UNL     1       4.459  18.156  35.757  1.00  0.00     0.189 HD
HETATM   14  C7  UNL     1       2.724  19.951  36.973  1.00  0.00     0.183 C 
HETATM   15  C8  UNL     1       4.535  19.355  38.626  1.00  0.00     0.344 A 
HETATM   16  O2  UNL     1       4.087  20.085  39.555  1.00  0.00    -0.245 OA
HETATM   17  N8  UNL     1       5.625  18.563  38.635  1.00  0.00    -0.286 N 
HETATM   18  C9  UNL     1       6.492  18.427  39.800  1.00  0.00     0.163 C 
ENDBRANCH   9  10
BRANCH   1  19
HETATM   19  N1  UNL     1       8.206  18.797  36.239  1.00  0.00    -0.247 N 
HETATM   20  C1  UNL     1       9.202  19.588  36.869  1.00  0.00     0.187 C 
BRANCH  19  21
HETATM   21  O1  UNL     1       7.411  19.419  35.305  1.00  0.00    -0.286 OA
ATOM     22  H1  UNL     1       7.788  20.155  34.837  1.00  0.00     0.244 HD
ENDBRANCH  19  21
ENDBRANCH   1  19
BRANCH   4  23
HETATM   23  N3  UNL     1       9.515  14.285  35.893  1.00  0.00    -0.234 N 
ATOM     24  H32 UNL     1      10.109  13.853  36.599  1.00  0.00     0.174 HD
ATOM     25  H31 UNL     1       9.630  14.013  34.917  1.00  0.00     0.174 HD
ENDBRANCH   4  23
TORSDOF 4
ENDMDL
