MODEL 1
REMARK VINA RESULT: -6.761413934      0.000      0.000
REMARK  1 active torsions:
REMARK  status: ('A' for Active; 'I' for Inactive)
REMARK       I    between atoms: C1_2  and  N2_4 
REMARK    1  A    between atoms: C5_11  and  N5_12 
ROOT
HETATM    1  N1  UNL     1       6.772  11.524  40.454  1.00  0.00    -0.039 NA
HETATM    2  C1  UNL     1       7.337  12.091  39.278  1.00  0.00     0.343 C 
HETATM    3  O1  UNL     1       7.966  11.310  38.514  1.00  0.00    -0.250 OA
HETATM    4  N2  UNL     1       7.194  13.474  38.989  1.00  0.00    -0.224 N 
HETATM    5  C2  UNL     1       6.552  14.394  39.723  1.00  0.00     0.155 A 
HETATM    6  C3  UNL     1       6.630  15.641  39.111  1.00  0.00     0.137 A 
HETATM    7  N3  UNL     1       6.174  16.871  39.408  1.00  0.00    -0.327 N 
ATOM      8  H3  UNL     1       5.638  16.993  40.267  1.00  0.00     0.168 HD
HETATM    9  C4  UNL     1       6.388  17.950  38.634  1.00  0.00     0.157 A 
HETATM   10  N4  UNL     1       5.881  19.234  38.997  1.00  0.00    -0.080 NA
HETATM   11  C5  UNL     1       7.111  17.755  37.482  1.00  0.00     0.212 A 
HETATM   12  C6  UNL     1       7.569  16.483  37.197  1.00  0.00     0.294 A 
HETATM   13  O4  UNL     1       8.242  16.280  36.138  1.00  0.00    -0.265 OA
HETATM   14  N6  UNL     1       7.346  15.420  37.984  1.00  0.00    -0.211 N 
HETATM   15  C7  UNL     1       7.684  14.114  37.914  1.00  0.00     0.345 A 
HETATM   16  O5  UNL     1       8.348  13.546  37.008  1.00  0.00    -0.245 OA
ENDROOT
BRANCH  11  17
HETATM   17  N5  UNL     1       7.389  18.832  36.602  1.00  0.00    -0.106 N 
HETATM   18  O2  UNL     1       8.393  19.527  36.804  1.00  0.00    -0.531 OA
HETATM   19  O3  UNL     1       6.537  19.066  35.563  1.00  0.00    -0.531 OA
ENDBRANCH  11  17
TORSDOF 1
ENDMDL
MODEL 2
REMARK VINA RESULT: -6.519980718      2.141      6.032
REMARK  1 active torsions:
REMARK  status: ('A' for Active; 'I' for Inactive)
REMARK       I    between atoms: C1_2  and  N2_4 
REMARK    1  A    between atoms: C5_11  and  N5_12 
ROOT
HETATM    1  N1  UNL     1       8.241  19.498  36.109  1.00  0.00    -0.039 NA
HETATM    2  C1  UNL     1       7.601  19.087  37.310  1.00  0.00     0.343 C 
HETATM    3  O1  UNL     1       7.211  19.997  38.090  1.00  0.00    -0.250 OA
HETATM    4  N2  UNL     1       7.416  17.710  37.607  1.00  0.00    -0.224 N 
HETATM    5  C2  UNL     1       7.787  16.661  36.859  1.00  0.00     0.155 A 
HETATM    6  C3  UNL     1       7.433  15.471  37.486  1.00  0.00     0.137 A 
HETATM    7  N3  UNL     1       7.563  14.166  37.183  1.00  0.00    -0.327 N 
ATOM      8  H3  UNL     1       8.018  13.918  36.304  1.00  0.00     0.168 HD
HETATM    9  C4  UNL     1       7.126  13.172  37.977  1.00  0.00     0.157 A 
HETATM   10  N4  UNL     1       7.291  11.804  37.606  1.00  0.00    -0.080 NA
HETATM   11  C5  UNL     1       6.517  13.537  39.152  1.00  0.00     0.212 A 
HETATM   12  C6  UNL     1       6.393  14.882  39.442  1.00  0.00     0.294 A 
HETATM   13  O4  UNL     1       5.834  15.243  40.525  1.00  0.00    -0.265 OA
HETATM   14  N6  UNL     1       6.837  15.859  38.637  1.00  0.00    -0.211 N 
HETATM   15  C7  UNL     1       6.829  17.208  38.706  1.00  0.00     0.345 A 
HETATM   16  O5  UNL     1       6.358  17.921  39.632  1.00  0.00    -0.245 OA
ENDROOT
BRANCH  11  17
HETATM   17  N5  UNL     1       6.024  12.560  40.054  1.00  0.00    -0.106 N 
HETATM   18  O2  UNL     1       4.871  12.136  39.906  1.00  0.00    -0.531 OA
HETATM   19  O3  UNL     1       6.840  12.121  41.055  1.00  0.00    -0.531 OA
ENDBRANCH  11  17
TORSDOF 1
ENDMDL
MODEL 3
REMARK VINA RESULT: -6.475488291      2.371      6.050
REMARK  1 active torsions:
REMARK  status: ('A' for Active; 'I' for Inactive)
REMARK       I    between atoms: C1_2  and  N2_4 
REMARK    1  A    between atoms: C5_11  and  N5_12 
ROOT
HETATM    1  N1  UNL     1       7.116  18.877  35.710  1.00  0.00    -0.039 NA
HETATM    2  C1  UNL     1       6.877  18.677  37.098  1.00  0.00     0.343 C 
HETATM    3  O1  UNL     1       6.794  19.709  37.817  1.00  0.00    -0.250 OA
HETATM    4  N2  UNL     1       6.743  17.370  37.637  1.00  0.00    -0.224 N 
HETATM    5  C2  UNL     1       6.813  16.207  36.974  1.00  0.00     0.155 A 
HETATM    6  C3  UNL     1       6.631  15.141  37.848  1.00  0.00     0.137 A 
HETATM    7  N3  UNL     1       6.605  13.802  37.716  1.00  0.00    -0.327 N 
ATOM      8  H3  UNL     1       6.745  13.406  36.786  1.00  0.00     0.168 HD
HETATM    9  C4  UNL     1       6.406  12.957  38.744  1.00  0.00     0.157 A 
HETATM   10  N4  UNL     1       6.389  11.544  38.547  1.00  0.00    -0.080 NA
HETATM   11  C5  UNL     1       6.219  13.519  39.983  1.00  0.00     0.212 A 
HETATM   12  C6  UNL     1       6.248  14.896  40.096  1.00  0.00     0.294 A 
HETATM   13  O4  UNL     1       6.079  15.438  41.233  1.00  0.00    -0.265 OA
HETATM   14  N6  UNL     1       6.450  15.722  39.058  1.00  0.00    -0.211 N 
HETATM   15  C7  UNL     1       6.518  17.064  38.926  1.00  0.00     0.345 A 
HETATM   16  O5  UNL     1       6.397  17.926  39.836  1.00  0.00    -0.245 OA
ENDROOT
BRANCH  11  17
HETATM   17  N5  UNL     1       6.002  12.710  41.128  1.00  0.00    -0.106 N 
HETATM   18  O2  UNL     1       6.978  12.345  41.795  1.00  0.00    -0.531 OA
HETATM   19  O3  UNL     1       4.724  12.362  41.452  1.00  0.00    -0.531 OA
ENDBRANCH  11  17
TORSDOF 1
ENDMDL
MODEL 4
REMARK VINA RESULT: -6.266978689      1.249      1.462
REMARK  1 active torsions:
REMARK  status: ('A' for Active; 'I' for Inactive)
REMARK       I    between atoms: C1_2  and  N2_4 
REMARK    1  A    between atoms: C5_11  and  N5_12 
ROOT
HETATM    1  N1  UNL     1       5.123  11.253  41.049  1.00  0.00    -0.039 NA
HETATM    2  C1  UNL     1       5.872  11.565  39.881  1.00  0.00     0.343 C 
HETATM    3  O1  UNL     1       6.275  10.594  39.185  1.00  0.00    -0.250 OA
HETATM    4  N2  UNL     1       6.147  12.913  39.526  1.00  0.00    -0.224 N 
HETATM    5  C2  UNL     1       5.773  14.019  40.184  1.00  0.00     0.155 A 
HETATM    6  C3  UNL     1       6.233  15.153  39.524  1.00  0.00     0.137 A 
HETATM    7  N3  UNL     1       6.144  16.478  39.743  1.00  0.00    -0.327 N 
ATOM      8  H3  UNL     1       5.634  16.798  40.567  1.00  0.00     0.168 HD
HETATM    9  C4  UNL     1       6.690  17.404  38.935  1.00  0.00     0.157 A 
HETATM   10  N4  UNL     1       6.565  18.797  39.215  1.00  0.00    -0.080 NA
HETATM   11  C5  UNL     1       7.369  16.944  37.833  1.00  0.00     0.212 A 
HETATM   12  C6  UNL     1       7.448  15.580  37.627  1.00  0.00     0.294 A 
HETATM   13  O4  UNL     1       8.072  15.132  36.614  1.00  0.00    -0.265 OA
HETATM   14  N6  UNL     1       6.896  14.672  38.446  1.00  0.00    -0.211 N 
HETATM   15  C7  UNL     1       6.842  13.323  38.451  1.00  0.00     0.345 A 
HETATM   16  O5  UNL     1       7.346  12.537  37.606  1.00  0.00    -0.245 OA
ENDROOT
BRANCH  11  17
HETATM   17  N5  UNL     1       7.980  17.843  36.922  1.00  0.00    -0.106 N 
HETATM   18  O2  UNL     1       7.329  18.242  35.948  1.00  0.00    -0.531 OA
HETATM   19  O3  UNL     1       9.265  18.237  37.152  1.00  0.00    -0.531 OA
ENDBRANCH  11  17
TORSDOF 1
ENDMDL
MODEL 5
REMARK VINA RESULT: -6.119702910      1.780      5.575
REMARK  1 active torsions:
REMARK  status: ('A' for Active; 'I' for Inactive)
REMARK       I    between atoms: C1_2  and  N2_4 
REMARK    1  A    between atoms: C5_11  and  N5_12 
ROOT
HETATM    1  N1  UNL     1       7.416  19.645  37.809  1.00  0.00    -0.039 NA
HETATM    2  C1  UNL     1       7.466  18.318  37.300  1.00  0.00     0.343 C 
HETATM    3  O1  UNL     1       7.869  18.176  36.114  1.00  0.00    -0.250 OA
HETATM    4  N2  UNL     1       7.077  17.211  38.101  1.00  0.00    -0.224 N 
HETATM    5  C2  UNL     1       6.635  17.239  39.366  1.00  0.00     0.155 A 
HETATM    6  C3  UNL     1       6.354  15.951  39.809  1.00  0.00     0.137 A 
HETATM    7  N3  UNL     1       5.900  15.425  40.961  1.00  0.00    -0.327 N 
ATOM      8  H3  UNL     1       5.691  16.059  41.733  1.00  0.00     0.168 HD
HETATM    9  C4  UNL     1       5.705  14.107  41.150  1.00  0.00     0.157 A 
HETATM   10  N4  UNL     1       5.220  13.602  42.393  1.00  0.00    -0.080 NA
HETATM   11  C5  UNL     1       5.995  13.278  40.094  1.00  0.00     0.212 A 
HETATM   12  C6  UNL     1       6.461  13.841  38.921  1.00  0.00     0.294 A 
HETATM   13  O4  UNL     1       6.735  13.093  37.930  1.00  0.00    -0.265 OA
HETATM   14  N6  UNL     1       6.648  15.158  38.752  1.00  0.00    -0.211 N 
HETATM   15  C7  UNL     1       7.083  15.921  37.726  1.00  0.00     0.345 A 
HETATM   16  O5  UNL     1       7.445  15.528  36.585  1.00  0.00    -0.245 OA
ENDROOT
BRANCH  11  17
HETATM   17  N5  UNL     1       5.821  11.875  40.197  1.00  0.00    -0.106 N 
HETATM   18  O2  UNL     1       6.762  11.183  40.607  1.00  0.00    -0.531 OA
HETATM   19  O3  UNL     1       4.621  11.335  39.838  1.00  0.00    -0.531 OA
ENDBRANCH  11  17
TORSDOF 1
ENDMDL
