MODEL 1
REMARK VINA RESULT: -6.357814210      0.000      0.000
REMARK  4 active torsions:
REMARK  status: ('A' for Active; 'I' for Inactive)
REMARK    1  A    between atoms: O1_3  and  C3_4 
REMARK    2  A    between atoms: C3_4  and  N1_5 
REMARK    3  A    between atoms: N2_8  and  O3_9 
REMARK    4  A    between atoms: C6_14  and  N4_15 
ROOT
HETATM    1  C1  UNL     1       4.365  19.026  36.615  1.00  0.00     0.045 C 
HETATM    2  C2  UNL     1       4.909  18.971  37.690  1.00  0.00     0.049 C 
HETATM    3  O1  UNL     1       5.505  18.891  38.890  1.00  0.00    -0.256 OA
ENDROOT
BRANCH   3   4
HETATM    4  C3  UNL     1       6.737  18.335  39.041  1.00  0.00     0.258 C 
BRANCH   4   5
HETATM    5  N1  UNL     1       7.164  17.264  38.260  1.00  0.00    -0.242 N 
HETATM    6  C4  UNL     1       7.930  17.416  37.138  1.00  0.00     0.361 A 
HETATM    7  O2  UNL     1       8.356  18.503  36.646  1.00  0.00    -0.243 OA
HETATM    8  N2  UNL     1       8.186  16.228  36.601  1.00  0.00    -0.152 N 
HETATM    9  C5  UNL     1       7.606  15.272  37.341  1.00  0.00     0.186 A 
HETATM   10  N3  UNL     1       7.517  13.938  37.300  1.00  0.00    -0.172 N 
HETATM   11  C9  UNL     1       6.967  15.940  38.380  1.00  0.00     0.161 A 
HETATM   12  C6  UNL     1       6.832  13.255  38.233  1.00  0.00     0.682 A 
ATOM     13  H3  UNL     1       7.977  13.429  36.546  1.00  0.00     0.186 HD
HETATM   14  N5  UNL     1       6.207  13.880  39.246  1.00  0.00    -0.150 N 
HETATM   15  C7  UNL     1       5.474  13.094  40.239  1.00  0.00     0.179 C 
HETATM   16  C8  UNL     1       6.273  15.218  39.322  1.00  0.00     0.292 A 
HETATM   17  O4  UNL     1       5.708  15.849  40.246  1.00  0.00    -0.265 OA
BRANCH   8  18
HETATM   18  O3  UNL     1       8.924  15.927  35.461  1.00  0.00    -0.277 OA
ATOM     19  H3  UNL     1       9.499  15.187  35.302  1.00  0.00     0.245 HD
ENDBRANCH   8  18
BRANCH  12  20
HETATM   20  N4  UNL     1       6.749  11.960  38.186  1.00  0.00    -0.234 N 
ATOM     21  H42 UNL     1       7.175  11.490  37.387  1.00  0.00     0.174 HD
ATOM     22  H41 UNL     1       6.277  11.437  38.924  1.00  0.00     0.174 HD
ENDBRANCH  12  20
ENDBRANCH   4   5
ENDBRANCH   3   4
TORSDOF 4
ENDMDL
MODEL 2
REMARK VINA RESULT: -6.248349580      1.968      4.671
REMARK  4 active torsions:
REMARK  status: ('A' for Active; 'I' for Inactive)
REMARK    1  A    between atoms: O1_3  and  C3_4 
REMARK    2  A    between atoms: C3_4  and  N1_5 
REMARK    3  A    between atoms: N2_8  and  O3_9 
REMARK    4  A    between atoms: C6_14  and  N4_15 
ROOT
HETATM    1  C1  UNL     1       9.165  14.388  41.351  1.00  0.00     0.045 C 
HETATM    2  C2  UNL     1       7.980  14.320  41.136  1.00  0.00     0.049 C 
HETATM    3  O1  UNL     1       6.660  14.267  40.896  1.00  0.00    -0.256 OA
ENDROOT
BRANCH   3   4
HETATM    4  C3  UNL     1       6.164  14.244  39.631  1.00  0.00     0.258 C 
BRANCH   4   5
HETATM    5  N1  UNL     1       6.916  14.660  38.535  1.00  0.00    -0.242 N 
HETATM    6  C4  UNL     1       7.576  13.793  37.709  1.00  0.00     0.361 A 
HETATM    7  O2  UNL     1       7.613  12.530  37.801  1.00  0.00    -0.243 OA
HETATM    8  N2  UNL     1       8.205  14.469  36.753  1.00  0.00    -0.152 N 
HETATM    9  C5  UNL     1       7.981  15.781  36.917  1.00  0.00     0.186 A 
HETATM   10  N3  UNL     1       8.337  16.908  36.291  1.00  0.00    -0.172 N 
HETATM   11  C9  UNL     1       7.169  15.884  38.041  1.00  0.00     0.161 A 
HETATM   12  C6  UNL     1       7.925  18.110  36.729  1.00  0.00     0.682 A 
ATOM     13  H3  UNL     1       8.933  16.855  35.465  1.00  0.00     0.186 HD
HETATM   14  N5  UNL     1       7.140  18.233  37.813  1.00  0.00    -0.150 N 
HETATM   15  C7  UNL     1       6.716  19.563  38.252  1.00  0.00     0.179 C 
HETATM   16  C8  UNL     1       6.762  17.126  38.469  1.00  0.00     0.292 A 
HETATM   17  O4  UNL     1       6.031  17.185  39.485  1.00  0.00    -0.265 OA
BRANCH   8  18
HETATM   18  O3  UNL     1       8.989  13.982  35.713  1.00  0.00    -0.277 OA
ATOM     19  H3  UNL     1       8.799  13.278  35.103  1.00  0.00     0.245 HD
ENDBRANCH   8  18
BRANCH  12  20
HETATM   20  N4  UNL     1       8.275  19.200  36.115  1.00  0.00    -0.234 N 
ATOM     21  H42 UNL     1       9.204  19.574  36.312  1.00  0.00     0.174 HD
ATOM     22  H41 UNL     1       7.642  19.660  35.461  1.00  0.00     0.174 HD
ENDBRANCH  12  20
ENDBRANCH   4   5
ENDBRANCH   3   4
TORSDOF 4
ENDMDL
MODEL 3
REMARK VINA RESULT: -6.228437701      1.845      2.437
REMARK  4 active torsions:
REMARK  status: ('A' for Active; 'I' for Inactive)
REMARK    1  A    between atoms: O1_3  and  C3_4 
REMARK    2  A    between atoms: C3_4  and  N1_5 
REMARK    3  A    between atoms: N2_8  and  O3_9 
REMARK    4  A    between atoms: C6_14  and  N4_15 
ROOT
HETATM    1  C1  UNL     1       3.785  19.031  36.491  1.00  0.00     0.045 C 
HETATM    2  C2  UNL     1       4.309  19.256  37.555  1.00  0.00     0.049 C 
HETATM    3  O1  UNL     1       4.879  19.490  38.747  1.00  0.00    -0.256 OA
ENDROOT
BRANCH   3   4
HETATM    4  C3  UNL     1       6.014  18.851  39.135  1.00  0.00     0.258 C 
BRANCH   4   5
HETATM    5  N1  UNL     1       7.034  18.546  38.236  1.00  0.00    -0.242 N 
HETATM    6  C4  UNL     1       7.870  19.488  37.707  1.00  0.00     0.361 A 
HETATM    7  O2  UNL     1       7.856  20.735  37.934  1.00  0.00    -0.243 OA
HETATM    8  N2  UNL     1       8.742  18.911  36.887  1.00  0.00    -0.152 N 
HETATM    9  C5  UNL     1       8.509  17.590  36.852  1.00  0.00     0.186 A 
HETATM   10  N3  UNL     1       9.040  16.532  36.230  1.00  0.00    -0.172 N 
HETATM   11  C9  UNL     1       7.433  17.377  37.705  1.00  0.00     0.161 A 
HETATM   12  C6  UNL     1       8.553  15.294  36.421  1.00  0.00     0.682 A 
ATOM     13  H3  UNL     1       9.830  16.666  35.599  1.00  0.00     0.186 HD
HETATM   14  N5  UNL     1       7.514  15.064  37.241  1.00  0.00    -0.150 N 
HETATM   15  C7  UNL     1       7.018  13.699  37.418  1.00  0.00     0.179 C 
HETATM   16  C8  UNL     1       6.954  16.101  37.883  1.00  0.00     0.292 A 
HETATM   17  O4  UNL     1       5.982  15.941  38.659  1.00  0.00    -0.265 OA
BRANCH   8  18
HETATM   18  O3  UNL     1       9.760  19.497  36.144  1.00  0.00    -0.277 OA
ATOM     19  H3  UNL     1       9.748  20.312  35.656  1.00  0.00     0.245 HD
ENDBRANCH   8  18
BRANCH  12  20
HETATM   20  N4  UNL     1       9.075  14.270  35.813  1.00  0.00    -0.234 N 
ATOM     21  H42 UNL     1       8.827  14.128  34.834  1.00  0.00     0.174 HD
ATOM     22  H41 UNL     1       9.709  13.638  36.302  1.00  0.00     0.174 HD
ENDBRANCH  12  20
ENDBRANCH   4   5
ENDBRANCH   3   4
TORSDOF 4
ENDMDL
MODEL 4
REMARK VINA RESULT: -5.880613487      3.434      5.582
REMARK  4 active torsions:
REMARK  status: ('A' for Active; 'I' for Inactive)
REMARK    1  A    between atoms: O1_3  and  C3_4 
REMARK    2  A    between atoms: C3_4  and  N1_5 
REMARK    3  A    between atoms: N2_8  and  O3_9 
REMARK    4  A    between atoms: C6_14  and  N4_15 
ROOT
HETATM    1  C1  UNL     1       6.368  15.280  37.413  1.00  0.00     0.045 C 
HETATM    2  C2  UNL     1       7.078  15.156  38.380  1.00  0.00     0.049 C 
HETATM    3  O1  UNL     1       7.854  15.028  39.469  1.00  0.00    -0.256 OA
ENDROOT
BRANCH   3   4
HETATM    4  C3  UNL     1       7.772  13.940  40.280  1.00  0.00     0.258 C 
BRANCH   4   5
HETATM    5  N1  UNL     1       6.907  13.895  41.371  1.00  0.00    -0.242 N 
HETATM    6  C4  UNL     1       7.090  14.641  42.501  1.00  0.00     0.361 A 
HETATM    7  O2  UNL     1       8.032  15.455  42.735  1.00  0.00    -0.243 OA
HETATM    8  N2  UNL     1       6.112  14.396  43.368  1.00  0.00    -0.152 N 
HETATM    9  C5  UNL     1       5.269  13.496  42.842  1.00  0.00     0.186 A 
HETATM   10  N3  UNL     1       4.143  12.885  43.228  1.00  0.00    -0.172 N 
HETATM   11  C9  UNL     1       5.782  13.192  41.586  1.00  0.00     0.161 A 
HETATM   12  C6  UNL     1       3.520  12.001  42.431  1.00  0.00     0.682 A 
ATOM     13  H3  UNL     1       3.750  13.094  44.146  1.00  0.00     0.186 HD
HETATM   14  N5  UNL     1       3.999  11.691  41.214  1.00  0.00    -0.150 N 
HETATM   15  C7  UNL     1       3.286  10.722  40.381  1.00  0.00     0.179 C 
HETATM   16  C8  UNL     1       5.125  12.283  40.790  1.00  0.00     0.292 A 
HETATM   17  O4  UNL     1       5.613  12.030  39.664  1.00  0.00    -0.265 OA
BRANCH   8  18
HETATM   18  O3  UNL     1       5.914  14.936  44.634  1.00  0.00    -0.277 OA
ATOM     19  H3  UNL     1       6.311  15.708  45.021  1.00  0.00     0.245 HD
ENDBRANCH   8  18
BRANCH  12  20
HETATM   20  N4  UNL     1       2.428  11.411  42.814  1.00  0.00    -0.234 N 
ATOM     21  H42 UNL     1       1.882  11.862  43.548  1.00  0.00     0.174 HD
ATOM     22  H41 UNL     1       2.132  10.530  42.391  1.00  0.00     0.174 HD
ENDBRANCH  12  20
ENDBRANCH   4   5
ENDBRANCH   3   4
TORSDOF 4
ENDMDL
MODEL 5
REMARK VINA RESULT: -5.853737673      2.883      5.208
REMARK  4 active torsions:
REMARK  status: ('A' for Active; 'I' for Inactive)
REMARK    1  A    between atoms: O1_3  and  C3_4 
REMARK    2  A    between atoms: C3_4  and  N1_5 
REMARK    3  A    between atoms: N2_8  and  O3_9 
REMARK    4  A    between atoms: C6_14  and  N4_15 
ROOT
HETATM    1  C1  UNL     1       6.568  14.787  37.928  1.00  0.00     0.045 C 
HETATM    2  C2  UNL     1       6.582  15.710  38.705  1.00  0.00     0.049 C 
HETATM    3  O1  UNL     1       6.620  16.736  39.571  1.00  0.00    -0.256 OA
ENDROOT
BRANCH   3   4
HETATM    4  C3  UNL     1       6.717  18.024  39.149  1.00  0.00     0.258 C 
BRANCH   4   5
HETATM    5  N1  UNL     1       6.122  18.461  37.967  1.00  0.00    -0.242 N 
HETATM    6  C4  UNL     1       6.759  18.440  36.758  1.00  0.00     0.361 A 
HETATM    7  O2  UNL     1       7.939  18.042  36.524  1.00  0.00    -0.243 OA
HETATM    8  N2  UNL     1       5.952  18.911  35.813  1.00  0.00    -0.152 N 
HETATM    9  C5  UNL     1       4.777  19.251  36.363  1.00  0.00     0.186 A 
HETATM   10  N3  UNL     1       3.619  19.761  35.930  1.00  0.00    -0.172 N 
HETATM   11  C9  UNL     1       4.900  18.962  37.717  1.00  0.00     0.161 A 
HETATM   12  C6  UNL     1       2.598  19.989  36.773  1.00  0.00     0.682 A 
ATOM     13  H3  UNL     1       3.508  19.981  34.940  1.00  0.00     0.186 HD
HETATM   14  N5  UNL     1       2.695  19.718  38.086  1.00  0.00    -0.150 N 
HETATM   15  C7  UNL     1       1.557  19.983  38.966  1.00  0.00     0.179 C 
HETATM   16  C8  UNL     1       3.841  19.205  38.559  1.00  0.00     0.292 A 
HETATM   17  O4  UNL     1       3.983  18.934  39.775  1.00  0.00    -0.265 OA
BRANCH   8  18
HETATM   18  O3  UNL     1       6.198  19.064  34.453  1.00  0.00    -0.277 OA
ATOM     19  H3  UNL     1       5.624  18.879  33.720  1.00  0.00     0.245 HD
ENDBRANCH   8  18
BRANCH  12  20
HETATM   20  N4  UNL     1       1.477  20.485  36.345  1.00  0.00    -0.234 N 
ATOM     21  H42 UNL     1       1.516  21.371  35.841  1.00  0.00     0.174 HD
ATOM     22  H41 UNL     1       0.593  20.001  36.508  1.00  0.00     0.174 HD
ENDBRANCH  12  20
ENDBRANCH   4   5
ENDBRANCH   3   4
TORSDOF 4
ENDMDL
