MODEL 1
REMARK VINA RESULT: -6.577230169      0.000      0.000
REMARK  6 active torsions:
REMARK  status: ('A' for Active; 'I' for Inactive)
REMARK    1  A    between atoms: O1_2  and  C2_3 
REMARK    2  A    between atoms: C2_3  and  C3_5 
REMARK    3  A    between atoms: N1_6  and  N2_8 
REMARK    4  A    between atoms: N2_8  and  C5_11 
REMARK    5  A    between atoms: C7_15  and  N5_16 
REMARK    6  A    between atoms: N5_16  and  C8_18 
ROOT
HETATM    1  N2  UNL     1       6.782  18.486  37.431  1.00  0.00    -0.202 N 
HETATM    2  C4  UNL     1       7.882  19.268  37.097  1.00  0.00     0.202 C 
HETATM    3  N3  UNL     1       8.821  19.922  36.824  1.00  0.00    -0.170 NA
ENDROOT
BRANCH   1   4
HETATM    4  N1  UNL     1       5.776  19.066  38.196  1.00  0.00    -0.293 N 
HETATM    5  C3  UNL     1       4.637  19.286  37.641  1.00  0.00     0.190 C 
ATOM      6  H1  UNL     1       5.939  19.312  39.173  1.00  0.00     0.187 HD
BRANCH   5   7
HETATM    7  C2  UNL     1       3.585  19.898  38.459  1.00  0.00     0.299 C 
HETATM    8  O2  UNL     1       3.818  20.259  39.647  1.00  0.00    -0.259 OA
BRANCH   7   9
HETATM    9  O1  UNL     1       2.313  20.107  37.980  1.00  0.00    -0.322 OA
HETATM   10  C1  UNL     1       1.210  20.427  38.789  1.00  0.00     0.213 C 
ENDBRANCH   7   9
ENDBRANCH   5   7
ENDBRANCH   1   4
BRANCH   1  11
HETATM   11  C5  UNL     1       6.669  17.138  37.017  1.00  0.00     0.237 C 
HETATM   12  C6  UNL     1       7.981  16.511  36.599  1.00  0.00     0.172 C 
HETATM   13  N4  UNL     1       7.689  15.104  36.791  1.00  0.00    -0.358 N 
HETATM   14  C7  UNL     1       6.724  14.958  37.646  1.00  0.00     0.178 C 
ATOM     15  H4  UNL     1       8.172  14.339  36.320  1.00  0.00     0.162 HD
HETATM   16  N7  UNL     1       6.287  16.234  38.100  1.00  0.00    -0.337 N 
ATOM     17  H7  UNL     1       5.817  16.463  38.975  1.00  0.00     0.164 HD
BRANCH  14  18
HETATM   18  N5  UNL     1       6.186  13.698  38.065  1.00  0.00    -0.319 N 
ATOM     19  H5  UNL     1       5.203  13.598  38.318  1.00  0.00     0.170 HD
BRANCH  18  20
HETATM   20  C8  UNL     1       7.070  12.602  38.116  1.00  0.00     0.073 C 
HETATM   21  C9  UNL     1       8.234  12.642  39.019  1.00  0.00     0.088 C 
HETATM   22  N6  UNL     1       6.866  11.582  37.383  1.00  0.00    -0.389 N 
ATOM     23  H62 UNL     1       6.061  11.553  36.758  1.00  0.00     0.157 HD
ATOM     24  H61 UNL     1       7.506  10.788  37.419  1.00  0.00     0.157 HD
ENDBRANCH  18  20
ENDBRANCH  14  18
ENDBRANCH   1  11
TORSDOF 6
ENDMDL
MODEL 2
REMARK VINA RESULT: -6.479146543      1.009      1.271
REMARK  6 active torsions:
REMARK  status: ('A' for Active; 'I' for Inactive)
REMARK    1  A    between atoms: O1_2  and  C2_3 
REMARK    2  A    between atoms: C2_3  and  C3_5 
REMARK    3  A    between atoms: N1_6  and  N2_8 
REMARK    4  A    between atoms: N2_8  and  C5_11 
REMARK    5  A    between atoms: C7_15  and  N5_16 
REMARK    6  A    between atoms: N5_16  and  C8_18 
ROOT
HETATM    1  N2  UNL     1       6.847  18.268  38.096  1.00  0.00    -0.202 N 
HETATM    2  C4  UNL     1       7.639  18.995  37.213  1.00  0.00     0.202 C 
HETATM    3  N3  UNL     1       8.320  19.610  36.477  1.00  0.00    -0.170 NA
ENDROOT
BRANCH   1   4
HETATM    4  N1  UNL     1       5.767  18.915  38.688  1.00  0.00    -0.293 N 
HETATM    5  C3  UNL     1       4.792  19.286  37.936  1.00  0.00     0.190 C 
ATOM      6  H1  UNL     1       5.750  19.091  39.692  1.00  0.00     0.187 HD
BRANCH   5   7
HETATM    7  C2  UNL     1       3.659  19.966  38.573  1.00  0.00     0.299 C 
HETATM    8  O2  UNL     1       3.850  20.845  39.461  1.00  0.00    -0.259 OA
BRANCH   7   9
HETATM    9  O1  UNL     1       2.355  19.686  38.240  1.00  0.00    -0.322 OA
HETATM   10  C1  UNL     1       1.245  20.377  38.754  1.00  0.00     0.213 C 
ENDBRANCH   7   9
ENDBRANCH   5   7
ENDBRANCH   1   4
BRANCH   1  11
HETATM   11  C5  UNL     1       7.113  16.912  38.398  1.00  0.00     0.237 C 
HETATM   12  C6  UNL     1       6.446  16.423  39.665  1.00  0.00     0.172 C 
HETATM   13  N4  UNL     1       6.401  14.994  39.419  1.00  0.00    -0.358 N 
HETATM   14  C7  UNL     1       6.452  14.756  38.145  1.00  0.00     0.178 C 
ATOM     15  H4  UNL     1       6.339  14.280  40.144  1.00  0.00     0.162 HD
HETATM   16  N7  UNL     1       6.535  15.983  37.429  1.00  0.00    -0.337 N 
ATOM     17  H7  UNL     1       6.256  16.170  36.466  1.00  0.00     0.164 HD
BRANCH  14  18
HETATM   18  N5  UNL     1       6.427  13.451  37.555  1.00  0.00    -0.319 N 
ATOM     19  H5  UNL     1       6.126  13.309  36.590  1.00  0.00     0.170 HD
BRANCH  18  20
HETATM   20  C8  UNL     1       6.835  12.369  38.361  1.00  0.00     0.073 C 
HETATM   21  C9  UNL     1       8.253  12.230  38.734  1.00  0.00     0.088 C 
HETATM   22  N6  UNL     1       5.981  11.515  38.765  1.00  0.00    -0.389 N 
ATOM     23  H62 UNL     1       4.999  11.611  38.506  1.00  0.00     0.157 HD
ATOM     24  H61 UNL     1       6.277  10.732  39.348  1.00  0.00     0.157 HD
ENDBRANCH  18  20
ENDBRANCH  14  18
ENDBRANCH   1  11
TORSDOF 6
ENDMDL
MODEL 3
REMARK VINA RESULT: -6.475915241      3.007      6.168
REMARK  6 active torsions:
REMARK  status: ('A' for Active; 'I' for Inactive)
REMARK    1  A    between atoms: O1_2  and  C2_3 
REMARK    2  A    between atoms: C2_3  and  C3_5 
REMARK    3  A    between atoms: N1_6  and  N2_8 
REMARK    4  A    between atoms: N2_8  and  C5_11 
REMARK    5  A    between atoms: C7_15  and  N5_16 
REMARK    6  A    between atoms: N5_16  and  C8_18 
ROOT
HETATM    1  N2  UNL     1       7.342  18.247  37.451  1.00  0.00    -0.202 N 
HETATM    2  C4  UNL     1       8.638  18.686  37.204  1.00  0.00     0.202 C 
HETATM    3  N3  UNL     1       9.731  19.058  36.979  1.00  0.00    -0.170 NA
ENDROOT
BRANCH   1   4
HETATM    4  N1  UNL     1       7.156  16.903  37.759  1.00  0.00    -0.293 N 
HETATM    5  C3  UNL     1       7.533  16.023  36.900  1.00  0.00     0.190 C 
ATOM      6  H1  UNL     1       6.732  16.624  38.643  1.00  0.00     0.187 HD
BRANCH   5   7
HETATM    7  C2  UNL     1       7.331  14.609  37.237  1.00  0.00     0.299 C 
HETATM    8  O2  UNL     1       8.261  13.769  37.080  1.00  0.00    -0.259 OA
BRANCH   7   9
HETATM    9  O1  UNL     1       6.138  14.138  37.732  1.00  0.00    -0.322 OA
HETATM   10  C1  UNL     1       5.956  13.682  39.048  1.00  0.00     0.213 C 
ENDBRANCH   7   9
ENDBRANCH   5   7
ENDBRANCH   1   4
BRANCH   1  11
HETATM   11  C5  UNL     1       6.232  19.122  37.396  1.00  0.00     0.237 C 
HETATM   12  C6  UNL     1       5.094  18.616  36.537  1.00  0.00     0.172 C 
HETATM   13  N4  UNL     1       3.977  19.349  37.100  1.00  0.00    -0.358 N 
HETATM   14  C7  UNL     1       4.243  19.709  38.318  1.00  0.00     0.178 C 
ATOM     15  H4  UNL     1       3.106  19.553  36.610  1.00  0.00     0.162 HD
HETATM   16  N7  UNL     1       5.544  19.258  38.678  1.00  0.00    -0.337 N 
ATOM     17  H7  UNL     1       5.910  19.074  39.612  1.00  0.00     0.164 HD
BRANCH  14  18
HETATM   18  N5  UNL     1       3.356  20.448  39.166  1.00  0.00    -0.319 N 
ATOM     19  H5  UNL     1       3.646  21.322  39.604  1.00  0.00     0.170 HD
BRANCH  18  20
HETATM   20  C8  UNL     1       2.067  19.918  39.370  1.00  0.00     0.073 C 
HETATM   21  C9  UNL     1       0.921  20.472  38.627  1.00  0.00     0.088 C 
HETATM   22  N6  UNL     1       1.891  18.965  40.196  1.00  0.00    -0.389 N 
ATOM     23  H62 UNL     1       2.683  18.581  40.711  1.00  0.00     0.157 HD
ATOM     24  H61 UNL     1       0.957  18.581  40.344  1.00  0.00     0.157 HD
ENDBRANCH  18  20
ENDBRANCH  14  18
ENDBRANCH   1  11
TORSDOF 6
ENDMDL
MODEL 4
REMARK VINA RESULT: -6.474242763      3.158      6.200
REMARK  6 active torsions:
REMARK  status: ('A' for Active; 'I' for Inactive)
REMARK    1  A    between atoms: O1_2  and  C2_3 
REMARK    2  A    between atoms: C2_3  and  C3_5 
REMARK    3  A    between atoms: N1_6  and  N2_8 
REMARK    4  A    between atoms: N2_8  and  C5_11 
REMARK    5  A    between atoms: C7_15  and  N5_16 
REMARK    6  A    between atoms: N5_16  and  C8_18 
ROOT
HETATM    1  N2  UNL     1       6.677  18.303  38.110  1.00  0.00    -0.202 N 
HETATM    2  C4  UNL     1       7.987  18.272  37.644  1.00  0.00     0.202 C 
HETATM    3  N3  UNL     1       9.090  18.237  37.237  1.00  0.00    -0.170 NA
ENDROOT
BRANCH   1   4
HETATM    4  N1  UNL     1       6.341  17.467  39.169  1.00  0.00    -0.293 N 
HETATM    5  C3  UNL     1       6.738  16.244  39.131  1.00  0.00     0.190 C 
ATOM      6  H1  UNL     1       5.794  17.816  39.957  1.00  0.00     0.187 HD
BRANCH   5   7
HETATM    7  C2  UNL     1       6.377  15.373  40.255  1.00  0.00     0.299 C 
HETATM    8  O2  UNL     1       6.815  15.604  41.417  1.00  0.00    -0.259 OA
BRANCH   7   9
HETATM    9  O1  UNL     1       5.559  14.280  40.100  1.00  0.00    -0.322 OA
HETATM   10  C1  UNL     1       5.911  13.129  39.376  1.00  0.00     0.213 C 
ENDBRANCH   7   9
ENDBRANCH   5   7
ENDBRANCH   1   4
BRANCH   1  11
HETATM   11  C5  UNL     1       5.699  19.151  37.538  1.00  0.00     0.237 C 
HETATM   12  C6  UNL     1       4.824  18.471  36.508  1.00  0.00     0.172 C 
HETATM   13  N4  UNL     1       3.650  19.321  36.539  1.00  0.00    -0.358 N 
HETATM   14  C7  UNL     1       3.578  19.947  37.673  1.00  0.00     0.178 C 
ATOM     15  H4  UNL     1       2.977  19.414  35.778  1.00  0.00     0.162 HD
HETATM   16  N7  UNL     1       4.682  19.581  38.494  1.00  0.00    -0.337 N 
ATOM     17  H7  UNL     1       4.746  19.612  39.512  1.00  0.00     0.164 HD
BRANCH  14  18
HETATM   18  N5  UNL     1       2.542  20.866  38.036  1.00  0.00    -0.319 N 
ATOM     19  H5  UNL     1       2.637  21.868  37.868  1.00  0.00     0.170 HD
BRANCH  18  20
HETATM   20  C8  UNL     1       1.385  20.331  38.636  1.00  0.00     0.073 C 
HETATM   21  C9  UNL     1       1.513  19.334  39.713  1.00  0.00     0.088 C 
HETATM   22  N6  UNL     1       0.231  20.707  38.248  1.00  0.00    -0.389 N 
ATOM     23  H62 UNL     1       0.142  21.397  37.503  1.00  0.00     0.157 HD
ATOM     24  H61 UNL     1      -0.607  20.319  38.682  1.00  0.00     0.157 HD
ENDBRANCH  18  20
ENDBRANCH  14  18
ENDBRANCH   1  11
TORSDOF 6
ENDMDL
MODEL 5
REMARK VINA RESULT: -6.461543485      1.356      1.577
REMARK  6 active torsions:
REMARK  status: ('A' for Active; 'I' for Inactive)
REMARK    1  A    between atoms: O1_2  and  C2_3 
REMARK    2  A    between atoms: C2_3  and  C3_5 
REMARK    3  A    between atoms: N1_6  and  N2_8 
REMARK    4  A    between atoms: N2_8  and  C5_11 
REMARK    5  A    between atoms: C7_15  and  N5_16 
REMARK    6  A    between atoms: N5_16  and  C8_18 
ROOT
HETATM    1  N2  UNL     1       6.476  18.254  37.190  1.00  0.00    -0.202 N 
HETATM    2  C4  UNL     1       7.602  19.016  36.900  1.00  0.00     0.202 C 
HETATM    3  N3  UNL     1       8.560  19.660  36.670  1.00  0.00    -0.170 NA
ENDROOT
BRANCH   1   4
HETATM    4  N1  UNL     1       5.260  18.913  37.333  1.00  0.00    -0.293 N 
HETATM    5  C3  UNL     1       4.973  19.423  38.478  1.00  0.00     0.190 C 
ATOM      6  H1  UNL     1       4.613  18.991  36.549  1.00  0.00     0.187 HD
BRANCH   5   7
HETATM    7  C2  UNL     1       3.688  20.116  38.616  1.00  0.00     0.299 C 
HETATM    8  O2  UNL     1       3.069  20.536  37.598  1.00  0.00    -0.259 OA
BRANCH   7   9
HETATM    9  O1  UNL     1       3.103  20.339  39.840  1.00  0.00    -0.322 OA
HETATM   10  C1  UNL     1       1.718  20.463  40.040  1.00  0.00     0.213 C 
ENDBRANCH   7   9
ENDBRANCH   5   7
ENDBRANCH   1   4
BRANCH   1  11
HETATM   11  C5  UNL     1       6.542  16.849  37.341  1.00  0.00     0.237 C 
HETATM   12  C6  UNL     1       7.683  16.203  36.585  1.00  0.00     0.172 C 
HETATM   13  N4  UNL     1       7.852  14.974  37.336  1.00  0.00    -0.358 N 
HETATM   14  C7  UNL     1       7.386  15.115  38.538  1.00  0.00     0.178 C 
ATOM     15  H4  UNL     1       8.275  14.121  36.971  1.00  0.00     0.162 HD
HETATM   16  N7  UNL     1       6.869  16.431  38.702  1.00  0.00    -0.337 N 
ATOM     17  H7  UNL     1       6.754  16.959  39.568  1.00  0.00     0.164 HD
BRANCH  14  18
HETATM   18  N5  UNL     1       7.394  14.095  39.544  1.00  0.00    -0.319 N 
ATOM     19  H5  UNL     1       8.265  13.770  39.964  1.00  0.00     0.170 HD
BRANCH  18  20
HETATM   20  C8  UNL     1       6.150  13.559  39.930  1.00  0.00     0.073 C 
HETATM   21  C9  UNL     1       5.616  13.842  41.275  1.00  0.00     0.088 C 
HETATM   22  N6  UNL     1       5.488  12.831  39.121  1.00  0.00    -0.389 N 
ATOM     23  H62 UNL     1       5.857  12.635  38.191  1.00  0.00     0.157 HD
ATOM     24  H61 UNL     1       4.587  12.443  39.401  1.00  0.00     0.157 HD
ENDBRANCH  18  20
ENDBRANCH  14  18
ENDBRANCH   1  11
TORSDOF 6
ENDMDL
