MODEL 1
REMARK VINA RESULT: -9.676464770      0.000      0.000
REMARK  8 active torsions:
REMARK  status: ('A' for Active; 'I' for Inactive)
REMARK    1  A    between atoms: O1_1  and  C1_3 
REMARK    2  A    between atoms: C1_3  and  C2_4 
REMARK    3  A    between atoms: C2_4  and  C3_5 
REMARK    4  A    between atoms: C3_5  and  N1_6 
REMARK    5  A    between atoms: N1_6  and  C4_9 
REMARK    6  A    between atoms: C4_9  and  C5_10 
REMARK    7  A    between atoms: C5_10  and  C6_11 
REMARK    8  A    between atoms: C6_11  and  C7_12 
ROOT
HETATM    1  C4  UNL     1      63.094  -1.124 -28.996  1.00  0.00     0.232 C 
ENDROOT
BRANCH   1   2
HETATM    2  N1  UNL     1      62.512   0.225 -29.252  1.00  0.00    -0.075 N 
ATOM      3  H12 UNL     1      63.035   0.744 -29.957  1.00  0.00     0.277 HD
ATOM      4  H11 UNL     1      62.654   0.863 -28.469  1.00  0.00     0.277 HD
BRANCH   2   5
HETATM    5  C3  UNL     1      61.145   0.088 -29.591  1.00  0.00     0.235 C 
BRANCH   5   6
HETATM    6  C2  UNL     1      60.500   1.398 -29.905  1.00  0.00     0.065 C 
BRANCH   6   7
HETATM    7  C1  UNL     1      59.829   2.028 -28.741  1.00  0.00     0.059 C 
HETATM    8  C17 UNL     1      58.325   1.759 -28.738  1.00  0.00     0.038 C 
HETATM    9  C18 UNL     1      57.773   3.056 -28.203  1.00  0.00     0.003 C 
HETATM   10  C19 UNL     1      58.551   4.060 -29.071  1.00  0.00     0.003 C 
HETATM   11  C20 UNL     1      59.960   3.564 -28.806  1.00  0.00     0.038 C 
BRANCH   7  12
HETATM   12  O1  UNL     1      60.297   1.620 -27.496  1.00  0.00    -0.390 OA
ATOM     13  H1  UNL     1      60.035   2.169 -26.766  1.00  0.00     0.210 HD
ENDBRANCH   7  12
ENDBRANCH   6   7
ENDBRANCH   5   6
ENDBRANCH   2   5
ENDBRANCH   1   2
BRANCH   1  14
HETATM   14  C5  UNL     1      63.902  -1.552 -30.159  1.00  0.00     0.028 C 
BRANCH  14  15
HETATM   15  C6  UNL     1      64.369  -2.939 -30.142  1.00  0.00     0.011 C 
BRANCH  15  16
HETATM   16  C7  UNL     1      65.622  -3.363 -30.796  1.00  0.00    -0.039 C 
HETATM   17  C8  UNL     1      66.000  -2.118 -31.669  1.00  0.00     0.014 C 
HETATM   18  C9  UNL     1      67.224  -2.348 -32.473  1.00  0.00    -0.013 C 
HETATM   19  C10 UNL     1      68.411  -2.579 -31.552  1.00  0.00     0.009 C 
HETATM   20  C14 UNL     1      67.021  -3.541 -33.368  1.00  0.00     0.009 C 
HETATM   21  C11 UNL     1      68.068  -3.759 -30.700  1.00  0.00    -0.013 C 
HETATM   22  C12 UNL     1      67.906  -4.965 -31.565  1.00  0.00     0.009 C 
HETATM   23  C16 UNL     1      66.835  -3.451 -29.872  1.00  0.00     0.014 C 
HETATM   24  C13 UNL     1      66.750  -4.735 -32.507  1.00  0.00    -0.013 C 
HETATM   25  C15 UNL     1      65.517  -4.566 -31.656  1.00  0.00     0.014 C 
ENDBRANCH  15  16
ENDBRANCH  14  15
ENDBRANCH   1  14
TORSDOF 8
ENDMDL
MODEL 2
REMARK VINA RESULT: -9.493830475      0.202      1.616
REMARK  8 active torsions:
REMARK  status: ('A' for Active; 'I' for Inactive)
REMARK    1  A    between atoms: O1_1  and  C1_3 
REMARK    2  A    between atoms: C1_3  and  C2_4 
REMARK    3  A    between atoms: C2_4  and  C3_5 
REMARK    4  A    between atoms: C3_5  and  N1_6 
REMARK    5  A    between atoms: N1_6  and  C4_9 
REMARK    6  A    between atoms: C4_9  and  C5_10 
REMARK    7  A    between atoms: C5_10  and  C6_11 
REMARK    8  A    between atoms: C6_11  and  C7_12 
ROOT
HETATM    1  C4  UNL     1      62.994  -1.129 -28.850  1.00  0.00     0.232 C 
ENDROOT
BRANCH   1   2
HETATM    2  N1  UNL     1      62.473   0.236 -29.152  1.00  0.00    -0.075 N 
ATOM      3  H12 UNL     1      63.047   0.725 -29.838  1.00  0.00     0.277 HD
ATOM      4  H11 UNL     1      62.600   0.879 -28.371  1.00  0.00     0.277 HD
BRANCH   2   5
HETATM    5  C3  UNL     1      61.119   0.142 -29.554  1.00  0.00     0.235 C 
BRANCH   5   6
HETATM    6  C2  UNL     1      60.516   1.477 -29.844  1.00  0.00     0.065 C 
BRANCH   6   7
HETATM    7  C1  UNL     1      59.794   2.069 -28.691  1.00  0.00     0.059 C 
HETATM    8  C17 UNL     1      58.306   1.719 -28.711  1.00  0.00     0.038 C 
HETATM    9  C18 UNL     1      57.677   2.985 -28.186  1.00  0.00     0.003 C 
HETATM   10  C19 UNL     1      58.414   4.030 -29.042  1.00  0.00     0.003 C 
HETATM   11  C20 UNL     1      59.843   3.610 -28.755  1.00  0.00     0.038 C 
BRANCH   7  12
HETATM   12  O1  UNL     1      60.263   1.687 -27.438  1.00  0.00    -0.390 OA
ATOM     13  H1  UNL     1      60.040   0.802 -27.175  1.00  0.00     0.210 HD
ENDBRANCH   7  12
ENDBRANCH   6   7
ENDBRANCH   5   6
ENDBRANCH   2   5
ENDBRANCH   1   2
BRANCH   1  14
HETATM   14  C5  UNL     1      63.426  -1.790 -30.100  1.00  0.00     0.028 C 
BRANCH  14  15
HETATM   15  C6  UNL     1      64.333  -2.928 -29.946  1.00  0.00     0.011 C 
BRANCH  15  16
HETATM   16  C7  UNL     1      65.471  -3.166 -30.857  1.00  0.00    -0.039 C 
HETATM   17  C8  UNL     1      66.618  -3.593 -29.878  1.00  0.00     0.014 C 
HETATM   18  C9  UNL     1      67.898  -3.832 -30.588  1.00  0.00    -0.013 C 
HETATM   19  C10 UNL     1      67.740  -4.987 -31.563  1.00  0.00     0.009 C 
HETATM   20  C14 UNL     1      68.307  -2.584 -31.322  1.00  0.00     0.009 C 
HETATM   21  C11 UNL     1      66.640  -4.606 -32.501  1.00  0.00    -0.013 C 
HETATM   22  C12 UNL     1      67.044  -3.395 -33.274  1.00  0.00     0.009 C 
HETATM   23  C16 UNL     1      65.350  -4.415 -31.727  1.00  0.00     0.014 C 
HETATM   24  C13 UNL     1      67.236  -2.247 -32.312  1.00  0.00    -0.013 C 
HETATM   25  C15 UNL     1      65.902  -1.996 -31.656  1.00  0.00     0.014 C 
ENDBRANCH  15  16
ENDBRANCH  14  15
ENDBRANCH   1  14
TORSDOF 8
ENDMDL
MODEL 3
REMARK VINA RESULT: -9.422979970      0.769      1.112
REMARK  8 active torsions:
REMARK  status: ('A' for Active; 'I' for Inactive)
REMARK    1  A    between atoms: O1_1  and  C1_3 
REMARK    2  A    between atoms: C1_3  and  C2_4 
REMARK    3  A    between atoms: C2_4  and  C3_5 
REMARK    4  A    between atoms: C3_5  and  N1_6 
REMARK    5  A    between atoms: N1_6  and  C4_9 
REMARK    6  A    between atoms: C4_9  and  C5_10 
REMARK    7  A    between atoms: C5_10  and  C6_11 
REMARK    8  A    between atoms: C6_11  and  C7_12 
ROOT
HETATM    1  C4  UNL     1      63.512  -0.514 -29.527  1.00  0.00     0.232 C 
ENDROOT
BRANCH   1   2
HETATM    2  N1  UNL     1      62.587   0.653 -29.436  1.00  0.00    -0.075 N 
ATOM      3  H12 UNL     1      62.788   1.361 -30.142  1.00  0.00     0.277 HD
ATOM      4  H11 UNL     1      62.760   1.220 -28.607  1.00  0.00     0.277 HD
BRANCH   2   5
HETATM    5  C3  UNL     1      61.249   0.196 -29.502  1.00  0.00     0.235 C 
BRANCH   5   6
HETATM    6  C2  UNL     1      60.295   1.276 -29.894  1.00  0.00     0.065 C 
BRANCH   6   7
HETATM    7  C1  UNL     1      59.721   2.013 -28.742  1.00  0.00     0.059 C 
HETATM    8  C17 UNL     1      58.204   1.846 -28.659  1.00  0.00     0.038 C 
HETATM    9  C18 UNL     1      57.763   3.205 -28.178  1.00  0.00     0.003 C 
HETATM   10  C19 UNL     1      58.564   4.105 -29.136  1.00  0.00     0.003 C 
HETATM   11  C20 UNL     1      59.948   3.531 -28.902  1.00  0.00     0.038 C 
BRANCH   7  12
HETATM   12  O1  UNL     1      60.219   1.645 -27.496  1.00  0.00    -0.390 OA
ATOM     13  H1  UNL     1      59.608   1.176 -26.939  1.00  0.00     0.210 HD
ENDBRANCH   7  12
ENDBRANCH   6   7
ENDBRANCH   5   6
ENDBRANCH   2   5
ENDBRANCH   1   2
BRANCH   1  14
HETATM   14  C5  UNL     1      64.166  -0.536 -30.853  1.00  0.00     0.028 C 
BRANCH  14  15
HETATM   15  C6  UNL     1      65.603  -0.813 -30.856  1.00  0.00     0.011 C 
BRANCH  15  16
HETATM   16  C7  UNL     1      66.149  -2.177 -31.006  1.00  0.00    -0.039 C 
HETATM   17  C8  UNL     1      66.610  -2.207 -32.503  1.00  0.00     0.014 C 
HETATM   18  C9  UNL     1      67.151  -3.530 -32.895  1.00  0.00    -0.013 C 
HETATM   19  C10 UNL     1      68.393  -3.844 -32.076  1.00  0.00     0.009 C 
HETATM   20  C14 UNL     1      66.103  -4.587 -32.676  1.00  0.00     0.009 C 
HETATM   21  C11 UNL     1      67.978  -3.810 -30.641  1.00  0.00    -0.013 C 
HETATM   22  C12 UNL     1      66.970  -4.882 -30.390  1.00  0.00     0.009 C 
HETATM   23  C16 UNL     1      67.473  -2.424 -30.287  1.00  0.00     0.014 C 
HETATM   24  C13 UNL     1      65.743  -4.600 -31.223  1.00  0.00    -0.013 C 
HETATM   25  C15 UNL     1      65.189  -3.277 -30.754  1.00  0.00     0.014 C 
ENDBRANCH  15  16
ENDBRANCH  14  15
ENDBRANCH   1  14
TORSDOF 8
ENDMDL
MODEL 4
REMARK VINA RESULT: -9.403918236      0.169      1.599
REMARK  8 active torsions:
REMARK  status: ('A' for Active; 'I' for Inactive)
REMARK    1  A    between atoms: O1_1  and  C1_3 
REMARK    2  A    between atoms: C1_3  and  C2_4 
REMARK    3  A    between atoms: C2_4  and  C3_5 
REMARK    4  A    between atoms: C3_5  and  N1_6 
REMARK    5  A    between atoms: N1_6  and  C4_9 
REMARK    6  A    between atoms: C4_9  and  C5_10 
REMARK    7  A    between atoms: C5_10  and  C6_11 
REMARK    8  A    between atoms: C6_11  and  C7_12 
ROOT
HETATM    1  C4  UNL     1      62.963  -1.192 -28.965  1.00  0.00     0.232 C 
ENDROOT
BRANCH   1   2
HETATM    2  N1  UNL     1      62.415   0.186 -29.128  1.00  0.00    -0.075 N 
ATOM      3  H12 UNL     1      62.986   0.758 -29.750  1.00  0.00     0.277 HD
ATOM      4  H11 UNL     1      62.516   0.745 -28.282  1.00  0.00     0.277 HD
BRANCH   2   5
HETATM    5  C3  UNL     1      61.069   0.105 -29.560  1.00  0.00     0.235 C 
BRANCH   5   6
HETATM    6  C2  UNL     1      60.485   1.446 -29.863  1.00  0.00     0.065 C 
BRANCH   6   7
HETATM    7  C1  UNL     1      59.792   2.069 -28.709  1.00  0.00     0.059 C 
HETATM    8  C17 UNL     1      58.296   1.759 -28.709  1.00  0.00     0.038 C 
HETATM    9  C18 UNL     1      57.706   3.046 -28.191  1.00  0.00     0.003 C 
HETATM   10  C19 UNL     1      58.460   4.062 -29.068  1.00  0.00     0.003 C 
HETATM   11  C20 UNL     1      59.881   3.608 -28.791  1.00  0.00     0.038 C 
BRANCH   7  12
HETATM   12  O1  UNL     1      60.266   1.690 -27.457  1.00  0.00    -0.390 OA
ATOM     13  H1  UNL     1      59.761   1.012 -27.023  1.00  0.00     0.210 HD
ENDBRANCH   7  12
ENDBRANCH   6   7
ENDBRANCH   5   6
ENDBRANCH   2   5
ENDBRANCH   1   2
BRANCH   1  14
HETATM   14  C5  UNL     1      63.721  -1.579 -30.174  1.00  0.00     0.028 C 
BRANCH  14  15
HETATM   15  C6  UNL     1      64.469  -2.834 -30.091  1.00  0.00     0.011 C 
BRANCH  15  16
HETATM   16  C7  UNL     1      65.752  -3.042 -30.792  1.00  0.00    -0.039 C 
HETATM   17  C8  UNL     1      65.493  -4.350 -31.614  1.00  0.00     0.014 C 
HETATM   18  C9  UNL     1      66.694  -4.785 -32.367  1.00  0.00    -0.013 C 
HETATM   19  C10 UNL     1      67.074  -3.726 -33.389  1.00  0.00     0.009 C 
HETATM   20  C14 UNL     1      67.832  -5.015 -31.409  1.00  0.00     0.009 C 
HETATM   21  C11 UNL     1      67.315  -2.463 -32.626  1.00  0.00    -0.013 C 
HETATM   22  C12 UNL     1      68.471  -2.655 -31.702  1.00  0.00     0.009 C 
HETATM   23  C16 UNL     1      66.044  -2.046 -31.912  1.00  0.00     0.014 C 
HETATM   24  C13 UNL     1      68.119  -3.728 -30.700  1.00  0.00    -0.013 C 
HETATM   25  C15 UNL     1      66.933  -3.224 -29.916  1.00  0.00     0.014 C 
ENDBRANCH  15  16
ENDBRANCH  14  15
ENDBRANCH   1  14
TORSDOF 8
ENDMDL
MODEL 5
REMARK VINA RESULT: -9.254890221      0.791      1.199
REMARK  8 active torsions:
REMARK  status: ('A' for Active; 'I' for Inactive)
REMARK    1  A    between atoms: O1_1  and  C1_3 
REMARK    2  A    between atoms: C1_3  and  C2_4 
REMARK    3  A    between atoms: C2_4  and  C3_5 
REMARK    4  A    between atoms: C3_5  and  N1_6 
REMARK    5  A    between atoms: N1_6  and  C4_9 
REMARK    6  A    between atoms: C4_9  and  C5_10 
REMARK    7  A    between atoms: C5_10  and  C6_11 
REMARK    8  A    between atoms: C6_11  and  C7_12 
ROOT
HETATM    1  C4  UNL     1      62.760  -0.833 -30.246  1.00  0.00     0.232 C 
ENDROOT
BRANCH   1   2
HETATM    2  N1  UNL     1      62.501   0.278 -29.285  1.00  0.00    -0.075 N 
ATOM      3  H12 UNL     1      62.520   1.192 -29.736  1.00  0.00     0.277 HD
ATOM      4  H11 UNL     1      63.278   0.419 -28.639  1.00  0.00     0.277 HD
BRANCH   2   5
HETATM    5  C3  UNL     1      61.280   0.038 -28.611  1.00  0.00     0.235 C 
BRANCH   5   6
HETATM    6  C2  UNL     1      60.707   1.279 -28.009  1.00  0.00     0.065 C 
BRANCH   6   7
HETATM    7  C1  UNL     1      60.022   2.157 -28.989  1.00  0.00     0.059 C 
HETATM    8  C17 UNL     1      60.053   3.623 -28.558  1.00  0.00     0.038 C 
HETATM    9  C18 UNL     1      58.706   4.116 -29.021  1.00  0.00     0.003 C 
HETATM   10  C19 UNL     1      57.805   2.992 -28.480  1.00  0.00     0.003 C 
HETATM   11  C20 UNL     1      58.524   1.799 -29.083  1.00  0.00     0.038 C 
BRANCH   7  12
HETATM   12  O1  UNL     1      60.542   2.122 -30.279  1.00  0.00    -0.390 OA
ATOM     13  H1  UNL     1      60.116   2.699 -30.903  1.00  0.00     0.210 HD
ENDBRANCH   7  12
ENDBRANCH   6   7
ENDBRANCH   5   6
ENDBRANCH   2   5
ENDBRANCH   1   2
BRANCH   1  14
HETATM   14  C5  UNL     1      64.192  -1.202 -30.215  1.00  0.00     0.028 C 
BRANCH  14  15
HETATM   15  C6  UNL     1      64.486  -2.636 -30.206  1.00  0.00     0.011 C 
BRANCH  15  16
HETATM   16  C7  UNL     1      65.692  -3.203 -30.841  1.00  0.00    -0.039 C 
HETATM   17  C8  UNL     1      66.125  -2.076 -31.839  1.00  0.00     0.014 C 
HETATM   18  C9  UNL     1      67.310  -2.463 -32.640  1.00  0.00    -0.013 C 
HETATM   19  C10 UNL     1      68.504  -2.682 -31.725  1.00  0.00     0.009 C 
HETATM   20  C14 UNL     1      67.008  -3.721 -33.410  1.00  0.00     0.009 C 
HETATM   21  C11 UNL     1      68.109  -3.748 -30.755  1.00  0.00    -0.013 C 
HETATM   22  C12 UNL     1      67.848  -5.019 -31.493  1.00  0.00     0.009 C 
HETATM   23  C16 UNL     1      66.921  -3.281 -29.936  1.00  0.00     0.014 C 
HETATM   24  C13 UNL     1      66.684  -4.806 -32.431  1.00  0.00    -0.013 C 
HETATM   25  C15 UNL     1      65.487  -4.473 -31.575  1.00  0.00     0.014 C 
ENDBRANCH  15  16
ENDBRANCH  14  15
ENDBRANCH   1  14
TORSDOF 8
ENDMDL
