MODEL 1
REMARK VINA RESULT: -9.782022713      0.000      0.000
REMARK  7 active torsions:
REMARK  status: ('A' for Active; 'I' for Inactive)
REMARK    1  A    between atoms: C2_2  and  C3_3 
REMARK    2  A    between atoms: C7_7  and  C8_8 
REMARK    3  A    between atoms: C8_8  and  C9_9 
REMARK    4  A    between atoms: C9_9  and  C10_10 
REMARK    5  A    between atoms: C10_10  and  C11_11 
REMARK    6  A    between atoms: C11_11  and  N1_12 
REMARK    7  A    between atoms: N1_12  and  C12_14 
ROOT
HETATM    1  C11 UNL     1      63.381  -2.670 -30.252  1.00  0.00     0.114 C 
ENDROOT
BRANCH   1   2
HETATM    2  C10 UNL     1      62.935  -2.049 -28.923  1.00  0.00     0.019 C 
BRANCH   2   3
HETATM    3  C9  UNL     1      62.919  -0.556 -29.141  1.00  0.00     0.004 C 
BRANCH   3   4
HETATM    4  C8  UNL     1      61.595   0.032 -28.722  1.00  0.00     0.024 C 
BRANCH   4   5
HETATM    5  C7  UNL     1      60.989   0.940 -29.733  1.00  0.00     0.077 C 
HETATM    6  C6  UNL     1      59.544   0.601 -30.030  1.00  0.00     0.025 C 
HETATM    7  C5  UNL     1      58.656   0.888 -28.865  1.00  0.00     0.004 C 
HETATM    8  C4  UNL     1      59.097   2.028 -28.010  1.00  0.00     0.024 C 
HETATM    9  C3  UNL     1      60.123   2.914 -28.620  1.00  0.00     0.076 C 
HETATM   10  N2  UNL     1      61.141   2.302 -29.385  1.00  0.00    -0.413 N 
ATOM     11  H2  UNL     1      61.964   2.829 -29.677  1.00  0.00     0.154 HD
BRANCH   9  12
HETATM   12  C2  UNL     1      59.426   3.964 -29.457  1.00  0.00     0.020 C 
HETATM   13  C1  UNL     1      58.091   4.331 -28.846  1.00  0.00     0.007 C 
ENDBRANCH   9  12
ENDBRANCH   4   5
ENDBRANCH   3   4
ENDBRANCH   2   3
ENDBRANCH   1   2
BRANCH   1  14
HETATM   14  N1  UNL     1      64.454  -3.546 -29.978  1.00  0.00    -0.412 N 
ATOM     15  H1  UNL     1      64.395  -4.236 -29.229  1.00  0.00     0.154 HD
BRANCH  14  16
HETATM   16  C12 UNL     1      65.616  -3.433 -30.782  1.00  0.00     0.026 C 
HETATM   17  C13 UNL     1      65.562  -4.518 -31.849  1.00  0.00     0.035 C 
HETATM   18  C14 UNL     1      66.853  -4.572 -32.638  1.00  0.00    -0.012 C 
HETATM   19  C15 UNL     1      67.050  -3.246 -33.315  1.00  0.00     0.009 C 
HETATM   20  C19 UNL     1      67.968  -4.869 -31.650  1.00  0.00     0.009 C 
HETATM   21  C16 UNL     1      67.082  -2.151 -32.269  1.00  0.00    -0.012 C 
HETATM   22  C17 UNL     1      68.277  -2.391 -31.394  1.00  0.00     0.009 C 
HETATM   23  C21 UNL     1      65.782  -2.126 -31.481  1.00  0.00     0.035 C 
HETATM   24  C18 UNL     1      68.087  -3.716 -30.697  1.00  0.00    -0.012 C 
HETATM   25  C20 UNL     1      66.828  -3.627 -29.885  1.00  0.00     0.035 C 
ENDBRANCH  14  16
ENDBRANCH   1  14
TORSDOF 7
ENDMDL
MODEL 2
REMARK VINA RESULT: -9.764899281      0.142      1.511
REMARK  7 active torsions:
REMARK  status: ('A' for Active; 'I' for Inactive)
REMARK    1  A    between atoms: C2_2  and  C3_3 
REMARK    2  A    between atoms: C7_7  and  C8_8 
REMARK    3  A    between atoms: C8_8  and  C9_9 
REMARK    4  A    between atoms: C9_9  and  C10_10 
REMARK    5  A    between atoms: C10_10  and  C11_11 
REMARK    6  A    between atoms: C11_11  and  N1_12 
REMARK    7  A    between atoms: N1_12  and  C12_14 
ROOT
HETATM    1  C11 UNL     1      63.459  -2.525 -30.250  1.00  0.00     0.114 C 
ENDROOT
BRANCH   1   2
HETATM    2  C10 UNL     1      62.943  -2.031 -28.894  1.00  0.00     0.019 C 
BRANCH   2   3
HETATM    3  C9  UNL     1      62.878  -0.526 -28.992  1.00  0.00     0.004 C 
BRANCH   3   4
HETATM    4  C8  UNL     1      61.496  -0.027 -28.651  1.00  0.00     0.024 C 
BRANCH   4   5
HETATM    5  C7  UNL     1      60.906   0.869 -29.682  1.00  0.00     0.077 C 
HETATM    6  C6  UNL     1      59.443   0.574 -29.942  1.00  0.00     0.025 C 
HETATM    7  C5  UNL     1      58.589   0.933 -28.773  1.00  0.00     0.004 C 
HETATM    8  C4  UNL     1      59.088   2.084 -27.965  1.00  0.00     0.024 C 
HETATM    9  C3  UNL     1      60.134   2.910 -28.623  1.00  0.00     0.076 C 
HETATM   10  N2  UNL     1      61.114   2.235 -29.383  1.00  0.00    -0.413 N 
ATOM     11  H2  UNL     1      61.950   2.721 -29.708  1.00  0.00     0.154 HD
BRANCH   9  12
HETATM   12  C2  UNL     1      59.460   3.956 -29.483  1.00  0.00     0.020 C 
HETATM   13  C1  UNL     1      58.113   4.333 -28.905  1.00  0.00     0.007 C 
ENDBRANCH   9  12
ENDBRANCH   4   5
ENDBRANCH   3   4
ENDBRANCH   2   3
ENDBRANCH   1   2
BRANCH   1  14
HETATM   14  N1  UNL     1      64.404  -3.546 -30.004  1.00  0.00    -0.412 N 
ATOM     15  H1  UNL     1      64.252  -4.241 -29.273  1.00  0.00     0.154 HD
BRANCH  14  16
HETATM   16  C12 UNL     1      65.570  -3.568 -30.808  1.00  0.00     0.026 C 
HETATM   17  C13 UNL     1      66.758  -3.899 -29.913  1.00  0.00     0.035 C 
HETATM   18  C14 UNL     1      68.063  -3.770 -30.668  1.00  0.00    -0.012 C 
HETATM   19  C15 UNL     1      68.045  -4.740 -31.816  1.00  0.00     0.009 C 
HETATM   20  C19 UNL     1      68.160  -2.332 -31.151  1.00  0.00     0.009 C 
HETATM   21  C16 UNL     1      66.855  -4.441 -32.704  1.00  0.00    -0.012 C 
HETATM   22  C17 UNL     1      67.049  -3.068 -33.279  1.00  0.00     0.009 C 
HETATM   23  C21 UNL     1      65.557  -4.563 -31.920  1.00  0.00     0.035 C 
HETATM   24  C18 UNL     1      67.057  -2.080 -32.138  1.00  0.00    -0.012 C 
HETATM   25  C20 UNL     1      65.738  -2.192 -31.430  1.00  0.00     0.035 C 
ENDBRANCH  14  16
ENDBRANCH   1  14
TORSDOF 7
ENDMDL
MODEL 3
REMARK VINA RESULT: -9.720155942      0.379      1.626
REMARK  7 active torsions:
REMARK  status: ('A' for Active; 'I' for Inactive)
REMARK    1  A    between atoms: C2_2  and  C3_3 
REMARK    2  A    between atoms: C7_7  and  C8_8 
REMARK    3  A    between atoms: C8_8  and  C9_9 
REMARK    4  A    between atoms: C9_9  and  C10_10 
REMARK    5  A    between atoms: C10_10  and  C11_11 
REMARK    6  A    between atoms: C11_11  and  N1_12 
REMARK    7  A    between atoms: N1_12  and  C12_14 
ROOT
HETATM    1  C11 UNL     1      63.737  -2.778 -29.459  1.00  0.00     0.114 C 
ENDROOT
BRANCH   1   2
HETATM    2  C10 UNL     1      62.577  -1.866 -29.874  1.00  0.00     0.019 C 
BRANCH   2   3
HETATM    3  C9  UNL     1      62.823  -0.540 -29.198  1.00  0.00     0.004 C 
BRANCH   3   4
HETATM    4  C8  UNL     1      61.525   0.072 -28.733  1.00  0.00     0.024 C 
BRANCH   4   5
HETATM    5  C7  UNL     1      60.880   0.958 -29.739  1.00  0.00     0.077 C 
HETATM    6  C6  UNL     1      59.422   0.618 -29.967  1.00  0.00     0.025 C 
HETATM    7  C5  UNL     1      58.586   0.937 -28.773  1.00  0.00     0.004 C 
HETATM    8  C4  UNL     1      59.066   2.096 -27.965  1.00  0.00     0.024 C 
HETATM    9  C3  UNL     1      60.068   2.962 -28.638  1.00  0.00     0.076 C 
HETATM   10  N2  UNL     1      61.051   2.327 -29.430  1.00  0.00    -0.413 N 
ATOM     11  H2  UNL     1      61.862   2.844 -29.770  1.00  0.00     0.154 HD
BRANCH   9  12
HETATM   12  C2  UNL     1      59.340   3.995 -29.470  1.00  0.00     0.020 C 
HETATM   13  C1  UNL     1      58.026   4.370 -28.820  1.00  0.00     0.007 C 
ENDBRANCH   9  12
ENDBRANCH   4   5
ENDBRANCH   3   4
ENDBRANCH   2   3
ENDBRANCH   1   2
BRANCH   1  14
HETATM   14  N1  UNL     1      64.080  -3.573 -30.575  1.00  0.00    -0.412 N 
ATOM     15  H1  UNL     1      63.377  -4.124 -31.067  1.00  0.00     0.154 HD
BRANCH  14  16
HETATM   16  C12 UNL     1      65.436  -3.576 -30.987  1.00  0.00     0.026 C 
HETATM   17  C13 UNL     1      65.792  -2.173 -31.462  1.00  0.00     0.035 C 
HETATM   18  C14 UNL     1      67.172  -2.139 -32.080  1.00  0.00    -0.012 C 
HETATM   19  C15 UNL     1      68.169  -2.557 -31.037  1.00  0.00     0.009 C 
HETATM   20  C19 UNL     1      67.158  -3.099 -33.258  1.00  0.00     0.009 C 
HETATM   21  C16 UNL     1      67.817  -3.942 -30.535  1.00  0.00    -0.012 C 
HETATM   22  C17 UNL     1      67.950  -4.892 -31.690  1.00  0.00     0.009 C 
HETATM   23  C21 UNL     1      66.421  -3.954 -29.932  1.00  0.00     0.035 C 
HETATM   24  C18 UNL     1      66.944  -4.492 -32.742  1.00  0.00    -0.012 C 
HETATM   25  C20 UNL     1      65.579  -4.575 -32.123  1.00  0.00     0.035 C 
ENDBRANCH  14  16
ENDBRANCH   1  14
TORSDOF 7
ENDMDL
MODEL 4
REMARK VINA RESULT: -9.492244782      1.178      2.245
REMARK  7 active torsions:
REMARK  status: ('A' for Active; 'I' for Inactive)
REMARK    1  A    between atoms: C2_2  and  C3_3 
REMARK    2  A    between atoms: C7_7  and  C8_8 
REMARK    3  A    between atoms: C8_8  and  C9_9 
REMARK    4  A    between atoms: C9_9  and  C10_10 
REMARK    5  A    between atoms: C10_10  and  C11_11 
REMARK    6  A    between atoms: C11_11  and  N1_12 
REMARK    7  A    between atoms: N1_12  and  C12_14 
ROOT
HETATM    1  C11 UNL     1      63.594  -2.265 -29.602  1.00  0.00     0.114 C 
ENDROOT
BRANCH   1   2
HETATM    2  C10 UNL     1      62.213  -1.785 -30.060  1.00  0.00     0.019 C 
BRANCH   2   3
HETATM    3  C9  UNL     1      62.333  -0.295 -30.270  1.00  0.00     0.004 C 
BRANCH   3   4
HETATM    4  C8  UNL     1      60.972   0.354 -30.291  1.00  0.00     0.024 C 
BRANCH   4   5
HETATM    5  C7  UNL     1      60.220   0.221 -29.013  1.00  0.00     0.077 C 
HETATM    6  C6  UNL     1      60.733   1.153 -27.935  1.00  0.00     0.025 C 
HETATM    7  C5  UNL     1      60.445   2.582 -28.254  1.00  0.00     0.004 C 
HETATM    8  C4  UNL     1      59.197   2.807 -29.041  1.00  0.00     0.024 C 
HETATM    9  C3  UNL     1      58.262   1.652 -29.084  1.00  0.00     0.076 C 
HETATM   10  N2  UNL     1      58.825   0.362 -29.199  1.00  0.00    -0.413 N 
ATOM     11  H2  UNL     1      58.241  -0.447 -29.411  1.00  0.00     0.154 HD
BRANCH   9  12
HETATM   12  C2  UNL     1      57.365   1.705 -27.867  1.00  0.00     0.020 C 
HETATM   13  C1  UNL     1      56.285   2.749 -28.047  1.00  0.00     0.007 C 
ENDBRANCH   9  12
ENDBRANCH   4   5
ENDBRANCH   3   4
ENDBRANCH   2   3
ENDBRANCH   1   2
BRANCH   1  14
HETATM   14  N1  UNL     1      63.949  -3.376 -30.397  1.00  0.00    -0.412 N 
ATOM     15  H1  UNL     1      63.262  -4.087 -30.648  1.00  0.00     0.154 HD
BRANCH  14  16
HETATM   16  C12 UNL     1      65.294  -3.468 -30.834  1.00  0.00     0.026 C 
HETATM   17  C13 UNL     1      65.731  -2.091 -31.319  1.00  0.00     0.035 C 
HETATM   18  C14 UNL     1      67.099  -2.148 -31.964  1.00  0.00    -0.012 C 
HETATM   19  C15 UNL     1      68.086  -2.629 -30.938  1.00  0.00     0.009 C 
HETATM   20  C19 UNL     1      66.999  -3.106 -33.139  1.00  0.00     0.009 C 
HETATM   21  C16 UNL     1      67.654  -3.988 -30.427  1.00  0.00    -0.012 C 
HETATM   22  C17 UNL     1      67.703  -4.945 -31.581  1.00  0.00     0.009 C 
HETATM   23  C21 UNL     1      66.272  -3.908 -29.797  1.00  0.00     0.035 C 
HETATM   24  C18 UNL     1      66.706  -4.482 -32.615  1.00  0.00    -0.012 C 
HETATM   25  C20 UNL     1      65.350  -4.476 -31.970  1.00  0.00     0.035 C 
ENDBRANCH  14  16
ENDBRANCH   1  14
TORSDOF 7
ENDMDL
MODEL 5
REMARK VINA RESULT: -9.383023102      1.186      2.163
REMARK  7 active torsions:
REMARK  status: ('A' for Active; 'I' for Inactive)
REMARK    1  A    between atoms: C2_2  and  C3_3 
REMARK    2  A    between atoms: C7_7  and  C8_8 
REMARK    3  A    between atoms: C8_8  and  C9_9 
REMARK    4  A    between atoms: C9_9  and  C10_10 
REMARK    5  A    between atoms: C10_10  and  C11_11 
REMARK    6  A    between atoms: C11_11  and  N1_12 
REMARK    7  A    between atoms: N1_12  and  C12_14 
ROOT
HETATM    1  C11 UNL     1      63.518  -2.361 -29.454  1.00  0.00     0.114 C 
ENDROOT
BRANCH   1   2
HETATM    2  C10 UNL     1      62.196  -1.765 -29.950  1.00  0.00     0.019 C 
BRANCH   2   3
HETATM    3  C9  UNL     1      62.429  -0.281 -30.090  1.00  0.00     0.004 C 
BRANCH   3   4
HETATM    4  C8  UNL     1      61.119   0.464 -30.136  1.00  0.00     0.024 C 
BRANCH   4   5
HETATM    5  C7  UNL     1      60.293   0.311 -28.907  1.00  0.00     0.077 C 
HETATM    6  C6  UNL     1      60.662   1.309 -27.829  1.00  0.00     0.025 C 
HETATM    7  C5  UNL     1      60.291   2.702 -28.213  1.00  0.00     0.004 C 
HETATM    8  C4  UNL     1      59.086   2.809 -29.087  1.00  0.00     0.024 C 
HETATM    9  C3  UNL     1      58.245   1.587 -29.154  1.00  0.00     0.076 C 
HETATM   10  N2  UNL     1      58.908   0.340 -29.189  1.00  0.00    -0.413 N 
ATOM     11  H2  UNL     1      58.401  -0.516 -29.412  1.00  0.00     0.154 HD
BRANCH   9  12
HETATM   12  C2  UNL     1      57.265   1.605 -28.001  1.00  0.00     0.020 C 
HETATM   13  C1  UNL     1      56.373   2.824 -28.081  1.00  0.00     0.007 C 
ENDBRANCH   9  12
ENDBRANCH   4   5
ENDBRANCH   3   4
ENDBRANCH   2   3
ENDBRANCH   1   2
BRANCH   1  14
HETATM   14  N1  UNL     1      63.826  -3.468 -30.275  1.00  0.00    -0.412 N 
ATOM     15  H1  UNL     1      63.140  -4.205 -30.447  1.00  0.00     0.154 HD
BRANCH  14  16
HETATM   16  C12 UNL     1      65.120  -3.520 -30.850  1.00  0.00     0.026 C 
HETATM   17  C13 UNL     1      66.101  -3.960 -29.771  1.00  0.00     0.035 C 
HETATM   18  C14 UNL     1      67.529  -3.871 -30.263  1.00  0.00    -0.012 C 
HETATM   19  C15 UNL     1      67.680  -4.784 -31.448  1.00  0.00     0.009 C 
HETATM   20  C19 UNL     1      67.783  -2.420 -30.637  1.00  0.00     0.009 C 
HETATM   21  C16 UNL     1      66.694  -4.375 -32.522  1.00  0.00    -0.012 C 
HETATM   22  C17 UNL     1      67.058  -2.990 -32.972  1.00  0.00     0.009 C 
HETATM   23  C21 UNL     1      65.268  -4.459 -32.000  1.00  0.00     0.035 C 
HETATM   24  C18 UNL     1      66.898  -2.059 -31.795  1.00  0.00    -0.012 C 
HETATM   25  C20 UNL     1      65.467  -2.128 -31.350  1.00  0.00     0.035 C 
ENDBRANCH  14  16
ENDBRANCH   1  14
TORSDOF 7
ENDMDL
