MODEL 1
REMARK VINA RESULT: -8.179525482      0.000      0.000
REMARK  12 active torsions:
REMARK  status: ('A' for Active; 'I' for Inactive)
REMARK    1  A    between atoms: C2_2  and  C4_4 
REMARK    2  A    between atoms: C5_5  and  O1_6 
REMARK    3  A    between atoms: C6_8  and  O2_9 
REMARK    4  A    between atoms: O2_9  and  C7_10 
REMARK    5  A    between atoms: C9_13  and  O4_14 
REMARK    6  A    between atoms: O4_14  and  C10_15 
REMARK    7  A    between atoms: C12_17  and  C13_18 
REMARK    8  A    between atoms: C16_23  and  N1_24 
REMARK    9  A    between atoms: C17_28  and  N2_29 
REMARK   10  A    between atoms: C18_33  and  O7_34 
REMARK   11  A    between atoms: C19_36  and  O8_37 
REMARK   12  A    between atoms: C20_39  and  O9_40 
ROOT
HETATM    1  C7  UNL     1      21.778  22.107  27.052  1.00  0.00     0.291 C 
HETATM    2  O3  UNL     1      20.990  21.810  25.913  1.00  0.00    -0.356 OA
HETATM    3  C8  UNL     1      21.792  22.132  24.792  1.00  0.00     0.205 C 
HETATM    4  C9  UNL     1      21.854  23.627  24.577  1.00  0.00     0.179 C 
HETATM    5  C17 UNL     1      21.444  24.257  25.913  1.00  0.00     0.247 C 
HETATM    6  C18 UNL     1      22.305  23.520  26.950  1.00  0.00     0.206 C 
ENDROOT
BRANCH   1   7
HETATM    7  O2  UNL     1      21.069  22.027  28.228  1.00  0.00    -0.348 OA
BRANCH   7   8
HETATM    8  C6  UNL     1      19.947  21.229  28.158  1.00  0.00     0.185 C 
HETATM    9  C5  UNL     1      18.782  21.964  28.766  1.00  0.00     0.160 C 
HETATM   10  C4  UNL     1      17.877  20.915  29.306  1.00  0.00     0.076 C 
HETATM   11  C20 UNL     1      18.608  19.597  29.127  1.00  0.00     0.162 C 
HETATM   12  C19 UNL     1      20.071  19.987  29.021  1.00  0.00     0.179 C 
BRANCH   9  13
HETATM   13  O1  UNL     1      19.227  22.890  29.714  1.00  0.00    -0.392 OA
ATOM     14  H1  UNL     1      19.809  22.531  30.373  1.00  0.00     0.210 HD
ENDBRANCH   9  13
BRANCH  10  15
HETATM   15  C2  UNL     1      17.371  21.108  30.673  1.00  0.00    -0.084 C 
HETATM   16  C1  UNL     1      16.083  21.219  30.885  1.00  0.00     0.014 C 
HETATM   17  C3  UNL     1      18.259  21.163  31.886  1.00  0.00     0.043 C 
ENDBRANCH  10  15
BRANCH  11  18
HETATM   18  O9  UNL     1      18.327  18.646  30.058  1.00  0.00    -0.387 OA
HETATM   19  C21 UNL     1      17.632  17.562  29.465  1.00  0.00     0.202 C 
ENDBRANCH  11  18
BRANCH  12  20
HETATM   20  O8  UNL     1      20.694  20.245  30.206  1.00  0.00    -0.390 OA
ATOM     21  H8  UNL     1      20.502  21.119  30.526  1.00  0.00     0.210 HD
ENDBRANCH  12  20
ENDBRANCH   7   8
ENDBRANCH   1   7
BRANCH   6  22
HETATM   22  O7  UNL     1      23.614  23.513  26.422  1.00  0.00    -0.388 OA
ATOM     23  H7  UNL     1      23.918  24.403  26.290  1.00  0.00     0.210 HD
ENDBRANCH   6  22
BRANCH   5  24
HETATM   24  N2  UNL     1      20.030  24.060  26.132  1.00  0.00    -0.070 N 
ATOM     25  H23 UNL     1      19.486  24.207  25.282  1.00  0.00     0.274 HD
ATOM     26  H22 UNL     1      19.799  23.078  26.287  1.00  0.00     0.274 HD
ATOM     27  H21 UNL     1      19.714  24.654  26.898  1.00  0.00     0.274 HD
ENDBRANCH   5  24
BRANCH   4  28
HETATM   28  O4  UNL     1      21.079  24.051  23.531  1.00  0.00    -0.374 OA
BRANCH  28  29
HETATM   29  C10 UNL     1      21.813  24.424  22.412  1.00  0.00     0.153 C 
HETATM   30  C11 UNL     1      22.128  23.308  21.474  1.00  0.00     0.049 C 
HETATM   31  C12 UNL     1      22.829  23.907  20.265  1.00  0.00     0.089 C 
HETATM   32  C14 UNL     1      24.193  24.384  20.772  1.00  0.00     0.017 C 
HETATM   33  C15 UNL     1      24.019  25.460  21.791  1.00  0.00     0.036 C 
HETATM   34  C16 UNL     1      23.059  25.155  22.888  1.00  0.00     0.212 C 
BRANCH  31  35
HETATM   35  C13 UNL     1      22.981  22.957  19.175  1.00  0.00     0.177 C 
HETATM   36  O5  UNL     1      23.204  23.327  18.010  1.00  0.00    -0.648 OA
HETATM   37  O6  UNL     1      22.876  21.602  19.423  1.00  0.00    -0.648 OA
ENDBRANCH  31  35
BRANCH  34  38
HETATM   38  N1  UNL     1      22.584  26.446  23.400  1.00  0.00    -0.073 N 
ATOM     39  H13 UNL     1      21.698  26.747  22.995  1.00  0.00     0.274 HD
ATOM     40  H12 UNL     1      22.266  26.412  24.369  1.00  0.00     0.274 HD
ATOM     41  H11 UNL     1      23.351  27.100  23.243  1.00  0.00     0.274 HD
ENDBRANCH  34  38
ENDBRANCH  28  29
ENDBRANCH   4  28
TORSDOF 12
ENDMDL
MODEL 2
REMARK VINA RESULT: -7.519398925      4.440      5.788
REMARK  12 active torsions:
REMARK  status: ('A' for Active; 'I' for Inactive)
REMARK    1  A    between atoms: C2_2  and  C4_4 
REMARK    2  A    between atoms: C5_5  and  O1_6 
REMARK    3  A    between atoms: C6_8  and  O2_9 
REMARK    4  A    between atoms: O2_9  and  C7_10 
REMARK    5  A    between atoms: C9_13  and  O4_14 
REMARK    6  A    between atoms: O4_14  and  C10_15 
REMARK    7  A    between atoms: C12_17  and  C13_18 
REMARK    8  A    between atoms: C16_23  and  N1_24 
REMARK    9  A    between atoms: C17_28  and  N2_29 
REMARK   10  A    between atoms: C18_33  and  O7_34 
REMARK   11  A    between atoms: C19_36  and  O8_37 
REMARK   12  A    between atoms: C20_39  and  O9_40 
ROOT
HETATM    1  C7  UNL     1      23.008  26.230  25.425  1.00  0.00     0.291 C 
HETATM    2  O3  UNL     1      21.982  27.082  24.950  1.00  0.00    -0.356 OA
HETATM    3  C8  UNL     1      22.580  27.890  23.953  1.00  0.00     0.205 C 
HETATM    4  C9  UNL     1      23.434  28.974  24.571  1.00  0.00     0.179 C 
HETATM    5  C17 UNL     1      23.732  28.506  26.001  1.00  0.00     0.247 C 
HETATM    6  C18 UNL     1      24.210  27.056  25.822  1.00  0.00     0.206 C 
ENDROOT
BRANCH   1   7
HETATM    7  O2  UNL     1      22.632  25.509  26.536  1.00  0.00    -0.348 OA
BRANCH   7   8
HETATM    8  C6  UNL     1      21.700  24.526  26.283  1.00  0.00     0.185 C 
HETATM    9  C5  UNL     1      20.844  24.333  27.505  1.00  0.00     0.160 C 
HETATM   10  C4  UNL     1      20.405  22.913  27.474  1.00  0.00     0.076 C 
HETATM   11  C20 UNL     1      21.134  22.274  26.307  1.00  0.00     0.162 C 
HETATM   12  C19 UNL     1      22.341  23.166  26.081  1.00  0.00     0.179 C 
BRANCH   9  13
HETATM   13  O1  UNL     1      21.546  24.697  28.658  1.00  0.00    -0.392 OA
ATOM     14  H1  UNL     1      21.887  25.584  28.648  1.00  0.00     0.210 HD
ENDBRANCH   9  13
BRANCH  10  15
HETATM   15  C2  UNL     1      20.535  22.145  28.722  1.00  0.00    -0.084 C 
HETATM   16  C1  UNL     1      19.549  21.384  29.127  1.00  0.00     0.014 C 
HETATM   17  C3  UNL     1      21.773  22.156  29.576  1.00  0.00     0.043 C 
ENDBRANCH  10  15
BRANCH  11  18
HETATM   18  O9  UNL     1      21.410  20.949  26.451  1.00  0.00    -0.387 OA
HETATM   19  C21 UNL     1      21.579  20.338  25.183  1.00  0.00     0.202 C 
ENDBRANCH  11  18
BRANCH  12  20
HETATM   20  O8  UNL     1      23.387  22.960  26.931  1.00  0.00    -0.390 OA
ATOM     21  H8  UNL     1      23.928  22.228  26.661  1.00  0.00     0.210 HD
ENDBRANCH  12  20
ENDBRANCH   7   8
ENDBRANCH   1   7
BRANCH   6  22
HETATM   22  O7  UNL     1      25.145  27.091  24.766  1.00  0.00    -0.388 OA
ATOM     23  H7  UNL     1      25.616  27.915  24.774  1.00  0.00     0.210 HD
ENDBRANCH   6  22
BRANCH   5  24
HETATM   24  N2  UNL     1      22.535  28.595  26.803  1.00  0.00    -0.070 N 
ATOM     25  H23 UNL     1      22.400  27.768  27.384  1.00  0.00     0.274 HD
ATOM     26  H22 UNL     1      22.623  29.287  27.548  1.00  0.00     0.274 HD
ATOM     27  H21 UNL     1      21.731  28.778  26.203  1.00  0.00     0.274 HD
ENDBRANCH   5  24
BRANCH   4  28
HETATM   28  O4  UNL     1      22.845  30.210  24.530  1.00  0.00    -0.374 OA
BRANCH  28  29
HETATM   29  C10 UNL     1      21.936  30.357  23.490  1.00  0.00     0.153 C 
HETATM   30  C11 UNL     1      22.533  30.811  22.202  1.00  0.00     0.049 C 
HETATM   31  C12 UNL     1      21.428  30.810  21.157  1.00  0.00     0.089 C 
HETATM   32  C14 UNL     1      20.475  31.939  21.562  1.00  0.00     0.017 C 
HETATM   33  C15 UNL     1      19.862  31.646  22.890  1.00  0.00     0.036 C 
HETATM   34  C16 UNL     1      20.818  31.270  23.969  1.00  0.00     0.212 C 
BRANCH  31  35
HETATM   35  C13 UNL     1      21.930  31.010  19.807  1.00  0.00     0.177 C 
HETATM   36  O5  UNL     1      22.006  30.076  18.991  1.00  0.00    -0.648 OA
HETATM   37  O6  UNL     1      22.337  32.267  19.403  1.00  0.00    -0.648 OA
ENDBRANCH  31  35
BRANCH  34  38
HETATM   38  N1  UNL     1      20.058  30.480  24.945  1.00  0.00    -0.073 N 
ATOM     39  H13 UNL     1      19.518  29.722  24.528  1.00  0.00     0.274 HD
ATOM     40  H12 UNL     1      20.641  29.896  25.544  1.00  0.00     0.274 HD
ATOM     41  H11 UNL     1      19.490  31.154  25.458  1.00  0.00     0.274 HD
ENDBRANCH  34  38
ENDBRANCH  28  29
ENDBRANCH   4  28
TORSDOF 12
ENDMDL
MODEL 3
REMARK VINA RESULT: -7.487267241      3.684      4.746
REMARK  12 active torsions:
REMARK  status: ('A' for Active; 'I' for Inactive)
REMARK    1  A    between atoms: C2_2  and  C4_4 
REMARK    2  A    between atoms: C5_5  and  O1_6 
REMARK    3  A    between atoms: C6_8  and  O2_9 
REMARK    4  A    between atoms: O2_9  and  C7_10 
REMARK    5  A    between atoms: C9_13  and  O4_14 
REMARK    6  A    between atoms: O4_14  and  C10_15 
REMARK    7  A    between atoms: C12_17  and  C13_18 
REMARK    8  A    between atoms: C16_23  and  N1_24 
REMARK    9  A    between atoms: C17_28  and  N2_29 
REMARK   10  A    between atoms: C18_33  and  O7_34 
REMARK   11  A    between atoms: C19_36  and  O8_37 
REMARK   12  A    between atoms: C20_39  and  O9_40 
ROOT
HETATM    1  C7  UNL     1      21.189  23.657  26.376  1.00  0.00     0.291 C 
HETATM    2  O3  UNL     1      20.621  24.879  26.814  1.00  0.00    -0.356 OA
HETATM    3  C8  UNL     1      20.972  25.841  25.837  1.00  0.00     0.205 C 
HETATM    4  C9  UNL     1      22.418  26.260  25.978  1.00  0.00     0.179 C 
HETATM    5  C17 UNL     1      23.095  25.150  26.790  1.00  0.00     0.247 C 
HETATM    6  C18 UNL     1      22.659  23.857  26.084  1.00  0.00     0.206 C 
ENDROOT
BRANCH   1   7
HETATM    7  O2  UNL     1      21.098  22.659  27.319  1.00  0.00    -0.348 OA
BRANCH   7   8
HETATM    8  C6  UNL     1      19.946  22.696  28.073  1.00  0.00     0.185 C 
HETATM    9  C5  UNL     1      20.285  23.150  29.467  1.00  0.00     0.160 C 
HETATM   10  C4  UNL     1      19.273  22.521  30.357  1.00  0.00     0.076 C 
HETATM   11  C20 UNL     1      18.453  21.600  29.474  1.00  0.00     0.162 C 
HETATM   12  C19 UNL     1      19.352  21.316  28.284  1.00  0.00     0.179 C 
BRANCH   9  13
HETATM   13  O1  UNL     1      21.610  22.830  29.779  1.00  0.00    -0.392 OA
ATOM     14  H1  UNL     1      21.746  22.543  30.675  1.00  0.00     0.210 HD
ENDBRANCH   9  13
BRANCH  10  15
HETATM   15  C2  UNL     1      19.771  21.858  31.572  1.00  0.00    -0.084 C 
HETATM   16  C1  UNL     1      19.176  22.065  32.721  1.00  0.00     0.014 C 
HETATM   17  C3  UNL     1      20.938  20.909  31.579  1.00  0.00     0.043 C 
ENDBRANCH  10  15
BRANCH  11  18
HETATM   18  O9  UNL     1      17.948  20.500  30.094  1.00  0.00    -0.387 OA
HETATM   19  C21 UNL     1      16.892  19.942  29.332  1.00  0.00     0.202 C 
ENDBRANCH  11  18
BRANCH  12  20
HETATM   20  O8  UNL     1      20.313  20.371  28.490  1.00  0.00    -0.390 OA
ATOM     21  H8  UNL     1      20.081  19.536  28.100  1.00  0.00     0.210 HD
ENDBRANCH  12  20
ENDBRANCH   7   8
ENDBRANCH   1   7
BRANCH   6  22
HETATM   22  O7  UNL     1      22.852  24.090  24.707  1.00  0.00    -0.388 OA
ATOM     23  H7  UNL     1      23.736  23.851  24.456  1.00  0.00     0.210 HD
ENDBRANCH   6  22
BRANCH   5  24
HETATM   24  N2  UNL     1      22.648  25.207  28.162  1.00  0.00    -0.070 N 
ATOM     25  H23 UNL     1      22.817  24.331  28.656  1.00  0.00     0.274 HD
ATOM     26  H22 UNL     1      23.236  25.815  28.732  1.00  0.00     0.274 HD
ATOM     27  H21 UNL     1      21.667  25.482  28.193  1.00  0.00     0.274 HD
ENDBRANCH   5  24
BRANCH   4  28
HETATM   28  O4  UNL     1      22.565  27.498  26.545  1.00  0.00    -0.374 OA
BRANCH  28  29
HETATM   29  C10 UNL     1      21.909  28.508  25.852  1.00  0.00     0.153 C 
HETATM   30  C11 UNL     1      22.729  29.175  24.802  1.00  0.00     0.049 C 
HETATM   31  C12 UNL     1      21.830  30.164  24.076  1.00  0.00     0.089 C 
HETATM   32  C14 UNL     1      21.525  31.270  25.092  1.00  0.00     0.017 C 
HETATM   33  C15 UNL     1      20.768  30.713  26.251  1.00  0.00     0.036 C 
HETATM   34  C16 UNL     1      21.350  29.490  26.870  1.00  0.00     0.212 C 
BRANCH  31  35
HETATM   35  C13 UNL     1      22.447  30.712  22.879  1.00  0.00     0.177 C 
HETATM   36  O5  UNL     1      22.541  31.936  22.692  1.00  0.00    -0.648 OA
HETATM   37  O6  UNL     1      22.947  29.861  21.912  1.00  0.00    -0.648 OA
ENDBRANCH  31  35
BRANCH  34  38
HETATM   38  N1  UNL     1      20.243  28.786  27.529  1.00  0.00    -0.073 N 
ATOM     39  H13 UNL     1      19.912  27.971  27.013  1.00  0.00     0.274 HD
ATOM     40  H12 UNL     1      20.519  28.289  28.375  1.00  0.00     0.274 HD
ATOM     41  H11 UNL     1      19.525  29.493  27.684  1.00  0.00     0.274 HD
ENDBRANCH  34  38
ENDBRANCH  28  29
ENDBRANCH   4  28
TORSDOF 12
ENDMDL
MODEL 4
REMARK VINA RESULT: -7.484862193      3.516      4.735
REMARK  12 active torsions:
REMARK  status: ('A' for Active; 'I' for Inactive)
REMARK    1  A    between atoms: C2_2  and  C4_4 
REMARK    2  A    between atoms: C5_5  and  O1_6 
REMARK    3  A    between atoms: C6_8  and  O2_9 
REMARK    4  A    between atoms: O2_9  and  C7_10 
REMARK    5  A    between atoms: C9_13  and  O4_14 
REMARK    6  A    between atoms: O4_14  and  C10_15 
REMARK    7  A    between atoms: C12_17  and  C13_18 
REMARK    8  A    between atoms: C16_23  and  N1_24 
REMARK    9  A    between atoms: C17_28  and  N2_29 
REMARK   10  A    between atoms: C18_33  and  O7_34 
REMARK   11  A    between atoms: C19_36  and  O8_37 
REMARK   12  A    between atoms: C20_39  and  O9_40 
ROOT
HETATM    1  C7  UNL     1      20.821  24.065  26.484  1.00  0.00     0.291 C 
HETATM    2  O3  UNL     1      20.596  25.457  26.358  1.00  0.00    -0.356 OA
HETATM    3  C8  UNL     1      21.534  25.917  25.403  1.00  0.00     0.205 C 
HETATM    4  C9  UNL     1      22.918  26.019  26.004  1.00  0.00     0.179 C 
HETATM    5  C17 UNL     1      22.894  25.133  27.255  1.00  0.00     0.247 C 
HETATM    6  C18 UNL     1      22.286  23.812  26.762  1.00  0.00     0.206 C 
ENDROOT
BRANCH   1   7
HETATM    7  O2  UNL     1      20.112  23.501  27.519  1.00  0.00    -0.348 OA
BRANCH   7   8
HETATM    8  C6  UNL     1      20.612  22.292  27.954  1.00  0.00     0.185 C 
HETATM    9  C5  UNL     1      19.631  21.203  27.614  1.00  0.00     0.160 C 
HETATM   10  C4  UNL     1      19.817  20.151  28.649  1.00  0.00     0.076 C 
HETATM   11  C20 UNL     1      20.805  20.718  29.651  1.00  0.00     0.162 C 
HETATM   12  C19 UNL     1      20.710  22.222  29.466  1.00  0.00     0.179 C 
BRANCH   9  13
HETATM   13  O1  UNL     1      18.333  21.718  27.539  1.00  0.00    -0.392 OA
ATOM     14  H1  UNL     1      18.122  22.133  26.711  1.00  0.00     0.210 HD
ENDBRANCH   9  13
BRANCH  10  15
HETATM   15  C2  UNL     1      18.603  19.614  29.282  1.00  0.00    -0.084 C 
HETATM   16  C1  UNL     1      18.261  18.364  29.085  1.00  0.00     0.014 C 
HETATM   17  C3  UNL     1      17.714  20.420  30.188  1.00  0.00     0.043 C 
ENDBRANCH  10  15
BRANCH  11  18
HETATM   18  O9  UNL     1      20.651  20.279  30.929  1.00  0.00    -0.387 OA
HETATM   19  C21 UNL     1      21.642  20.844  31.770  1.00  0.00     0.202 C 
ENDBRANCH  11  18
BRANCH  12  20
HETATM   20  O8  UNL     1      19.648  22.819  30.077  1.00  0.00    -0.390 OA
ATOM     21  H8  UNL     1      19.910  23.312  30.847  1.00  0.00     0.210 HD
ENDBRANCH  12  20
ENDBRANCH   7   8
ENDBRANCH   1   7
BRANCH   6  22
HETATM   22  O7  UNL     1      22.962  23.505  25.562  1.00  0.00    -0.388 OA
ATOM     23  H7  UNL     1      23.740  22.994  25.747  1.00  0.00     0.210 HD
ENDBRANCH   6  22
BRANCH   5  24
HETATM   24  N2  UNL     1      22.093  25.759  28.281  1.00  0.00    -0.070 N 
ATOM     25  H23 UNL     1      21.494  26.493  27.904  1.00  0.00     0.274 HD
ATOM     26  H22 UNL     1      21.363  25.138  28.631  1.00  0.00     0.274 HD
ATOM     27  H21 UNL     1      22.696  26.102  29.028  1.00  0.00     0.274 HD
ENDBRANCH   5  24
BRANCH   4  28
HETATM   28  O4  UNL     1      23.293  27.308  26.273  1.00  0.00    -0.374 OA
BRANCH  28  29
HETATM   29  C10 UNL     1      22.488  28.259  25.659  1.00  0.00     0.153 C 
HETATM   30  C11 UNL     1      23.129  28.973  24.518  1.00  0.00     0.049 C 
HETATM   31  C12 UNL     1      22.081  29.886  23.900  1.00  0.00     0.089 C 
HETATM   32  C14 UNL     1      21.817  30.978  24.941  1.00  0.00     0.017 C 
HETATM   33  C15 UNL     1      21.243  30.380  26.182  1.00  0.00     0.036 C 
HETATM   34  C16 UNL     1      21.982  29.211  26.733  1.00  0.00     0.212 C 
BRANCH  31  35
HETATM   35  C13 UNL     1      22.512  30.463  22.637  1.00  0.00     0.177 C 
HETATM   36  O5  UNL     1      23.011  29.770  21.735  1.00  0.00    -0.648 OA
HETATM   37  O6  UNL     1      22.371  31.820  22.417  1.00  0.00    -0.648 OA
ENDBRANCH  31  35
BRANCH  34  38
HETATM   38  N1  UNL     1      21.014  28.435  27.518  1.00  0.00    -0.073 N 
ATOM     39  H13 UNL     1      20.624  27.637  27.017  1.00  0.00     0.274 HD
ATOM     40  H12 UNL     1      21.435  27.904  28.280  1.00  0.00     0.274 HD
ATOM     41  H11 UNL     1      20.312  29.108  27.827  1.00  0.00     0.274 HD
ENDBRANCH  34  38
ENDBRANCH  28  29
ENDBRANCH   4  28
TORSDOF 12
ENDMDL
MODEL 5
REMARK VINA RESULT: -7.408022348      1.938      2.547
REMARK  12 active torsions:
REMARK  status: ('A' for Active; 'I' for Inactive)
REMARK    1  A    between atoms: C2_2  and  C4_4 
REMARK    2  A    between atoms: C5_5  and  O1_6 
REMARK    3  A    between atoms: C6_8  and  O2_9 
REMARK    4  A    between atoms: O2_9  and  C7_10 
REMARK    5  A    between atoms: C9_13  and  O4_14 
REMARK    6  A    between atoms: O4_14  and  C10_15 
REMARK    7  A    between atoms: C12_17  and  C13_18 
REMARK    8  A    between atoms: C16_23  and  N1_24 
REMARK    9  A    between atoms: C17_28  and  N2_29 
REMARK   10  A    between atoms: C18_33  and  O7_34 
REMARK   11  A    between atoms: C19_36  and  O8_37 
REMARK   12  A    between atoms: C20_39  and  O9_40 
ROOT
HETATM    1  C7  UNL     1      20.292  24.538  28.889  1.00  0.00     0.291 C 
HETATM    2  O3  UNL     1      21.469  25.291  28.652  1.00  0.00    -0.356 OA
HETATM    3  C8  UNL     1      21.290  25.903  27.389  1.00  0.00     0.205 C 
HETATM    4  C9  UNL     1      21.490  24.908  26.268  1.00  0.00     0.179 C 
HETATM    5  C17 UNL     1      21.327  23.523  26.906  1.00  0.00     0.247 C 
HETATM    6  C18 UNL     1      20.020  23.637  27.706  1.00  0.00     0.206 C 
ENDROOT
BRANCH   1   7
HETATM    7  O2  UNL     1      20.391  23.728  29.997  1.00  0.00    -0.348 OA
BRANCH   7   8
HETATM    8  C6  UNL     1      19.613  22.593  29.938  1.00  0.00     0.185 C 
HETATM    9  C5  UNL     1      18.361  22.811  30.744  1.00  0.00     0.160 C 
HETATM   10  C4  UNL     1      17.953  21.468  31.235  1.00  0.00     0.076 C 
HETATM   11  C20 UNL     1      19.060  20.516  30.820  1.00  0.00     0.162 C 
HETATM   12  C19 UNL     1      20.271  21.408  30.620  1.00  0.00     0.179 C 
BRANCH   9  13
HETATM   13  O1  UNL     1      18.585  23.753  31.753  1.00  0.00    -0.392 OA
ATOM     14  H1  UNL     1      18.911  24.590  31.445  1.00  0.00     0.210 HD
ENDBRANCH   9  13
BRANCH  10  15
HETATM   15  C2  UNL     1      17.603  21.354  32.658  1.00  0.00    -0.084 C 
HETATM   16  C1  UNL     1      16.380  21.038  33.008  1.00  0.00     0.014 C 
HETATM   17  C3  UNL     1      18.591  21.556  33.774  1.00  0.00     0.043 C 
ENDBRANCH  10  15
BRANCH  11  18
HETATM   18  O9  UNL     1      19.251  19.453  31.647  1.00  0.00    -0.387 OA
HETATM   19  C21 UNL     1      18.465  18.351  31.228  1.00  0.00     0.202 C 
ENDBRANCH  11  18
BRANCH  12  20
HETATM   20  O8  UNL     1      20.923  21.772  31.762  1.00  0.00    -0.390 OA
ATOM     21  H8  UNL     1      21.029  21.041  32.360  1.00  0.00     0.210 HD
ENDBRANCH  12  20
ENDBRANCH   7   8
ENDBRANCH   1   7
BRANCH   6  22
HETATM   22  O7  UNL     1      19.092  24.246  26.836  1.00  0.00    -0.388 OA
ATOM     23  H7  UNL     1      19.105  25.188  26.952  1.00  0.00     0.210 HD
ENDBRANCH   6  22
BRANCH   5  24
HETATM   24  N2  UNL     1      22.464  23.236  27.747  1.00  0.00    -0.070 N 
ATOM     25  H23 UNL     1      23.348  23.430  27.277  1.00  0.00     0.274 HD
ATOM     26  H22 UNL     1      22.554  23.905  28.513  1.00  0.00     0.274 HD
ATOM     27  H21 UNL     1      22.411  22.275  28.083  1.00  0.00     0.274 HD
ENDBRANCH   5  24
BRANCH   4  28
HETATM   28  O4  UNL     1      22.690  25.057  25.626  1.00  0.00    -0.374 OA
BRANCH  28  29
HETATM   29  C10 UNL     1      22.566  25.277  24.260  1.00  0.00     0.153 C 
HETATM   30  C11 UNL     1      22.379  24.042  23.446  1.00  0.00     0.049 C 
HETATM   31  C12 UNL     1      22.150  24.471  22.005  1.00  0.00     0.089 C 
HETATM   32  C14 UNL     1      23.485  25.051  21.528  1.00  0.00     0.017 C 
HETATM   33  C15 UNL     1      23.835  26.263  22.326  1.00  0.00     0.036 C 
HETATM   34  C16 UNL     1      23.760  26.101  23.804  1.00  0.00     0.212 C 
BRANCH  31  35
HETATM   35  C13 UNL     1      21.725  23.373  21.152  1.00  0.00     0.177 C 
HETATM   36  O5  UNL     1      22.542  22.638  20.573  1.00  0.00    -0.648 OA
HETATM   37  O6  UNL     1      20.377  23.125  20.969  1.00  0.00    -0.648 OA
ENDBRANCH  31  35
BRANCH  34  38
HETATM   38  N1  UNL     1      23.546  27.442  24.362  1.00  0.00    -0.073 N 
ATOM     39  H13 UNL     1      22.795  27.485  25.051  1.00  0.00     0.274 HD
ATOM     40  H12 UNL     1      24.294  27.754  24.981  1.00  0.00     0.274 HD
ATOM     41  H11 UNL     1      23.399  28.051  23.557  1.00  0.00     0.274 HD
ENDBRANCH  34  38
ENDBRANCH  28  29
ENDBRANCH   4  28
TORSDOF 12
ENDMDL
