MODEL 1
REMARK VINA RESULT: -8.233135690      0.000      0.000
REMARK  11 active torsions:
REMARK  status: ('A' for Active; 'I' for Inactive)
REMARK    1  A    between atoms: C2_2  and  C3_3 
REMARK    2  A    between atoms: C4_4  and  C5_5 
REMARK    3  A    between atoms: C8_10  and  C9_11 
REMARK    4  A    between atoms: C10_13  and  C11_14 
REMARK    5  A    between atoms: C11_14  and  C12_15 
REMARK    6  A    between atoms: C16_20  and  N1_21 
REMARK    7  A    between atoms: C18_25  and  O5_26 
REMARK    8  A    between atoms: C19_31  and  N3_32 
REMARK    9  A    between atoms: N3_32  and  C20_34 
REMARK   10  A    between atoms: C21_36  and  O7_37 
REMARK   11  A    between atoms: C22_39  and  O8_40 
ROOT
HETATM    1  C5  UNL     1      23.604  26.678  23.048  1.00  0.00     0.179 C 
HETATM    2  O1  UNL     1      23.729  26.139  24.294  1.00  0.00    -0.339 OA
HETATM    3  C6  UNL     1      23.271  26.872  25.349  1.00  0.00     0.274 C 
HETATM    4  C7  UNL     1      24.029  26.370  26.585  1.00  0.00     0.241 C 
HETATM    5  O2  UNL     1      23.154  25.592  27.315  1.00  0.00    -0.352 OA
HETATM    6  C8  UNL     1      22.200  25.231  26.404  1.00  0.00     0.356 C 
HETATM    7  N2  UNL     1      21.906  26.482  25.742  1.00  0.00    -0.010 N 
ATOM      8  H21 UNL     1      21.217  26.441  24.991  1.00  0.00     0.284 HD
ATOM      9  H22 UNL     1      21.384  27.166  26.289  1.00  0.00     0.284 HD
HETATM   10  C19 UNL     1      23.444  28.342  25.291  1.00  0.00     0.180 C 
HETATM   11  C21 UNL     1      23.423  28.929  23.900  1.00  0.00     0.177 C 
HETATM   12  C22 UNL     1      24.292  28.049  23.021  1.00  0.00     0.181 C 
ENDROOT
BRANCH  10  13
HETATM   13  N3  UNL     1      22.355  28.955  26.013  1.00  0.00    -0.356 N 
ATOM     14  H3  UNL     1      21.595  29.411  25.506  1.00  0.00     0.162 HD
BRANCH  13  15
HETATM   15  C20 UNL     1      22.349  28.921  27.428  1.00  0.00     0.349 C 
HETATM   16  O6  UNL     1      21.403  28.375  28.040  1.00  0.00    -0.284 OA
ENDBRANCH  13  15
ENDBRANCH  10  13
BRANCH   1  17
HETATM   17  C4  UNL     1      24.334  25.830  22.081  1.00  0.00     0.007 C 
HETATM   18  C3  UNL     1      23.699  25.170  21.140  1.00  0.00    -0.002 C 
BRANCH  18  19
HETATM   19  C2  UNL     1      24.357  24.326  20.169  1.00  0.00    -0.010 C 
HETATM   20  C1  UNL     1      23.659  23.672  19.269  1.00  0.00     0.011 C 
ENDBRANCH  18  19
ENDBRANCH   1  17
BRANCH   6  21
HETATM   21  C9  UNL     1      20.985  24.590  26.989  1.00  0.00     0.209 C 
HETATM   22  O3  UNL     1      21.182  23.996  28.211  1.00  0.00    -0.371 OA
HETATM   23  C10 UNL     1      20.086  23.202  28.436  1.00  0.00     0.159 C 
HETATM   24  C16 UNL     1      19.525  22.793  27.096  1.00  0.00     0.245 C 
HETATM   25  C18 UNL     1      20.536  23.410  26.151  1.00  0.00     0.184 C 
BRANCH  23  26
HETATM   26  C11 UNL     1      20.414  21.937  29.194  1.00  0.00     0.074 C 
BRANCH  26  27
HETATM   27  C12 UNL     1      20.091  22.039  30.639  1.00  0.00    -0.032 A 
HETATM   28  C13 UNL     1      19.094  22.788  31.228  1.00  0.00     0.033 A 
HETATM   29  C14 UNL     1      19.185  22.560  32.586  1.00  0.00     0.142 A 
HETATM   30  O4  UNL     1      20.179  21.723  32.802  1.00  0.00    -0.334 OA
HETATM   31  C15 UNL     1      20.751  21.385  31.657  1.00  0.00     0.148 A 
ENDBRANCH  26  27
ENDBRANCH  23  26
BRANCH  24  32
HETATM   32  N1  UNL     1      18.233  23.443  26.836  1.00  0.00    -0.070 N 
HETATM   33  C17 UNL     1      17.201  22.759  27.590  1.00  0.00     0.267 C 
ATOM     34  H12 UNL     1      18.257  24.444  27.029  1.00  0.00     0.277 HD
ATOM     35  H11 UNL     1      18.018  23.495  25.840  1.00  0.00     0.277 HD
ENDBRANCH  24  32
BRANCH  25  36
HETATM   36  O5  UNL     1      21.647  22.586  25.985  1.00  0.00    -0.391 OA
ATOM     37  H5  UNL     1      21.406  21.728  26.314  1.00  0.00     0.210 HD
ENDBRANCH  25  36
ENDBRANCH   6  21
BRANCH  11  38
HETATM   38  O7  UNL     1      22.122  28.878  23.393  1.00  0.00    -0.391 OA
ATOM     39  H7  UNL     1      21.874  29.738  23.075  1.00  0.00     0.210 HD
ENDBRANCH  11  38
BRANCH  12  40
HETATM   40  O8  UNL     1      25.527  27.920  23.663  1.00  0.00    -0.390 OA
ATOM     41  H8  UNL     1      26.032  28.704  23.481  1.00  0.00     0.210 HD
ENDBRANCH  12  40
TORSDOF 11
ENDMDL
MODEL 2
REMARK VINA RESULT: -8.114273339      2.420      8.461
REMARK  11 active torsions:
REMARK  status: ('A' for Active; 'I' for Inactive)
REMARK    1  A    between atoms: C2_2  and  C3_3 
REMARK    2  A    between atoms: C4_4  and  C5_5 
REMARK    3  A    between atoms: C8_10  and  C9_11 
REMARK    4  A    between atoms: C10_13  and  C11_14 
REMARK    5  A    between atoms: C11_14  and  C12_15 
REMARK    6  A    between atoms: C16_20  and  N1_21 
REMARK    7  A    between atoms: C18_25  and  O5_26 
REMARK    8  A    between atoms: C19_31  and  N3_32 
REMARK    9  A    between atoms: N3_32  and  C20_34 
REMARK   10  A    between atoms: C21_36  and  O7_37 
REMARK   11  A    between atoms: C22_39  and  O8_40 
ROOT
HETATM    1  C5  UNL     1      18.981  25.558  28.371  1.00  0.00     0.179 C 
HETATM    2  O1  UNL     1      20.300  25.708  28.061  1.00  0.00    -0.339 OA
HETATM    3  C6  UNL     1      20.886  24.737  27.303  1.00  0.00     0.274 C 
HETATM    4  C7  UNL     1      22.390  24.812  27.594  1.00  0.00     0.241 C 
HETATM    5  O2  UNL     1      22.991  25.407  26.504  1.00  0.00    -0.352 OA
HETATM    6  C8  UNL     1      21.967  26.078  25.893  1.00  0.00     0.356 C 
HETATM    7  N2  UNL     1      20.910  25.091  25.874  1.00  0.00    -0.010 N 
ATOM      8  H21 UNL     1      20.023  25.391  25.470  1.00  0.00     0.284 HD
ATOM      9  H22 UNL     1      21.033  24.317  25.221  1.00  0.00     0.284 HD
HETATM   10  C19 UNL     1      20.460  23.337  27.531  1.00  0.00     0.180 C 
HETATM   11  C21 UNL     1      19.031  23.174  27.990  1.00  0.00     0.177 C 
HETATM   12  C22 UNL     1      18.779  24.208  29.072  1.00  0.00     0.181 C 
ENDROOT
BRANCH  10  13
HETATM   13  N3  UNL     1      20.577  22.619  26.285  1.00  0.00    -0.356 N 
ATOM     14  H3  UNL     1      19.832  22.672  25.590  1.00  0.00     0.162 HD
BRANCH  13  15
HETATM   15  C20 UNL     1      21.732  21.839  26.035  1.00  0.00     0.349 C 
HETATM   16  O6  UNL     1      22.573  22.216  25.188  1.00  0.00    -0.284 OA
ENDBRANCH  13  15
ENDBRANCH  10  13
BRANCH   1  17
HETATM   17  C4  UNL     1      18.595  26.595  29.353  1.00  0.00     0.007 C 
HETATM   18  C3  UNL     1      18.708  27.872  29.072  1.00  0.00    -0.002 C 
BRANCH  18  19
HETATM   19  C2  UNL     1      18.349  28.929  29.989  1.00  0.00    -0.010 C 
HETATM   20  C1  UNL     1      18.056  28.658  31.241  1.00  0.00     0.011 C 
ENDBRANCH  18  19
ENDBRANCH   1  17
BRANCH   6  21
HETATM   21  C9  UNL     1      22.286  26.607  24.534  1.00  0.00     0.209 C 
HETATM   22  O3  UNL     1      22.594  25.646  23.603  1.00  0.00    -0.371 OA
HETATM   23  C10 UNL     1      23.160  26.305  22.541  1.00  0.00     0.159 C 
HETATM   24  C16 UNL     1      23.798  27.569  23.064  1.00  0.00     0.245 C 
HETATM   25  C18 UNL     1      23.560  27.425  24.554  1.00  0.00     0.184 C 
BRANCH  23  26
HETATM   26  C11 UNL     1      24.243  25.505  21.854  1.00  0.00     0.074 C 
BRANCH  26  27
HETATM   27  C12 UNL     1      23.708  24.623  20.786  1.00  0.00    -0.032 A 
HETATM   28  C13 UNL     1      24.357  24.192  19.648  1.00  0.00     0.033 A 
HETATM   29  C14 UNL     1      23.459  23.397  18.965  1.00  0.00     0.142 A 
HETATM   30  O4  UNL     1      22.336  23.353  19.651  1.00  0.00    -0.334 OA
HETATM   31  C15 UNL     1      22.443  24.078  20.754  1.00  0.00     0.148 A 
ENDBRANCH  26  27
ENDBRANCH  23  26
BRANCH  24  32
HETATM   32  N1  UNL     1      23.063  28.761  22.620  1.00  0.00    -0.070 N 
HETATM   33  C17 UNL     1      23.122  29.767  23.662  1.00  0.00     0.267 C 
ATOM     34  H12 UNL     1      23.398  29.112  21.722  1.00  0.00     0.277 HD
ATOM     35  H11 UNL     1      22.106  28.546  22.340  1.00  0.00     0.277 HD
ENDBRANCH  24  32
BRANCH  25  36
HETATM   36  O5  UNL     1      24.539  26.635  25.152  1.00  0.00    -0.391 OA
ATOM     37  H5  UNL     1      24.706  25.908  24.563  1.00  0.00     0.210 HD
ENDBRANCH  25  36
ENDBRANCH   6  21
BRANCH  11  38
HETATM   38  O7  UNL     1      18.167  23.457  26.928  1.00  0.00    -0.391 OA
ATOM     39  H7  UNL     1      18.002  22.661  26.436  1.00  0.00     0.210 HD
ENDBRANCH  11  38
BRANCH  12  40
HETATM   40  O8  UNL     1      19.795  24.063  30.021  1.00  0.00    -0.390 OA
ATOM     41  H8  UNL     1      20.550  23.687  29.583  1.00  0.00     0.210 HD
ENDBRANCH  12  40
TORSDOF 11
ENDMDL
MODEL 3
REMARK VINA RESULT: -8.012714581      2.272      3.780
REMARK  11 active torsions:
REMARK  status: ('A' for Active; 'I' for Inactive)
REMARK    1  A    between atoms: C2_2  and  C3_3 
REMARK    2  A    between atoms: C4_4  and  C5_5 
REMARK    3  A    between atoms: C8_10  and  C9_11 
REMARK    4  A    between atoms: C10_13  and  C11_14 
REMARK    5  A    between atoms: C11_14  and  C12_15 
REMARK    6  A    between atoms: C16_20  and  N1_21 
REMARK    7  A    between atoms: C18_25  and  O5_26 
REMARK    8  A    between atoms: C19_31  and  N3_32 
REMARK    9  A    between atoms: N3_32  and  C20_34 
REMARK   10  A    between atoms: C21_36  and  O7_37 
REMARK   11  A    between atoms: C22_39  and  O8_40 
ROOT
HETATM    1  C5  UNL     1      21.738  24.196  23.765  1.00  0.00     0.179 C 
HETATM    2  O1  UNL     1      22.313  23.685  24.891  1.00  0.00    -0.339 OA
HETATM    3  C6  UNL     1      22.176  24.395  26.049  1.00  0.00     0.274 C 
HETATM    4  C7  UNL     1      23.340  23.970  26.955  1.00  0.00     0.241 C 
HETATM    5  O2  UNL     1      22.823  23.135  27.924  1.00  0.00    -0.352 OA
HETATM    6  C8  UNL     1      21.651  22.688  27.377  1.00  0.00     0.356 C 
HETATM    7  N2  UNL     1      21.056  23.903  26.869  1.00  0.00    -0.010 N 
ATOM      8  H21 UNL     1      20.161  23.798  26.389  1.00  0.00     0.284 HD
ATOM      9  H22 UNL     1      20.693  24.551  27.567  1.00  0.00     0.284 HD
HETATM   10  C19 UNL     1      22.203  25.872  25.956  1.00  0.00     0.180 C 
HETATM   11  C21 UNL     1      21.674  26.438  24.660  1.00  0.00     0.177 C 
HETATM   12  C22 UNL     1      22.267  25.617  23.530  1.00  0.00     0.181 C 
ENDROOT
BRANCH  10  13
HETATM   13  N3  UNL     1      21.372  26.408  27.008  1.00  0.00    -0.356 N 
ATOM     14  H3  UNL     1      20.534  25.907  27.305  1.00  0.00     0.162 HD
BRANCH  13  15
HETATM   15  C20 UNL     1      21.729  27.632  27.624  1.00  0.00     0.349 C 
HETATM   16  O6  UNL     1      22.901  27.815  28.024  1.00  0.00    -0.284 OA
ENDBRANCH  13  15
ENDBRANCH  10  13
BRANCH   1  17
HETATM   17  C4  UNL     1      22.169  23.395  22.599  1.00  0.00     0.007 C 
HETATM   18  C3  UNL     1      21.808  23.722  21.380  1.00  0.00    -0.002 C 
BRANCH  18  19
HETATM   19  C2  UNL     1      22.197  22.980  20.203  1.00  0.00    -0.010 C 
HETATM   20  C1  UNL     1      22.910  23.549  19.258  1.00  0.00     0.011 C 
ENDBRANCH  18  19
ENDBRANCH   1  17
BRANCH   6  21
HETATM   21  C9  UNL     1      20.755  21.961  28.325  1.00  0.00     0.209 C 
HETATM   22  O3  UNL     1      19.415  22.078  28.050  1.00  0.00    -0.371 OA
HETATM   23  C10 UNL     1      18.752  21.639  29.169  1.00  0.00     0.159 C 
HETATM   24  C16 UNL     1      19.651  21.862  30.361  1.00  0.00     0.245 C 
HETATM   25  C18 UNL     1      20.831  22.560  29.714  1.00  0.00     0.184 C 
BRANCH  23  26
HETATM   26  C11 UNL     1      17.465  22.388  29.429  1.00  0.00     0.074 C 
BRANCH  26  27
HETATM   27  C12 UNL     1      16.606  22.478  28.222  1.00  0.00    -0.032 A 
HETATM   28  C13 UNL     1      16.266  23.611  27.514  1.00  0.00     0.033 A 
HETATM   29  C14 UNL     1      15.453  23.196  26.478  1.00  0.00     0.142 A 
HETATM   30  O4  UNL     1      15.313  21.889  26.558  1.00  0.00    -0.334 OA
HETATM   31  C15 UNL     1      15.990  21.417  27.594  1.00  0.00     0.148 A 
ENDBRANCH  26  27
ENDBRANCH  23  26
BRANCH  24  32
HETATM   32  N1  UNL     1      20.143  20.589  30.905  1.00  0.00    -0.070 N 
HETATM   33  C17 UNL     1      21.300  20.848  31.739  1.00  0.00     0.267 C 
ATOM     34  H12 UNL     1      19.416  20.071  31.399  1.00  0.00     0.277 HD
ATOM     35  H11 UNL     1      20.335  19.904  30.175  1.00  0.00     0.277 HD
ENDBRANCH  24  32
BRANCH  25  36
HETATM   36  O5  UNL     1      20.603  23.927  29.578  1.00  0.00    -0.391 OA
ATOM     37  H5  UNL     1      21.048  24.355  30.300  1.00  0.00     0.210 HD
ENDBRANCH  25  36
ENDBRANCH   6  21
BRANCH  11  38
HETATM   38  O7  UNL     1      20.287  26.277  24.615  1.00  0.00    -0.391 OA
ATOM     39  H7  UNL     1      19.886  27.085  24.316  1.00  0.00     0.210 HD
ENDBRANCH  11  38
BRANCH  12  40
HETATM   40  O8  UNL     1      23.651  25.594  23.722  1.00  0.00    -0.390 OA
ATOM     41  H8  UNL     1      23.816  25.299  24.610  1.00  0.00     0.210 HD
ENDBRANCH  12  40
TORSDOF 11
ENDMDL
MODEL 4
REMARK VINA RESULT: -7.994370777      2.819      4.572
REMARK  11 active torsions:
REMARK  status: ('A' for Active; 'I' for Inactive)
REMARK    1  A    between atoms: C2_2  and  C3_3 
REMARK    2  A    between atoms: C4_4  and  C5_5 
REMARK    3  A    between atoms: C8_10  and  C9_11 
REMARK    4  A    between atoms: C10_13  and  C11_14 
REMARK    5  A    between atoms: C11_14  and  C12_15 
REMARK    6  A    between atoms: C16_20  and  N1_21 
REMARK    7  A    between atoms: C18_25  and  O5_26 
REMARK    8  A    between atoms: C19_31  and  N3_32 
REMARK    9  A    between atoms: N3_32  and  C20_34 
REMARK   10  A    between atoms: C21_36  and  O7_37 
REMARK   11  A    between atoms: C22_39  and  O8_40 
ROOT
HETATM    1  C5  UNL     1      20.694  28.464  26.306  1.00  0.00     0.179 C 
HETATM    2  O1  UNL     1      20.935  27.605  25.275  1.00  0.00    -0.339 OA
HETATM    3  C6  UNL     1      22.126  26.939  25.272  1.00  0.00     0.274 C 
HETATM    4  C7  UNL     1      22.397  26.547  23.814  1.00  0.00     0.241 C 
HETATM    5  O2  UNL     1      22.145  25.195  23.698  1.00  0.00    -0.352 OA
HETATM    6  C8  UNL     1      21.333  24.922  24.764  1.00  0.00     0.356 C 
HETATM    7  N2  UNL     1      22.007  25.591  25.854  1.00  0.00    -0.010 N 
ATOM      8  H21 UNL     1      21.553  25.535  26.766  1.00  0.00     0.284 HD
ATOM      9  H22 UNL     1      22.876  25.163  26.174  1.00  0.00     0.284 HD
HETATM   10  C19 UNL     1      23.320  27.664  25.764  1.00  0.00     0.180 C 
HETATM   11  C21 UNL     1      23.040  28.702  26.824  1.00  0.00     0.177 C 
HETATM   12  C22 UNL     1      21.827  29.496  26.376  1.00  0.00     0.181 C 
ENDROOT
BRANCH  10  13
HETATM   13  N3  UNL     1      24.222  26.705  26.355  1.00  0.00    -0.356 N 
ATOM     14  H3  UNL     1      23.854  25.899  26.860  1.00  0.00     0.162 HD
BRANCH  13  15
HETATM   15  C20 UNL     1      25.619  26.892  26.227  1.00  0.00     0.349 C 
HETATM   16  O6  UNL     1      26.069  27.751  25.436  1.00  0.00    -0.284 OA
ENDBRANCH  13  15
ENDBRANCH  10  13
BRANCH   1  17
HETATM   17  C4  UNL     1      19.458  29.225  26.020  1.00  0.00     0.007 C 
HETATM   18  C3  UNL     1      18.366  28.620  25.617  1.00  0.00    -0.002 C 
BRANCH  18  19
HETATM   19  C2  UNL     1      17.130  29.309  25.322  1.00  0.00    -0.010 C 
HETATM   20  C1  UNL     1      16.263  28.796  24.478  1.00  0.00     0.011 C 
ENDBRANCH  18  19
ENDBRANCH   1  17
BRANCH   6  21
HETATM   21  C9  UNL     1      21.113  23.470  25.029  1.00  0.00     0.209 C 
HETATM   22  O3  UNL     1      20.623  23.183  26.280  1.00  0.00    -0.371 OA
HETATM   23  C10 UNL     1      20.788  21.832  26.459  1.00  0.00     0.159 C 
HETATM   24  C16 UNL     1      21.957  21.390  25.610  1.00  0.00     0.245 C 
HETATM   25  C18 UNL     1      22.426  22.714  25.041  1.00  0.00     0.184 C 
BRANCH  23  26
HETATM   26  C11 UNL     1      21.102  21.457  27.888  1.00  0.00     0.074 C 
BRANCH  26  27
HETATM   27  C12 UNL     1      20.136  20.476  28.444  1.00  0.00    -0.032 A 
HETATM   28  C13 UNL     1      19.403  19.533  27.755  1.00  0.00     0.033 A 
HETATM   29  C14 UNL     1      18.650  18.860  28.695  1.00  0.00     0.142 A 
HETATM   30  O4  UNL     1      18.915  19.367  29.881  1.00  0.00    -0.334 OA
HETATM   31  C15 UNL     1      19.803  20.343  29.775  1.00  0.00     0.148 A 
ENDBRANCH  26  27
ENDBRANCH  23  26
BRANCH  24  32
HETATM   32  N1  UNL     1      21.513  20.563  24.480  1.00  0.00    -0.070 N 
HETATM   33  C17 UNL     1      21.467  19.176  24.901  1.00  0.00     0.267 C 
ATOM     34  H12 UNL     1      20.625  20.880  24.091  1.00  0.00     0.277 HD
ATOM     35  H11 UNL     1      22.089  20.698  23.650  1.00  0.00     0.277 HD
ENDBRANCH  24  32
BRANCH  25  36
HETATM   36  O5  UNL     1      23.269  23.380  25.927  1.00  0.00    -0.391 OA
ATOM     37  H5  UNL     1      23.798  22.718  26.355  1.00  0.00     0.210 HD
ENDBRANCH  25  36
ENDBRANCH   6  21
BRANCH  11  38
HETATM   38  O7  UNL     1      22.707  28.065  28.022  1.00  0.00    -0.391 OA
ATOM     39  H7  UNL     1      21.770  28.129  28.164  1.00  0.00     0.210 HD
ENDBRANCH  11  38
BRANCH  12  40
HETATM   40  O8  UNL     1      22.084  29.937  25.075  1.00  0.00    -0.390 OA
ATOM     41  H8  UNL     1      21.349  29.681  24.531  1.00  0.00     0.210 HD
ENDBRANCH  12  40
TORSDOF 11
ENDMDL
MODEL 5
REMARK VINA RESULT: -7.908386610      3.212      7.920
REMARK  11 active torsions:
REMARK  status: ('A' for Active; 'I' for Inactive)
REMARK    1  A    between atoms: C2_2  and  C3_3 
REMARK    2  A    between atoms: C4_4  and  C5_5 
REMARK    3  A    between atoms: C8_10  and  C9_11 
REMARK    4  A    between atoms: C10_13  and  C11_14 
REMARK    5  A    between atoms: C11_14  and  C12_15 
REMARK    6  A    between atoms: C16_20  and  N1_21 
REMARK    7  A    between atoms: C18_25  and  O5_26 
REMARK    8  A    between atoms: C19_31  and  N3_32 
REMARK    9  A    between atoms: N3_32  and  C20_34 
REMARK   10  A    between atoms: C21_36  and  O7_37 
REMARK   11  A    between atoms: C22_39  and  O8_40 
ROOT
HETATM    1  C5  UNL     1      20.999  23.411  26.004  1.00  0.00     0.179 C 
HETATM    2  O1  UNL     1      21.423  24.618  26.476  1.00  0.00    -0.339 OA
HETATM    3  C6  UNL     1      21.911  25.515  25.571  1.00  0.00     0.274 C 
HETATM    4  C7  UNL     1      22.823  26.466  26.357  1.00  0.00     0.241 C 
HETATM    5  O2  UNL     1      22.143  27.657  26.508  1.00  0.00    -0.352 OA
HETATM    6  C8  UNL     1      20.833  27.309  26.328  1.00  0.00     0.356 C 
HETATM    7  N2  UNL     1      20.885  26.482  25.144  1.00  0.00    -0.010 N 
ATOM      8  H21 UNL     1      19.998  26.086  24.833  1.00  0.00     0.284 HD
ATOM      9  H22 UNL     1      21.064  26.968  24.265  1.00  0.00     0.284 HD
HETATM   10  C19 UNL     1      22.697  24.986  24.434  1.00  0.00     0.180 C 
HETATM   11  C21 UNL     1      22.307  23.599  23.983  1.00  0.00     0.177 C 
HETATM   12  C22 UNL     1      22.142  22.745  25.227  1.00  0.00     0.181 C 
ENDROOT
BRANCH  10  13
HETATM   13  N3  UNL     1      22.499  25.857  23.301  1.00  0.00    -0.356 N 
ATOM     14  H3  UNL     1      21.556  26.065  22.971  1.00  0.00     0.162 HD
BRANCH  13  15
HETATM   15  C20 UNL     1      23.623  26.422  22.651  1.00  0.00     0.349 C 
HETATM   16  O6  UNL     1      24.012  25.960  21.553  1.00  0.00    -0.284 OA
ENDBRANCH  13  15
ENDBRANCH  10  13
BRANCH   1  17
HETATM   17  C4  UNL     1      20.704  22.523  27.148  1.00  0.00     0.007 C 
HETATM   18  C3  UNL     1      20.417  21.254  26.968  1.00  0.00    -0.002 C 
BRANCH  18  19
HETATM   19  C2  UNL     1      20.120  20.339  28.045  1.00  0.00    -0.010 C 
HETATM   20  C1  UNL     1      20.091  19.042  27.833  1.00  0.00     0.011 C 
ENDBRANCH  18  19
ENDBRANCH   1  17
BRANCH   6  21
HETATM   21  C9  UNL     1      19.892  28.460  26.185  1.00  0.00     0.209 C 
HETATM   22  O3  UNL     1      20.435  29.574  25.594  1.00  0.00    -0.371 OA
HETATM   23  C10 UNL     1      19.561  30.604  25.835  1.00  0.00     0.159 C 
HETATM   24  C16 UNL     1      18.815  30.293  27.110  1.00  0.00     0.245 C 
HETATM   25  C18 UNL     1      19.490  29.006  27.540  1.00  0.00     0.184 C 
BRANCH  23  26
HETATM   26  C11 UNL     1      20.251  31.934  26.029  1.00  0.00     0.074 C 
BRANCH  26  27
HETATM   27  C12 UNL     1      20.501  32.638  24.746  1.00  0.00    -0.032 A 
HETATM   28  C13 UNL     1      21.392  32.287  23.754  1.00  0.00     0.033 A 
HETATM   29  C14 UNL     1      21.268  33.239  22.763  1.00  0.00     0.142 A 
HETATM   30  O4  UNL     1      20.356  34.112  23.136  1.00  0.00    -0.334 OA
HETATM   31  C15 UNL     1      19.870  33.788  24.324  1.00  0.00     0.148 A 
ENDBRANCH  26  27
ENDBRANCH  23  26
BRANCH  24  32
HETATM   32  N1  UNL     1      17.406  29.977  26.841  1.00  0.00    -0.070 N 
HETATM   33  C17 UNL     1      16.622  31.192  26.944  1.00  0.00     0.267 C 
ATOM     34  H12 UNL     1      17.278  29.507  25.945  1.00  0.00     0.277 HD
ATOM     35  H11 UNL     1      17.053  29.234  27.444  1.00  0.00     0.277 HD
ENDBRANCH  24  32
BRANCH  25  36
HETATM   36  O5  UNL     1      20.667  29.256  28.241  1.00  0.00    -0.391 OA
ATOM     37  H5  UNL     1      20.415  29.594  29.092  1.00  0.00     0.210 HD
ENDBRANCH  25  36
ENDBRANCH   6  21
BRANCH  11  38
HETATM   38  O7  UNL     1      21.068  23.650  23.340  1.00  0.00    -0.391 OA
ATOM     39  H7  UNL     1      20.589  22.848  23.514  1.00  0.00     0.210 HD
ENDBRANCH  11  38
BRANCH  12  40
HETATM   40  O8  UNL     1      23.311  22.888  25.980  1.00  0.00    -0.390 OA
ATOM     41  H8  UNL     1      23.839  23.563  25.570  1.00  0.00     0.210 HD
ENDBRANCH  12  40
TORSDOF 11
ENDMDL
