MODEL 1
REMARK VINA RESULT: -7.659934588      0.000      0.000
REMARK  13 active torsions:
REMARK  status: ('A' for Active; 'I' for Inactive)
REMARK    1  A    between atoms: C2_2  and  O1_3 
REMARK    2  A    between atoms: O1_3  and  N1_4 
REMARK    3  A    between atoms: N1_4  and  C3_5 
REMARK    4  A    between atoms: C3_5  and  N2_6 
REMARK    5  A    between atoms: C3_5  and  C5_10 
REMARK       I    between atoms: C5_10  and  N4_12 
REMARK    6  A    between atoms: N4_12  and  C6_14 
REMARK    7  A    between atoms: C10_18  and  N5_19 
REMARK       I    between atoms: N5_19  and  C11_21 
REMARK    8  A    between atoms: C11_21  and  C12_23 
REMARK    9  A    between atoms: C12_23  and  N6_26 
REMARK   10  A    between atoms: C15_30  and  O4_31 
REMARK   11  A    between atoms: O4_31  and  C16_32 
REMARK   12  A    between atoms: C18_35  and  O6_36 
REMARK   13  A    between atoms: C19_38  and  O7_39 
ROOT
HETATM    1  N2  UNL     1      23.661  27.189  22.998  1.00  0.00    -0.261 N 
ATOM      2  H2  UNL     1      22.994  27.905  22.709  1.00  0.00     0.181 HD
HETATM    3  C4  UNL     1      24.690  27.547  23.855  1.00  0.00     0.184 C 
HETATM    4  N3  UNL     1      25.549  27.820  24.581  1.00  0.00    -0.172 NA
ENDROOT
BRANCH   1   5
HETATM    5  C3  UNL     1      23.492  25.835  22.493  1.00  0.00     0.289 C 
BRANCH   5   6
HETATM    6  N1  UNL     1      24.089  25.472  21.537  1.00  0.00    -0.256 NA
BRANCH   6   7
HETATM    7  O1  UNL     1      24.664  25.128  20.472  1.00  0.00    -0.208 OA
BRANCH   7   8
HETATM    8  C2  UNL     1      24.296  23.913  19.784  1.00  0.00     0.213 C 
HETATM    9  C1  UNL     1      22.848  23.954  19.418  1.00  0.00     0.037 C 
ENDBRANCH   7   8
ENDBRANCH   6   7
ENDBRANCH   5   6
BRANCH   5  10
HETATM   10  C5  UNL     1      22.582  25.022  23.292  1.00  0.00     0.303 C 
HETATM   11  O2  UNL     1      21.488  24.723  22.763  1.00  0.00    -0.263 OA
HETATM   12  N4  UNL     1      22.901  24.606  24.554  1.00  0.00    -0.346 N 
ATOM     13  H4  UNL     1      23.809  24.902  24.911  1.00  0.00     0.163 HD
BRANCH  12  14
HETATM   14  C6  UNL     1      22.088  23.785  25.451  1.00  0.00     0.116 C 
HETATM   15  C7  UNL     1      22.438  22.347  25.034  1.00  0.00     0.028 C 
HETATM   16  C8  UNL     1      21.237  21.437  25.177  1.00  0.00     0.004 C 
HETATM   17  C9  UNL     1      21.342  20.763  26.492  1.00  0.00     0.028 C 
HETATM   18  C10 UNL     1      20.717  21.360  27.670  1.00  0.00     0.116 C 
HETATM   19  C15 UNL     1      20.394  22.788  27.740  1.00  0.00     0.185 C 
HETATM   20  C18 UNL     1      21.520  23.769  27.925  1.00  0.00     0.180 C 
HETATM   21  C19 UNL     1      22.428  24.092  26.849  1.00  0.00     0.172 C 
BRANCH  18  22
HETATM   22  N5  UNL     1      19.483  20.606  27.959  1.00  0.00    -0.352 N 
HETATM   23  C11 UNL     1      19.310  19.995  29.239  1.00  0.00     0.253 C 
HETATM   24  O3  UNL     1      20.191  20.108  30.101  1.00  0.00    -0.271 OA
ATOM     25  H5  UNL     1      18.756  20.522  27.249  1.00  0.00     0.163 HD
BRANCH  23  26
HETATM   26  C12 UNL     1      18.086  19.226  29.540  1.00  0.00     0.196 C 
HETATM   27  C13 UNL     1      16.909  20.169  29.838  1.00  0.00     0.056 C 
HETATM   28  C14 UNL     1      18.347  18.452  30.823  1.00  0.00     0.056 C 
BRANCH  26  29
HETATM   29  N6  UNL     1      17.667  18.331  28.521  1.00  0.00    -0.062 N 
ATOM     30  H63 UNL     1      17.411  18.850  27.682  1.00  0.00     0.275 HD
ATOM     31  H62 UNL     1      18.465  17.802  28.169  1.00  0.00     0.275 HD
ATOM     32  H61 UNL     1      16.914  17.695  28.783  1.00  0.00     0.275 HD
ENDBRANCH  26  29
ENDBRANCH  23  26
ENDBRANCH  18  22
BRANCH  19  33
HETATM   33  O4  UNL     1      19.401  23.267  26.856  1.00  0.00    -0.311 OA
BRANCH  33  34
HETATM   34  C16 UNL     1      18.122  23.596  27.204  1.00  0.00     0.255 C 
HETATM   35  C17 UNL     1      17.838  25.009  27.580  1.00  0.00     0.126 C 
HETATM   36  O5  UNL     1      17.234  22.708  27.208  1.00  0.00    -0.266 OA
ENDBRANCH  33  34
ENDBRANCH  19  33
BRANCH  20  37
HETATM   37  O6  UNL     1      22.205  23.380  29.079  1.00  0.00    -0.390 OA
ATOM     38  H6  UNL     1      22.660  24.150  29.398  1.00  0.00     0.210 HD
ENDBRANCH  20  37
BRANCH  21  39
HETATM   39  O7  UNL     1      23.740  23.606  27.080  1.00  0.00    -0.391 OA
ATOM     40  H7  UNL     1      23.729  23.148  27.912  1.00  0.00     0.210 HD
ENDBRANCH  21  39
ENDBRANCH  12  14
ENDBRANCH   5  10
ENDBRANCH   1   5
TORSDOF 13
ENDMDL
MODEL 2
REMARK VINA RESULT: -7.481872606      1.915      2.983
REMARK  13 active torsions:
REMARK  status: ('A' for Active; 'I' for Inactive)
REMARK    1  A    between atoms: C2_2  and  O1_3 
REMARK    2  A    between atoms: O1_3  and  N1_4 
REMARK    3  A    between atoms: N1_4  and  C3_5 
REMARK    4  A    between atoms: C3_5  and  N2_6 
REMARK    5  A    between atoms: C3_5  and  C5_10 
REMARK       I    between atoms: C5_10  and  N4_12 
REMARK    6  A    between atoms: N4_12  and  C6_14 
REMARK    7  A    between atoms: C10_18  and  N5_19 
REMARK       I    between atoms: N5_19  and  C11_21 
REMARK    8  A    between atoms: C11_21  and  C12_23 
REMARK    9  A    between atoms: C12_23  and  N6_26 
REMARK   10  A    between atoms: C15_30  and  O4_31 
REMARK   11  A    between atoms: O4_31  and  C16_32 
REMARK   12  A    between atoms: C18_35  and  O6_36 
REMARK   13  A    between atoms: C19_38  and  O7_39 
ROOT
HETATM    1  N2  UNL     1      23.783  27.179  22.649  1.00  0.00    -0.261 N 
ATOM      2  H2  UNL     1      23.112  27.845  22.265  1.00  0.00     0.181 HD
HETATM    3  C4  UNL     1      24.740  27.639  23.539  1.00  0.00     0.184 C 
HETATM    4  N3  UNL     1      25.538  27.998  24.296  1.00  0.00    -0.172 NA
ENDROOT
BRANCH   1   5
HETATM    5  C3  UNL     1      23.696  25.785  22.237  1.00  0.00     0.289 C 
BRANCH   5   6
HETATM    6  N1  UNL     1      24.170  25.432  21.211  1.00  0.00    -0.256 NA
BRANCH   6   7
HETATM    7  O1  UNL     1      24.650  24.976  20.140  1.00  0.00    -0.208 OA
BRANCH   7   8
HETATM    8  C2  UNL     1      24.171  23.735  19.578  1.00  0.00     0.213 C 
HETATM    9  C1  UNL     1      22.719  23.854  19.243  1.00  0.00     0.037 C 
ENDBRANCH   7   8
ENDBRANCH   6   7
ENDBRANCH   5   6
BRANCH   5  10
HETATM   10  C5  UNL     1      23.029  24.929  23.210  1.00  0.00     0.303 C 
HETATM   11  O2  UNL     1      22.490  23.891  22.765  1.00  0.00    -0.263 OA
HETATM   12  N4  UNL     1      22.990  25.237  24.540  1.00  0.00    -0.346 N 
ATOM     13  H4  UNL     1      23.447  26.107  24.815  1.00  0.00     0.163 HD
BRANCH  12  14
HETATM   14  C6  UNL     1      22.368  24.465  25.614  1.00  0.00     0.116 C 
HETATM   15  C7  UNL     1      22.892  25.141  26.891  1.00  0.00     0.028 C 
HETATM   16  C8  UNL     1      23.087  24.127  27.998  1.00  0.00     0.004 C 
HETATM   17  C9  UNL     1      21.871  24.150  28.844  1.00  0.00     0.028 C 
HETATM   18  C10 UNL     1      20.761  23.246  28.550  1.00  0.00     0.116 C 
HETATM   19  C15 UNL     1      20.571  22.652  27.223  1.00  0.00     0.185 C 
HETATM   20  C18 UNL     1      20.061  23.529  26.113  1.00  0.00     0.180 C 
HETATM   21  C19 UNL     1      20.904  24.516  25.479  1.00  0.00     0.172 C 
BRANCH  18  22
HETATM   22  N5  UNL     1      20.799  22.147  29.533  1.00  0.00    -0.352 N 
HETATM   23  C11 UNL     1      19.892  22.150  30.636  1.00  0.00     0.253 C 
HETATM   24  O3  UNL     1      19.072  23.070  30.757  1.00  0.00    -0.271 OA
ATOM     25  H5  UNL     1      21.471  21.387  29.425  1.00  0.00     0.163 HD
BRANCH  23  26
HETATM   26  C12 UNL     1      19.926  21.064  31.635  1.00  0.00     0.196 C 
HETATM   27  C13 UNL     1      19.143  19.838  31.135  1.00  0.00     0.056 C 
HETATM   28  C14 UNL     1      19.190  21.565  32.868  1.00  0.00     0.056 C 
BRANCH  26  29
HETATM   29  N6  UNL     1      21.223  20.620  32.003  1.00  0.00    -0.062 N 
ATOM     30  H63 UNL     1      21.679  20.173  31.209  1.00  0.00     0.275 HD
ATOM     31  H62 UNL     1      21.842  21.420  32.139  1.00  0.00     0.275 HD
ATOM     32  H61 UNL     1      21.258  20.008  32.818  1.00  0.00     0.275 HD
ENDBRANCH  26  29
ENDBRANCH  23  26
ENDBRANCH  18  22
BRANCH  19  33
HETATM   33  O4  UNL     1      21.553  21.737  26.782  1.00  0.00    -0.311 OA
BRANCH  33  34
HETATM   34  C16 UNL     1      21.334  20.680  25.947  1.00  0.00     0.255 C 
HETATM   35  C17 UNL     1      20.799  19.419  26.535  1.00  0.00     0.126 C 
HETATM   36  O5  UNL     1      21.595  20.793  24.724  1.00  0.00    -0.266 OA
ENDBRANCH  33  34
ENDBRANCH  19  33
BRANCH  20  37
HETATM   37  O6  UNL     1      18.860  24.085  26.560  1.00  0.00    -0.390 OA
ATOM     38  H6  UNL     1      18.762  24.918  26.113  1.00  0.00     0.210 HD
ENDBRANCH  20  37
BRANCH  21  39
HETATM   39  O7  UNL     1      20.500  25.845  25.773  1.00  0.00    -0.391 OA
ATOM     40  H7  UNL     1      21.181  26.234  26.310  1.00  0.00     0.210 HD
ENDBRANCH  21  39
ENDBRANCH  12  14
ENDBRANCH   5  10
ENDBRANCH   1   5
TORSDOF 13
ENDMDL
MODEL 3
REMARK VINA RESULT: -7.272099528      1.140      2.474
REMARK  13 active torsions:
REMARK  status: ('A' for Active; 'I' for Inactive)
REMARK    1  A    between atoms: C2_2  and  O1_3 
REMARK    2  A    between atoms: O1_3  and  N1_4 
REMARK    3  A    between atoms: N1_4  and  C3_5 
REMARK    4  A    between atoms: C3_5  and  N2_6 
REMARK    5  A    between atoms: C3_5  and  C5_10 
REMARK       I    between atoms: C5_10  and  N4_12 
REMARK    6  A    between atoms: N4_12  and  C6_14 
REMARK    7  A    between atoms: C10_18  and  N5_19 
REMARK       I    between atoms: N5_19  and  C11_21 
REMARK    8  A    between atoms: C11_21  and  C12_23 
REMARK    9  A    between atoms: C12_23  and  N6_26 
REMARK   10  A    between atoms: C15_30  and  O4_31 
REMARK   11  A    between atoms: O4_31  and  C16_32 
REMARK   12  A    between atoms: C18_35  and  O6_36 
REMARK   13  A    between atoms: C19_38  and  O7_39 
ROOT
HETATM    1  N2  UNL     1      22.940  24.581  20.809  1.00  0.00    -0.261 N 
ATOM      2  H2  UNL     1      21.995  24.522  20.431  1.00  0.00     0.181 HD
HETATM    3  C4  UNL     1      24.007  24.277  19.979  1.00  0.00     0.184 C 
HETATM    4  N3  UNL     1      24.914  24.041  19.300  1.00  0.00    -0.172 NA
ENDROOT
BRANCH   1   5
HETATM    5  C3  UNL     1      23.112  24.982  22.198  1.00  0.00     0.289 C 
BRANCH   5   6
HETATM    6  N1  UNL     1      23.870  25.845  22.484  1.00  0.00    -0.256 NA
BRANCH   6   7
HETATM    7  O1  UNL     1      24.608  26.806  22.824  1.00  0.00    -0.208 OA
BRANCH   7   8
HETATM    8  C2  UNL     1      24.157  27.793  23.778  1.00  0.00     0.213 C 
HETATM    9  C1  UNL     1      25.219  28.032  24.802  1.00  0.00     0.037 C 
ENDBRANCH   7   8
ENDBRANCH   6   7
ENDBRANCH   5   6
BRANCH   5  10
HETATM   10  C5  UNL     1      22.254  24.255  23.126  1.00  0.00     0.303 C 
HETATM   11  O2  UNL     1      21.127  23.918  22.700  1.00  0.00    -0.263 OA
HETATM   12  N4  UNL     1      22.653  23.956  24.399  1.00  0.00    -0.346 N 
ATOM     13  H4  UNL     1      23.583  24.276  24.668  1.00  0.00     0.163 HD
BRANCH  12  14
HETATM   14  C6  UNL     1      21.898  23.229  25.419  1.00  0.00     0.116 C 
HETATM   15  C7  UNL     1      22.246  21.758  25.141  1.00  0.00     0.028 C 
HETATM   16  C8  UNL     1      21.067  20.858  25.442  1.00  0.00     0.004 C 
HETATM   17  C9  UNL     1      21.247  20.330  26.814  1.00  0.00     0.028 C 
HETATM   18  C10 UNL     1      20.674  21.045  27.952  1.00  0.00     0.116 C 
HETATM   19  C15 UNL     1      20.335  22.470  27.886  1.00  0.00     0.185 C 
HETATM   20  C18 UNL     1      21.455  23.474  27.907  1.00  0.00     0.180 C 
HETATM   21  C19 UNL     1      22.303  23.688  26.757  1.00  0.00     0.172 C 
BRANCH  18  22
HETATM   22  N5  UNL     1      19.467  20.317  28.384  1.00  0.00    -0.352 N 
HETATM   23  C11 UNL     1      19.349  19.879  29.739  1.00  0.00     0.253 C 
HETATM   24  O3  UNL     1      20.256  20.122  30.546  1.00  0.00    -0.271 OA
ATOM     25  H5  UNL     1      18.718  20.126  27.718  1.00  0.00     0.163 HD
BRANCH  23  26
HETATM   26  C12 UNL     1      18.153  19.138  30.184  1.00  0.00     0.196 C 
HETATM   27  C13 UNL     1      18.317  18.658  31.635  1.00  0.00     0.056 C 
HETATM   28  C14 UNL     1      18.059  17.884  29.329  1.00  0.00     0.056 C 
BRANCH  26  29
HETATM   29  N6  UNL     1      16.931  19.857  30.108  1.00  0.00    -0.062 N 
ATOM     30  H63 UNL     1      17.085  20.835  30.354  1.00  0.00     0.275 HD
ATOM     31  H62 UNL     1      16.645  19.960  29.134  1.00  0.00     0.275 HD
ATOM     32  H61 UNL     1      16.165  19.473  30.659  1.00  0.00     0.275 HD
ENDBRANCH  26  29
ENDBRANCH  23  26
ENDBRANCH  18  22
BRANCH  19  33
HETATM   33  O4  UNL     1      19.292  22.843  27.009  1.00  0.00    -0.311 OA
BRANCH  33  34
HETATM   34  C16 UNL     1      17.999  23.087  27.373  1.00  0.00     0.255 C 
HETATM   35  C17 UNL     1      17.563  24.505  27.506  1.00  0.00     0.126 C 
HETATM   36  O5  UNL     1      17.226  22.122  27.593  1.00  0.00    -0.266 OA
ENDBRANCH  33  34
ENDBRANCH  19  33
BRANCH  20  37
HETATM   37  O6  UNL     1      22.203  23.217  29.059  1.00  0.00    -0.390 OA
ATOM     38  H6  UNL     1      21.641  22.725  29.645  1.00  0.00     0.210 HD
ENDBRANCH  20  37
BRANCH  21  39
HETATM   39  O7  UNL     1      23.632  23.240  26.971  1.00  0.00    -0.391 OA
ATOM     40  H7  UNL     1      24.214  23.915  26.642  1.00  0.00     0.210 HD
ENDBRANCH  21  39
ENDBRANCH  12  14
ENDBRANCH   5  10
ENDBRANCH   1   5
TORSDOF 13
ENDMDL
MODEL 4
REMARK VINA RESULT: -7.235067290      1.167      2.399
REMARK  13 active torsions:
REMARK  status: ('A' for Active; 'I' for Inactive)
REMARK    1  A    between atoms: C2_2  and  O1_3 
REMARK    2  A    between atoms: O1_3  and  N1_4 
REMARK    3  A    between atoms: N1_4  and  C3_5 
REMARK    4  A    between atoms: C3_5  and  N2_6 
REMARK    5  A    between atoms: C3_5  and  C5_10 
REMARK       I    between atoms: C5_10  and  N4_12 
REMARK    6  A    between atoms: N4_12  and  C6_14 
REMARK    7  A    between atoms: C10_18  and  N5_19 
REMARK       I    between atoms: N5_19  and  C11_21 
REMARK    8  A    between atoms: C11_21  and  C12_23 
REMARK    9  A    between atoms: C12_23  and  N6_26 
REMARK   10  A    between atoms: C15_30  and  O4_31 
REMARK   11  A    between atoms: O4_31  and  C16_32 
REMARK   12  A    between atoms: C18_35  and  O6_36 
REMARK   13  A    between atoms: C19_38  and  O7_39 
ROOT
HETATM    1  N2  UNL     1      22.904  24.144  20.688  1.00  0.00    -0.261 N 
ATOM      2  H2  UNL     1      22.003  23.763  20.399  1.00  0.00     0.181 HD
HETATM    3  C4  UNL     1      23.974  24.054  19.812  1.00  0.00     0.184 C 
HETATM    4  N3  UNL     1      24.879  24.002  19.092  1.00  0.00    -0.172 NA
ENDROOT
BRANCH   1   5
HETATM    5  C3  UNL     1      23.012  24.759  22.003  1.00  0.00     0.289 C 
BRANCH   5   6
HETATM    6  N1  UNL     1      23.713  25.698  22.170  1.00  0.00    -0.256 NA
BRANCH   6   7
HETATM    7  O1  UNL     1      24.527  26.644  22.336  1.00  0.00    -0.208 OA
BRANCH   7   8
HETATM    8  C2  UNL     1      24.476  27.473  23.518  1.00  0.00     0.213 C 
HETATM    9  C1  UNL     1      23.440  28.537  23.349  1.00  0.00     0.037 C 
ENDBRANCH   7   8
ENDBRANCH   6   7
ENDBRANCH   5   6
BRANCH   5  10
HETATM   10  C5  UNL     1      22.165  24.134  23.012  1.00  0.00     0.303 C 
HETATM   11  O2  UNL     1      21.072  23.669  22.616  1.00  0.00    -0.263 OA
HETATM   12  N4  UNL     1      22.537  24.057  24.324  1.00  0.00    -0.346 N 
ATOM     13  H4  UNL     1      23.439  24.470  24.562  1.00  0.00     0.163 HD
BRANCH  12  14
HETATM   14  C6  UNL     1      21.791  23.452  25.426  1.00  0.00     0.116 C 
HETATM   15  C7  UNL     1      22.179  21.966  25.347  1.00  0.00     0.028 C 
HETATM   16  C8  UNL     1      21.020  21.084  25.757  1.00  0.00     0.004 C 
HETATM   17  C9  UNL     1      21.200  20.746  27.187  1.00  0.00     0.028 C 
HETATM   18  C10 UNL     1      20.597  21.590  28.217  1.00  0.00     0.116 C 
HETATM   19  C15 UNL     1      20.224  22.984  27.961  1.00  0.00     0.185 C 
HETATM   20  C18 UNL     1      21.318  24.011  27.857  1.00  0.00     0.180 C 
HETATM   21  C19 UNL     1      22.171  24.093  26.694  1.00  0.00     0.172 C 
BRANCH  18  22
HETATM   22  N5  UNL     1      19.404  20.893  28.734  1.00  0.00    -0.352 N 
HETATM   23  C11 UNL     1      19.489  20.150  29.951  1.00  0.00     0.253 C 
HETATM   24  O3  UNL     1      20.559  20.102  30.572  1.00  0.00    -0.271 OA
ATOM     25  H5  UNL     1      18.522  20.941  28.223  1.00  0.00     0.163 HD
BRANCH  23  26
HETATM   26  C12 UNL     1      18.307  19.437  30.474  1.00  0.00     0.196 C 
HETATM   27  C13 UNL     1      17.118  20.398  30.638  1.00  0.00     0.056 C 
HETATM   28  C14 UNL     1      18.658  18.952  31.873  1.00  0.00     0.056 C 
BRANCH  26  29
HETATM   29  N6  UNL     1      17.864  18.340  29.689  1.00  0.00    -0.062 N 
ATOM     30  H63 UNL     1      18.617  17.661  29.580  1.00  0.00     0.275 HD
ATOM     31  H62 UNL     1      17.192  17.781  30.215  1.00  0.00     0.275 HD
ATOM     32  H61 UNL     1      17.479  18.585  28.777  1.00  0.00     0.275 HD
ENDBRANCH  26  29
ENDBRANCH  23  26
ENDBRANCH  18  22
BRANCH  19  33
HETATM   33  O4  UNL     1      19.180  23.210  27.036  1.00  0.00    -0.311 OA
BRANCH  33  34
HETATM   34  C16 UNL     1      17.979  23.792  27.322  1.00  0.00     0.255 C 
HETATM   35  C17 UNL     1      16.752  22.950  27.237  1.00  0.00     0.126 C 
HETATM   36  O5  UNL     1      17.939  25.007  27.633  1.00  0.00    -0.266 OA
ENDBRANCH  33  34
ENDBRANCH  19  33
BRANCH  20  37
HETATM   37  O6  UNL     1      22.060  23.928  29.037  1.00  0.00    -0.390 OA
ATOM     38  H6  UNL     1      22.832  24.468  28.913  1.00  0.00     0.210 HD
ENDBRANCH  20  37
BRANCH  21  39
HETATM   39  O7  UNL     1      23.509  23.712  26.974  1.00  0.00    -0.391 OA
ATOM     40  H7  UNL     1      24.050  24.487  26.874  1.00  0.00     0.210 HD
ENDBRANCH  21  39
ENDBRANCH  12  14
ENDBRANCH   5  10
ENDBRANCH   1   5
TORSDOF 13
ENDMDL
MODEL 5
REMARK VINA RESULT: -7.143234457      3.536      9.544
REMARK  13 active torsions:
REMARK  status: ('A' for Active; 'I' for Inactive)
REMARK    1  A    between atoms: C2_2  and  O1_3 
REMARK    2  A    between atoms: O1_3  and  N1_4 
REMARK    3  A    between atoms: N1_4  and  C3_5 
REMARK    4  A    between atoms: C3_5  and  N2_6 
REMARK    5  A    between atoms: C3_5  and  C5_10 
REMARK       I    between atoms: C5_10  and  N4_12 
REMARK    6  A    between atoms: N4_12  and  C6_14 
REMARK    7  A    between atoms: C10_18  and  N5_19 
REMARK       I    between atoms: N5_19  and  C11_21 
REMARK    8  A    between atoms: C11_21  and  C12_23 
REMARK    9  A    between atoms: C12_23  and  N6_26 
REMARK   10  A    between atoms: C15_30  and  O4_31 
REMARK   11  A    between atoms: O4_31  and  C16_32 
REMARK   12  A    between atoms: C18_35  and  O6_36 
REMARK   13  A    between atoms: C19_38  and  O7_39 
ROOT
HETATM    1  N2  UNL     1      20.451  21.478  28.962  1.00  0.00    -0.261 N 
ATOM      2  H2  UNL     1      20.818  21.245  28.039  1.00  0.00     0.181 HD
HETATM    3  C4  UNL     1      19.981  20.454  29.767  1.00  0.00     0.184 C 
HETATM    4  N3  UNL     1      19.596  19.613  30.463  1.00  0.00    -0.172 NA
ENDROOT
BRANCH   1   5
HETATM    5  C3  UNL     1      20.444  22.874  29.377  1.00  0.00     0.289 C 
BRANCH   5   6
HETATM    6  N1  UNL     1      20.284  23.160  30.514  1.00  0.00    -0.256 NA
BRANCH   6   7
HETATM    7  O1  UNL     1      20.028  23.467  31.708  1.00  0.00    -0.208 OA
BRANCH   7   8
HETATM    8  C2  UNL     1      18.768  23.108  32.317  1.00  0.00     0.213 C 
HETATM    9  C1  UNL     1      18.932  21.865  33.129  1.00  0.00     0.037 C 
ENDBRANCH   7   8
ENDBRANCH   6   7
ENDBRANCH   5   6
BRANCH   5  10
HETATM   10  C5  UNL     1      20.686  23.809  28.285  1.00  0.00     0.303 C 
HETATM   11  O2  UNL     1      20.022  23.632  27.239  1.00  0.00    -0.263 OA
HETATM   12  N4  UNL     1      21.589  24.829  28.391  1.00  0.00    -0.346 N 
ATOM     13  H4  UNL     1      22.093  24.895  29.275  1.00  0.00     0.163 HD
BRANCH  12  14
HETATM   14  C6  UNL     1      21.917  25.835  27.382  1.00  0.00     0.116 C 
HETATM   15  C7  UNL     1      20.934  26.978  27.685  1.00  0.00     0.028 C 
HETATM   16  C8  UNL     1      20.512  27.678  26.412  1.00  0.00     0.004 C 
HETATM   17  C9  UNL     1      21.378  28.867  26.247  1.00  0.00     0.028 C 
HETATM   18  C10 UNL     1      22.620  28.765  25.484  1.00  0.00     0.116 C 
HETATM   19  C15 UNL     1      23.295  27.483  25.263  1.00  0.00     0.185 C 
HETATM   20  C18 UNL     1      24.031  26.854  26.415  1.00  0.00     0.180 C 
HETATM   21  C19 UNL     1      23.330  26.224  27.509  1.00  0.00     0.172 C 
BRANCH  18  22
HETATM   22  N5  UNL     1      22.394  29.386  24.165  1.00  0.00    -0.352 N 
HETATM   23  C11 UNL     1      21.943  30.739  24.086  1.00  0.00     0.253 C 
HETATM   24  O3  UNL     1      21.754  31.388  25.123  1.00  0.00    -0.271 OA
ATOM     25  H5  UNL     1      22.559  28.850  23.312  1.00  0.00     0.163 HD
BRANCH  23  26
HETATM   26  C12 UNL     1      21.701  31.370  22.774  1.00  0.00     0.196 C 
HETATM   27  C13 UNL     1      20.195  31.573  22.536  1.00  0.00     0.056 C 
HETATM   28  C14 UNL     1      22.171  30.390  21.710  1.00  0.00     0.056 C 
BRANCH  26  29
HETATM   29  N6  UNL     1      22.337  32.625  22.578  1.00  0.00    -0.062 N 
ATOM     30  H63 UNL     1      22.057  33.022  21.682  1.00  0.00     0.275 HD
ATOM     31  H62 UNL     1      21.945  33.319  23.214  1.00  0.00     0.275 HD
ATOM     32  H61 UNL     1      23.353  32.614  22.655  1.00  0.00     0.275 HD
ENDBRANCH  26  29
ENDBRANCH  23  26
ENDBRANCH  18  22
BRANCH  19  33
HETATM   33  O4  UNL     1      22.620  26.529  24.468  1.00  0.00    -0.311 OA
BRANCH  33  34
HETATM   34  C16 UNL     1      23.178  25.803  23.456  1.00  0.00     0.255 C 
HETATM   35  C17 UNL     1      24.092  26.502  22.510  1.00  0.00     0.126 C 
HETATM   36  O5  UNL     1      22.902  24.583  23.345  1.00  0.00    -0.266 OA
ENDBRANCH  33  34
ENDBRANCH  19  33
BRANCH  20  37
HETATM   37  O6  UNL     1      24.951  27.802  26.869  1.00  0.00    -0.390 OA
ATOM     38  H6  UNL     1      25.484  27.373  27.527  1.00  0.00     0.210 HD
ENDBRANCH  20  37
BRANCH  21  39
HETATM   39  O7  UNL     1      23.461  26.944  28.725  1.00  0.00    -0.391 OA
ATOM     40  H7  UNL     1      22.706  27.515  28.798  1.00  0.00     0.210 HD
ENDBRANCH  21  39
ENDBRANCH  12  14
ENDBRANCH   5  10
ENDBRANCH   1   5
TORSDOF 13
ENDMDL
