MODEL 1
REMARK VINA RESULT: -9.406972112      0.000      0.000
REMARK  2 active torsions:
REMARK  status: ('A' for Active; 'I' for Inactive)
REMARK    1  A    between atoms: C2_2  and  C3_4 
REMARK    2  A    between atoms: C3_4  and  C4_5 
ROOT
HETATM    1  C4  UNL     1      24.406  21.905  40.403  1.00  0.00    -0.008 C 
HETATM    2  C5  UNL     1      25.897  21.810  40.472  1.00  0.00     0.005 C 
HETATM    3  C6  UNL     1      26.510  20.611  39.843  1.00  0.00     0.000 C 
HETATM    4  C7  UNL     1      26.765  19.444  40.717  1.00  0.00     0.000 C 
HETATM    5  C8  UNL     1      27.957  19.475  41.589  1.00  0.00     0.000 C 
HETATM    6  C9  UNL     1      29.217  20.045  40.981  1.00  0.00     0.002 C 
HETATM    7  C10 UNL     1      29.326  21.505  41.269  1.00  0.00     0.020 C 
HETATM    8  C11 UNL     1      30.677  21.958  41.778  1.00  0.00     0.138 C 
HETATM    9  N1  UNL     1      30.570  23.183  42.549  1.00  0.00    -0.225 N 
ATOM     10  H1  UNL     1      31.441  23.697  42.688  1.00  0.00     0.177 HD
HETATM   11  C12 UNL     1      29.409  23.761  43.136  1.00  0.00     0.694 A 
HETATM   12  N2  UNL     1      29.488  24.099  44.486  1.00  0.00    -0.131 N 
ATOM     13  H2  UNL     1      30.309  23.988  45.081  1.00  0.00     0.205 HD
HETATM   14  N3  UNL     1      28.353  24.574  44.852  1.00  0.00    -0.274 N 
ATOM     15  H3  UNL     1      28.110  24.907  45.785  1.00  0.00     0.189 HD
HETATM   16  C13 UNL     1      27.514  24.551  43.738  1.00  0.00     0.112 A 
HETATM   17  N4  UNL     1      28.175  24.054  42.700  1.00  0.00    -0.178 N 
ATOM     18  H4  UNL     1      27.815  23.922  41.755  1.00  0.00     0.185 HD
HETATM   19  C14 UNL     1      26.092  25.007  43.910  1.00  0.00     0.082 C 
HETATM   20  C15 UNL     1      25.556  25.911  42.847  1.00  0.00    -0.012 C 
HETATM   21  C16 UNL     1      25.155  27.230  43.459  1.00  0.00     0.010 C 
HETATM   22  C17 UNL     1      24.264  25.250  42.340  1.00  0.00     0.005 C 
HETATM   23  C18 UNL     1      24.518  24.296  41.203  1.00  0.00     0.001 C 
HETATM   24  C19 UNL     1      23.954  22.929  41.438  1.00  0.00     0.005 C 
ENDROOT
BRANCH   1  25
HETATM   25  C3  UNL     1      23.908  22.216  39.025  1.00  0.00     0.082 C 
BRANCH  25  26
HETATM   26  C2  UNL     1      22.679  21.474  38.649  1.00  0.00     0.123 C 
HETATM   27  C1  UNL     1      22.767  19.989  38.522  1.00  0.00     0.091 C 
HETATM   28  O1  UNL     1      21.608  21.987  38.438  1.00  0.00    -0.298 OA
ENDBRANCH  25  26
ENDBRANCH   1  25
TORSDOF 2
ENDMDL
MODEL 2
REMARK VINA RESULT: -8.609375266      1.239      4.872
REMARK  2 active torsions:
REMARK  status: ('A' for Active; 'I' for Inactive)
REMARK    1  A    between atoms: C2_2  and  C3_4 
REMARK    2  A    between atoms: C3_4  and  C4_5 
ROOT
HETATM    1  C4  UNL     1      25.393  21.066  39.543  1.00  0.00    -0.008 C 
HETATM    2  C5  UNL     1      25.676  21.879  40.766  1.00  0.00     0.005 C 
HETATM    3  C6  UNL     1      24.606  22.817  41.194  1.00  0.00     0.000 C 
HETATM    4  C7  UNL     1      24.690  24.210  40.702  1.00  0.00     0.000 C 
HETATM    5  C8  UNL     1      25.629  25.130  41.372  1.00  0.00     0.000 C 
HETATM    6  C9  UNL     1      25.705  25.031  42.878  1.00  0.00     0.002 C 
HETATM    7  C10 UNL     1      26.787  24.089  43.289  1.00  0.00     0.020 C 
HETATM    8  C11 UNL     1      27.707  24.605  44.374  1.00  0.00     0.138 C 
HETATM    9  N1  UNL     1      29.001  23.949  44.329  1.00  0.00    -0.225 N 
ATOM     10  H1  UNL     1      29.568  24.030  45.173  1.00  0.00     0.177 HD
HETATM   11  C12 UNL     1      29.581  23.208  43.261  1.00  0.00     0.694 A 
HETATM   12  N2  UNL     1      30.868  23.569  42.870  1.00  0.00    -0.131 N 
ATOM     13  H2  UNL     1      31.437  24.303  43.294  1.00  0.00     0.205 HD
HETATM   14  N3  UNL     1      31.218  22.824  41.885  1.00  0.00    -0.274 N 
ATOM     15  H3  UNL     1      32.108  22.857  41.388  1.00  0.00     0.189 HD
HETATM   16  C13 UNL     1      30.154  21.961  41.620  1.00  0.00     0.112 A 
HETATM   17  N4  UNL     1      29.166  22.207  42.470  1.00  0.00    -0.178 N 
ATOM     18  H4  UNL     1      28.266  21.729  42.513  1.00  0.00     0.185 HD
HETATM   19  C14 UNL     1      30.283  21.009  40.463  1.00  0.00     0.082 C 
HETATM   20  C15 UNL     1      29.846  19.602  40.714  1.00  0.00    -0.012 C 
HETATM   21  C16 UNL     1      31.011  18.666  40.511  1.00  0.00     0.010 C 
HETATM   22  C17 UNL     1      28.820  19.274  39.617  1.00  0.00     0.005 C 
HETATM   23  C18 UNL     1      27.415  19.634  40.023  1.00  0.00     0.001 C 
HETATM   24  C19 UNL     1      26.719  20.514  39.031  1.00  0.00     0.005 C 
ENDROOT
BRANCH   1  25
HETATM   25  C3  UNL     1      24.373  19.996  39.780  1.00  0.00     0.082 C 
BRANCH  25  26
HETATM   26  C2  UNL     1      23.162  20.121  38.932  1.00  0.00     0.123 C 
HETATM   27  C1  UNL     1      22.796  21.479  38.428  1.00  0.00     0.091 C 
HETATM   28  O1  UNL     1      22.448  19.202  38.618  1.00  0.00    -0.298 OA
ENDBRANCH  25  26
ENDBRANCH   1  25
TORSDOF 2
ENDMDL
MODEL 3
REMARK VINA RESULT: -7.905631991      4.068      5.872
REMARK  2 active torsions:
REMARK  status: ('A' for Active; 'I' for Inactive)
REMARK    1  A    between atoms: C2_2  and  C3_4 
REMARK    2  A    between atoms: C3_4  and  C4_5 
ROOT
HETATM    1  C4  UNL     1      24.411  25.518  41.839  1.00  0.00    -0.008 C 
HETATM    2  C5  UNL     1      25.297  25.752  43.021  1.00  0.00     0.005 C 
HETATM    3  C6  UNL     1      25.527  24.586  43.912  1.00  0.00     0.000 C 
HETATM    4  C7  UNL     1      24.631  24.438  45.080  1.00  0.00     0.000 C 
HETATM    5  C8  UNL     1      24.894  25.273  46.269  1.00  0.00     0.000 C 
HETATM    6  C9  UNL     1      26.343  25.451  46.655  1.00  0.00     0.002 C 
HETATM    7  C10 UNL     1      26.908  26.681  46.025  1.00  0.00     0.020 C 
HETATM    8  C11 UNL     1      27.687  27.579  46.961  1.00  0.00     0.138 C 
HETATM    9  N1  UNL     1      27.712  28.949  46.483  1.00  0.00    -0.225 N 
ATOM     10  H1  UNL     1      28.430  29.548  46.890  1.00  0.00     0.177 HD
HETATM   11  C12 UNL     1      26.865  29.565  45.518  1.00  0.00     0.694 A 
HETATM   12  N2  UNL     1      26.255  30.762  45.890  1.00  0.00    -0.131 N 
ATOM     13  H2  UNL     1      26.378  31.243  46.781  1.00  0.00     0.205 HD
HETATM   14  N3  UNL     1      25.511  31.157  44.920  1.00  0.00    -0.274 N 
ATOM     15  H3  UNL     1      24.941  32.001  44.902  1.00  0.00     0.189 HD
HETATM   16  C13 UNL     1      25.629  30.215  43.898  1.00  0.00     0.112 A 
HETATM   17  N4  UNL     1      26.460  29.253  44.279  1.00  0.00    -0.178 N 
ATOM     18  H4  UNL     1      26.736  28.436  43.734  1.00  0.00     0.185 HD
HETATM   19  C14 UNL     1      24.807  30.411  42.654  1.00  0.00     0.082 C 
HETATM   20  C15 UNL     1      25.515  30.197  41.355  1.00  0.00    -0.012 C 
HETATM   21  C16 UNL     1      25.487  31.470  40.548  1.00  0.00     0.010 C 
HETATM   22  C17 UNL     1      24.678  29.166  40.580  1.00  0.00     0.005 C 
HETATM   23  C18 UNL     1      25.095  27.750  40.880  1.00  0.00     0.001 C 
HETATM   24  C19 UNL     1      23.959  26.877  41.316  1.00  0.00     0.005 C 
ENDROOT
BRANCH   1  25
HETATM   25  C3  UNL     1      25.063  24.679  40.783  1.00  0.00     0.082 C 
BRANCH  25  26
HETATM   26  C2  UNL     1      24.134  23.745  40.100  1.00  0.00     0.123 C 
HETATM   27  C1  UNL     1      23.967  23.877  38.622  1.00  0.00     0.091 C 
HETATM   28  O1  UNL     1      23.502  22.881  40.655  1.00  0.00    -0.298 OA
ENDBRANCH  25  26
ENDBRANCH   1  25
TORSDOF 2
ENDMDL
MODEL 4
REMARK VINA RESULT: -7.622316101      3.708      6.068
REMARK  2 active torsions:
REMARK  status: ('A' for Active; 'I' for Inactive)
REMARK    1  A    between atoms: C2_2  and  C3_4 
REMARK    2  A    between atoms: C3_4  and  C4_5 
ROOT
HETATM    1  C4  UNL     1      28.193  23.581  42.759  1.00  0.00    -0.008 C 
HETATM    2  C5  UNL     1      27.364  22.467  42.205  1.00  0.00     0.005 C 
HETATM    3  C6  UNL     1      27.938  21.101  42.319  1.00  0.00     0.000 C 
HETATM    4  C7  UNL     1      28.719  20.597  41.167  1.00  0.00     0.000 C 
HETATM    5  C8  UNL     1      27.980  20.083  39.997  1.00  0.00     0.000 C 
HETATM    6  C9  UNL     1      26.756  19.248  40.291  1.00  0.00     0.002 C 
HETATM    7  C10 UNL     1      25.532  20.102  40.324  1.00  0.00     0.020 C 
HETATM    8  C11 UNL     1      24.357  19.569  39.534  1.00  0.00     0.138 C 
HETATM    9  N1  UNL     1      23.457  20.636  39.136  1.00  0.00    -0.225 N 
ATOM     10  H1  UNL     1      22.522  20.344  38.852  1.00  0.00     0.177 HD
HETATM   11  C12 UNL     1      23.709  22.036  39.092  1.00  0.00     0.694 A 
HETATM   12  N2  UNL     1      23.406  22.692  37.900  1.00  0.00    -0.131 N 
ATOM     13  H2  UNL     1      23.003  22.262  37.068  1.00  0.00     0.205 HD
HETATM   14  N3  UNL     1      23.722  23.930  38.027  1.00  0.00    -0.274 N 
ATOM     15  H3  UNL     1      23.615  24.657  37.320  1.00  0.00     0.189 HD
HETATM   16  C13 UNL     1      24.239  24.097  39.313  1.00  0.00     0.112 A 
HETATM   17  N4  UNL     1      24.221  22.932  39.948  1.00  0.00    -0.178 N 
ATOM     18  H4  UNL     1      24.535  22.754  40.902  1.00  0.00     0.185 HD
HETATM   19  C14 UNL     1      24.742  25.458  39.705  1.00  0.00     0.082 C 
HETATM   20  C15 UNL     1      24.339  25.946  41.058  1.00  0.00    -0.012 C 
HETATM   21  C16 UNL     1      23.540  27.218  40.921  1.00  0.00     0.010 C 
HETATM   22  C17 UNL     1      25.642  26.320  41.781  1.00  0.00     0.005 C 
HETATM   23  C18 UNL     1      26.234  25.156  42.532  1.00  0.00     0.001 C 
HETATM   24  C19 UNL     1      27.665  24.890  42.180  1.00  0.00     0.005 C 
ENDROOT
BRANCH   1  25
HETATM   25  C3  UNL     1      28.235  23.586  44.256  1.00  0.00     0.082 C 
BRANCH  25  26
HETATM   26  C2  UNL     1      29.605  23.508  44.819  1.00  0.00     0.123 C 
HETATM   27  C1  UNL     1      30.577  24.580  44.450  1.00  0.00     0.091 C 
HETATM   28  O1  UNL     1      29.993  22.638  45.558  1.00  0.00    -0.298 OA
ENDBRANCH  25  26
ENDBRANCH   1  25
TORSDOF 2
ENDMDL
MODEL 5
REMARK VINA RESULT: -7.608171083      4.239      7.703
REMARK  2 active torsions:
REMARK  status: ('A' for Active; 'I' for Inactive)
REMARK    1  A    between atoms: C2_2  and  C3_4 
REMARK    2  A    between atoms: C3_4  and  C4_5 
ROOT
HETATM    1  C4  UNL     1      25.179  29.912  41.302  1.00  0.00    -0.008 C 
HETATM    2  C5  UNL     1      25.178  29.255  42.645  1.00  0.00     0.005 C 
HETATM    3  C6  UNL     1      25.417  30.143  43.812  1.00  0.00     0.000 C 
HETATM    4  C7  UNL     1      26.812  30.273  44.288  1.00  0.00     0.000 C 
HETATM    5  C8  UNL     1      27.367  29.190  45.123  1.00  0.00     0.000 C 
HETATM    6  C9  UNL     1      26.441  28.604  46.162  1.00  0.00     0.002 C 
HETATM    7  C10 UNL     1      25.718  27.418  45.614  1.00  0.00     0.020 C 
HETATM    8  C11 UNL     1      25.714  26.200  46.512  1.00  0.00     0.138 C 
HETATM    9  N1  UNL     1      25.528  24.979  45.749  1.00  0.00    -0.225 N 
ATOM     10  H1  UNL     1      25.238  24.161  46.285  1.00  0.00     0.177 HD
HETATM   11  C12 UNL     1      25.696  24.776  44.350  1.00  0.00     0.694 A 
HETATM   12  N2  UNL     1      26.505  23.710  43.962  1.00  0.00    -0.131 N 
ATOM     13  H2  UNL     1      26.969  23.053  44.590  1.00  0.00     0.205 HD
HETATM   14  N3  UNL     1      26.569  23.694  42.679  1.00  0.00    -0.274 N 
ATOM     15  H3  UNL     1      27.088  23.028  42.109  1.00  0.00     0.189 HD
HETATM   16  C13 UNL     1      25.796  24.758  42.213  1.00  0.00     0.112 A 
HETATM   17  N4  UNL     1      25.270  25.405  43.245  1.00  0.00    -0.178 N 
ATOM     18  H4  UNL     1      24.660  26.221  43.205  1.00  0.00     0.185 HD
HETATM   19  C14 UNL     1      25.745  25.002  40.730  1.00  0.00     0.082 C 
HETATM   20  C15 UNL     1      24.396  25.285  40.154  1.00  0.00    -0.012 C 
HETATM   21  C16 UNL     1      24.051  24.232  39.132  1.00  0.00     0.010 C 
HETATM   22  C17 UNL     1      24.530  26.612  39.390  1.00  0.00     0.005 C 
HETATM   23  C18 UNL     1      24.251  27.806  40.266  1.00  0.00     0.001 C 
HETATM   24  C19 UNL     1      25.350  28.824  40.247  1.00  0.00     0.005 C 
ENDROOT
BRANCH   1  25
HETATM   25  C3  UNL     1      23.965  30.758  41.069  1.00  0.00     0.082 C 
BRANCH  25  26
HETATM   26  C2  UNL     1      24.169  32.197  41.365  1.00  0.00     0.123 C 
HETATM   27  C1  UNL     1      25.515  32.785  41.096  1.00  0.00     0.091 C 
HETATM   28  O1  UNL     1      23.322  32.932  41.810  1.00  0.00    -0.298 OA
ENDBRANCH  25  26
ENDBRANCH   1  25
TORSDOF 2
ENDMDL
