MODEL 1
REMARK VINA RESULT: -7.716169456      0.000      0.000
REMARK  13 active torsions:
REMARK  status: ('A' for Active; 'I' for Inactive)
REMARK    1  A    between atoms: C2_2  and  C3_6 
REMARK    2  A    between atoms: C3_6  and  C4_7 
REMARK    3  A    between atoms: C4_7  and  C5_8 
REMARK    4  A    between atoms: C5_8  and  O2_10 
REMARK    5  A    between atoms: O2_10  and  C6_11 
REMARK    6  A    between atoms: C18_24  and  C19_25 
REMARK    7  A    between atoms: C19_25  and  C21_27 
REMARK    8  A    between atoms: C21_27  and  C22_28 
REMARK    9  A    between atoms: C22_28  and  C23_29 
REMARK   10  A    between atoms: C23_29  and  C24_30 
REMARK   11  A    between atoms: C24_30  and  C26_32 
REMARK   12  A    between atoms: C26_32  and  O4_33 
REMARK   13  A    between atoms: O4_33  and  C27_34 
ROOT
HETATM    1  C6  UNL     1      15.528   0.398  -3.815  1.00  0.00     0.206 C 
HETATM    2  C7  UNL     1      14.089   0.601  -4.003  1.00  0.00     0.156 C 
HETATM    3  O3  UNL     1      13.678   0.917  -5.097  1.00  0.00    -0.295 OA
HETATM    4  C8  UNL     1      13.171   0.415  -2.847  1.00  0.00     0.082 C 
HETATM    5  C9  UNL     1      13.981   0.593  -1.597  1.00  0.00     0.017 C 
HETATM    6  C10 UNL     1      15.087  -0.417  -1.452  1.00  0.00    -0.033 C 
HETATM    7  C11 UNL     1      15.935   0.063  -0.277  1.00  0.00     0.016 C 
HETATM    8  C12 UNL     1      15.890  -0.538  -2.692  1.00  0.00     0.031 C 
HETATM    9  C13 UNL     1      15.898  -1.949  -3.263  1.00  0.00     0.009 C 
HETATM   10  C14 UNL     1      16.468  -2.864  -2.230  1.00  0.00     0.006 C 
HETATM   11  C15 UNL     1      15.497  -2.861  -1.067  1.00  0.00    -0.005 C 
HETATM   12  C16 UNL     1      14.891  -4.209  -0.939  1.00  0.00    -0.001 C 
HETATM   13  C17 UNL     1      13.654  -4.532  -1.662  1.00  0.00     0.011 C 
HETATM   14  C18 UNL     1      13.008  -5.001  -0.345  1.00  0.00    -0.002 C 
HETATM   15  C29 UNL     1      14.128  -4.297   0.354  1.00  0.00    -0.036 C 
HETATM   16  C30 UNL     1      14.913  -5.162   1.335  1.00  0.00     0.016 C 
HETATM   17  C31 UNL     1      13.855  -2.972   0.968  1.00  0.00     0.010 C 
HETATM   18  C32 UNL     1      13.614  -1.831   0.043  1.00  0.00     0.006 C 
HETATM   19  C33 UNL     1      14.469  -1.775  -1.173  1.00  0.00    -0.001 C 
ENDROOT
BRANCH  14  20
HETATM   20  C19 UNL     1      12.954  -6.481  -0.359  1.00  0.00    -0.014 C 
HETATM   21  C20 UNL     1      12.479  -6.888  -1.765  1.00  0.00     0.010 C 
BRANCH  20  22
HETATM   22  C21 UNL     1      11.943  -7.095   0.587  1.00  0.00     0.005 C 
BRANCH  22  23
HETATM   23  C22 UNL     1      10.770  -6.153   0.789  1.00  0.00     0.001 C 
BRANCH  23  24
HETATM   24  C23 UNL     1      10.315  -6.080   2.201  1.00  0.00     0.006 C 
BRANCH  24  25
HETATM   25  C24 UNL     1      10.990  -5.003   3.015  1.00  0.00     0.006 C 
HETATM   26  C25 UNL     1      10.893  -3.634   2.403  1.00  0.00     0.012 C 
BRANCH  25  27
HETATM   27  C26 UNL     1      10.292  -4.968   4.379  1.00  0.00     0.183 C 
BRANCH  27  28
HETATM   28  O4  UNL     1      10.834  -3.966   5.213  1.00  0.00    -0.321 OA
BRANCH  28  29
HETATM   29  C27 UNL     1       9.912  -3.227   5.961  1.00  0.00     0.254 C 
HETATM   30  C28 UNL     1       9.834  -1.752   5.862  1.00  0.00     0.126 C 
HETATM   31  O5  UNL     1       9.121  -3.814   6.740  1.00  0.00    -0.266 OA
ENDBRANCH  28  29
ENDBRANCH  27  28
ENDBRANCH  25  27
ENDBRANCH  24  25
ENDBRANCH  23  24
ENDBRANCH  22  23
ENDBRANCH  20  22
ENDBRANCH  14  20
BRANCH   1  32
HETATM   32  O2  UNL     1      16.273   1.610  -3.754  1.00  0.00    -0.308 OA
BRANCH  32  33
HETATM   33  C5  UNL     1      17.658   1.611  -3.763  1.00  0.00     0.259 C 
HETATM   34  O1  UNL     1      18.239   1.094  -4.777  1.00  0.00    -0.265 OA
BRANCH  33  35
HETATM   35  C4  UNL     1      18.509   2.158  -2.700  1.00  0.00     0.117 C 
BRANCH  35  36
HETATM   36  C3  UNL     1      19.138   1.030  -1.886  1.00  0.00     0.061 C 
BRANCH  36  37
HETATM   37  C2  UNL     1      20.605   1.145  -2.086  1.00  0.00    -0.024 C 
HETATM   38  C1  UNL     1      21.535   0.903  -0.921  1.00  0.00     0.062 C 
HETATM   39  N1  UNL     1      21.034   1.450  -3.261  1.00  0.00    -0.406 N 
ATOM     40  H12 UNL     1      22.042   1.529  -3.398  1.00  0.00     0.155 HD
ATOM     41  H11 UNL     1      20.406   1.613  -4.048  1.00  0.00     0.155 HD
ENDBRANCH  36  37
ENDBRANCH  35  36
ENDBRANCH  33  35
ENDBRANCH  32  33
ENDBRANCH   1  32
TORSDOF 13
ENDMDL
MODEL 2
REMARK VINA RESULT: -7.259622892      2.843      3.727
REMARK  13 active torsions:
REMARK  status: ('A' for Active; 'I' for Inactive)
REMARK    1  A    between atoms: C2_2  and  C3_6 
REMARK    2  A    between atoms: C3_6  and  C4_7 
REMARK    3  A    between atoms: C4_7  and  C5_8 
REMARK    4  A    between atoms: C5_8  and  O2_10 
REMARK    5  A    between atoms: O2_10  and  C6_11 
REMARK    6  A    between atoms: C18_24  and  C19_25 
REMARK    7  A    between atoms: C19_25  and  C21_27 
REMARK    8  A    between atoms: C21_27  and  C22_28 
REMARK    9  A    between atoms: C22_28  and  C23_29 
REMARK   10  A    between atoms: C23_29  and  C24_30 
REMARK   11  A    between atoms: C24_30  and  C26_32 
REMARK   12  A    between atoms: C26_32  and  O4_33 
REMARK   13  A    between atoms: O4_33  and  C27_34 
ROOT
HETATM    1  C6  UNL     1      15.467   0.207  -3.761  1.00  0.00     0.206 C 
HETATM    2  C7  UNL     1      14.028   0.363  -3.987  1.00  0.00     0.156 C 
HETATM    3  O3  UNL     1      13.633   0.632  -5.099  1.00  0.00    -0.295 OA
HETATM    4  C8  UNL     1      13.088   0.188  -2.846  1.00  0.00     0.082 C 
HETATM    5  C9  UNL     1      13.865   0.429  -1.585  1.00  0.00     0.017 C 
HETATM    6  C10 UNL     1      14.994  -0.545  -1.383  1.00  0.00    -0.033 C 
HETATM    7  C11 UNL     1      15.802  -0.005  -0.206  1.00  0.00     0.016 C 
HETATM    8  C12 UNL     1      15.828  -0.683  -2.600  1.00  0.00     0.031 C 
HETATM    9  C13 UNL     1      15.888  -2.111  -3.125  1.00  0.00     0.009 C 
HETATM   10  C14 UNL     1      16.458  -2.976  -2.051  1.00  0.00     0.006 C 
HETATM   11  C15 UNL     1      15.461  -2.963  -0.910  1.00  0.00    -0.005 C 
HETATM   12  C16 UNL     1      14.890  -4.322  -0.751  1.00  0.00    -0.001 C 
HETATM   13  C17 UNL     1      13.679  -4.703  -1.490  1.00  0.00     0.011 C 
HETATM   14  C18 UNL     1      13.016  -5.148  -0.173  1.00  0.00    -0.002 C 
HETATM   15  C29 UNL     1      14.100  -4.390   0.527  1.00  0.00    -0.036 C 
HETATM   16  C30 UNL     1      14.886  -5.201   1.553  1.00  0.00     0.016 C 
HETATM   17  C31 UNL     1      13.777  -3.055   1.092  1.00  0.00     0.010 C 
HETATM   18  C32 UNL     1      13.526  -1.951   0.125  1.00  0.00     0.006 C 
HETATM   19  C33 UNL     1      14.408  -1.910  -1.073  1.00  0.00    -0.001 C 
ENDROOT
BRANCH  14  20
HETATM   20  C19 UNL     1      13.003  -6.628  -0.140  1.00  0.00    -0.014 C 
HETATM   21  C20 UNL     1      13.115  -7.100  -1.600  1.00  0.00     0.010 C 
BRANCH  20  22
HETATM   22  C21 UNL     1      11.718  -7.247   0.371  1.00  0.00     0.005 C 
BRANCH  22  23
HETATM   23  C22 UNL     1      10.919  -7.831  -0.779  1.00  0.00     0.001 C 
BRANCH  23  24
HETATM   24  C23 UNL     1       9.609  -7.161  -0.982  1.00  0.00     0.006 C 
BRANCH  24  25
HETATM   25  C24 UNL     1       9.673  -5.920  -1.839  1.00  0.00     0.006 C 
HETATM   26  C25 UNL     1      10.383  -6.128  -3.148  1.00  0.00     0.012 C 
BRANCH  25  27
HETATM   27  C26 UNL     1       8.228  -5.508  -2.139  1.00  0.00     0.183 C 
BRANCH  27  28
HETATM   28  O4  UNL     1       8.161  -4.608  -3.225  1.00  0.00    -0.321 OA
BRANCH  28  29
HETATM   29  C27 UNL     1       6.878  -4.200  -3.604  1.00  0.00     0.254 C 
HETATM   30  C28 UNL     1       6.619  -3.575  -4.921  1.00  0.00     0.126 C 
HETATM   31  O5  UNL     1       5.909  -4.363  -2.822  1.00  0.00    -0.266 OA
ENDBRANCH  28  29
ENDBRANCH  27  28
ENDBRANCH  25  27
ENDBRANCH  24  25
ENDBRANCH  23  24
ENDBRANCH  22  23
ENDBRANCH  20  22
ENDBRANCH  14  20
BRANCH   1  32
HETATM   32  O2  UNL     1      16.177   1.440  -3.723  1.00  0.00    -0.308 OA
BRANCH  32  33
HETATM   33  C5  UNL     1      17.561   1.481  -3.740  1.00  0.00     0.259 C 
HETATM   34  O1  UNL     1      18.150   1.018  -4.775  1.00  0.00    -0.265 OA
BRANCH  33  35
HETATM   35  C4  UNL     1      18.404   2.011  -2.661  1.00  0.00     0.117 C 
BRANCH  35  36
HETATM   36  C3  UNL     1      19.078   0.872  -1.900  1.00  0.00     0.061 C 
BRANCH  36  37
HETATM   37  C2  UNL     1      20.537   1.039  -2.115  1.00  0.00    -0.024 C 
HETATM   38  C1  UNL     1      21.487   0.829  -0.959  1.00  0.00     0.062 C 
HETATM   39  N1  UNL     1      20.944   1.361  -3.293  1.00  0.00    -0.406 N 
ATOM     40  H12 UNL     1      21.947   1.475  -3.441  1.00  0.00     0.155 HD
ATOM     41  H11 UNL     1      20.302   1.503  -4.074  1.00  0.00     0.155 HD
ENDBRANCH  36  37
ENDBRANCH  35  36
ENDBRANCH  33  35
ENDBRANCH  32  33
ENDBRANCH   1  32
TORSDOF 13
ENDMDL
MODEL 3
REMARK VINA RESULT: -7.154604044     10.195     12.584
REMARK  13 active torsions:
REMARK  status: ('A' for Active; 'I' for Inactive)
REMARK    1  A    between atoms: C2_2  and  C3_6 
REMARK    2  A    between atoms: C3_6  and  C4_7 
REMARK    3  A    between atoms: C4_7  and  C5_8 
REMARK    4  A    between atoms: C5_8  and  O2_10 
REMARK    5  A    between atoms: O2_10  and  C6_11 
REMARK    6  A    between atoms: C18_24  and  C19_25 
REMARK    7  A    between atoms: C19_25  and  C21_27 
REMARK    8  A    between atoms: C21_27  and  C22_28 
REMARK    9  A    between atoms: C22_28  and  C23_29 
REMARK   10  A    between atoms: C23_29  and  C24_30 
REMARK   11  A    between atoms: C24_30  and  C26_32 
REMARK   12  A    between atoms: C26_32  and  O4_33 
REMARK   13  A    between atoms: O4_33  and  C27_34 
ROOT
HETATM    1  C6  UNL     1      10.763  -2.072   8.275  1.00  0.00     0.206 C 
HETATM    2  C7  UNL     1      10.049  -3.297   7.903  1.00  0.00     0.156 C 
HETATM    3  O3  UNL     1       9.778  -3.489   6.739  1.00  0.00    -0.295 OA
HETATM    4  C8  UNL     1       9.676  -4.272   8.963  1.00  0.00     0.082 C 
HETATM    5  C9  UNL     1       9.629  -3.526  10.264  1.00  0.00     0.017 C 
HETATM    6  C10 UNL     1      10.953  -2.927  10.658  1.00  0.00    -0.033 C 
HETATM    7  C11 UNL     1      10.659  -2.020  11.850  1.00  0.00     0.016 C 
HETATM    8  C12 UNL     1      11.573  -2.176   9.541  1.00  0.00     0.031 C 
HETATM    9  C13 UNL     1      12.948  -2.705   9.157  1.00  0.00     0.009 C 
HETATM   10  C14 UNL     1      13.834  -2.605  10.354  1.00  0.00     0.006 C 
HETATM   11  C15 UNL     1      13.267  -3.553  11.391  1.00  0.00    -0.005 C 
HETATM   12  C16 UNL     1      14.234  -4.654  11.619  1.00  0.00    -0.001 C 
HETATM   13  C17 UNL     1      14.162  -5.878  10.809  1.00  0.00     0.011 C 
HETATM   14  C18 UNL     1      14.126  -6.725  12.095  1.00  0.00    -0.002 C 
HETATM   15  C29 UNL     1      13.810  -5.456  12.820  1.00  0.00    -0.036 C 
HETATM   16  C30 UNL     1      14.743  -5.136  13.984  1.00  0.00     0.016 C 
HETATM   17  C31 UNL     1      12.403  -5.206  13.228  1.00  0.00     0.010 C 
HETATM   18  C32 UNL     1      11.423  -4.920  12.145  1.00  0.00     0.006 C 
HETATM   19  C33 UNL     1      11.900  -4.051  11.035  1.00  0.00    -0.001 C 
ENDROOT
BRANCH  14  20
HETATM   20  C19 UNL     1      15.449  -7.368  12.261  1.00  0.00    -0.014 C 
HETATM   21  C20 UNL     1      16.205  -7.164  10.937  1.00  0.00     0.010 C 
BRANCH  20  22
HETATM   22  C21 UNL     1      15.413  -8.869  12.462  1.00  0.00     0.005 C 
BRANCH  22  23
HETATM   23  C22 UNL     1      14.492  -9.516  11.443  1.00  0.00     0.001 C 
BRANCH  23  24
HETATM   24  C23 UNL     1      13.437 -10.359  12.060  1.00  0.00     0.006 C 
BRANCH  24  25
HETATM   25  C24 UNL     1      12.077 -10.218  11.420  1.00  0.00     0.006 C 
HETATM   26  C25 UNL     1      11.408  -8.903  11.708  1.00  0.00     0.012 C 
BRANCH  25  27
HETATM   27  C26 UNL     1      12.282 -10.329   9.905  1.00  0.00     0.183 C 
BRANCH  27  28
HETATM   28  O4  UNL     1      11.050 -10.352   9.216  1.00  0.00    -0.321 OA
BRANCH  28  29
HETATM   29  C27 UNL     1      10.352 -11.562   9.251  1.00  0.00     0.254 C 
HETATM   30  C28 UNL     1       9.047 -11.688   9.940  1.00  0.00     0.126 C 
HETATM   31  O5  UNL     1      10.826 -12.579   8.687  1.00  0.00    -0.266 OA
ENDBRANCH  28  29
ENDBRANCH  27  28
ENDBRANCH  25  27
ENDBRANCH  24  25
ENDBRANCH  23  24
ENDBRANCH  22  23
ENDBRANCH  20  22
ENDBRANCH  14  20
BRANCH   1  32
HETATM   32  O2  UNL     1       9.944  -0.909   8.266  1.00  0.00    -0.308 OA
BRANCH  32  33
HETATM   33  C5  UNL     1      10.301   0.225   7.555  1.00  0.00     0.259 C 
HETATM   34  O1  UNL     1      10.182   0.184   6.284  1.00  0.00    -0.265 OA
BRANCH  33  35
HETATM   35  C4  UNL     1      10.809   1.468   8.148  1.00  0.00     0.117 C 
BRANCH  35  36
HETATM   36  C3  UNL     1      10.657   1.437   9.667  1.00  0.00     0.061 C 
BRANCH  36  37
HETATM   37  C2  UNL     1      11.954   1.900  10.221  1.00  0.00    -0.024 C 
HETATM   38  C1  UNL     1      13.204   1.093   9.960  1.00  0.00     0.062 C 
HETATM   39  N1  UNL     1      11.966   2.986  10.913  1.00  0.00    -0.406 N 
ATOM     40  H12 UNL     1      12.857   3.304  11.294  1.00  0.00     0.155 HD
ATOM     41  H11 UNL     1      11.121   3.531  11.090  1.00  0.00     0.155 HD
ENDBRANCH  36  37
ENDBRANCH  35  36
ENDBRANCH  33  35
ENDBRANCH  32  33
ENDBRANCH   1  32
TORSDOF 13
ENDMDL
MODEL 4
REMARK VINA RESULT: -6.869339913      8.724     12.231
REMARK  13 active torsions:
REMARK  status: ('A' for Active; 'I' for Inactive)
REMARK    1  A    between atoms: C2_2  and  C3_6 
REMARK    2  A    between atoms: C3_6  and  C4_7 
REMARK    3  A    between atoms: C4_7  and  C5_8 
REMARK    4  A    between atoms: C5_8  and  O2_10 
REMARK    5  A    between atoms: O2_10  and  C6_11 
REMARK    6  A    between atoms: C18_24  and  C19_25 
REMARK    7  A    between atoms: C19_25  and  C21_27 
REMARK    8  A    between atoms: C21_27  and  C22_28 
REMARK    9  A    between atoms: C22_28  and  C23_29 
REMARK   10  A    between atoms: C23_29  and  C24_30 
REMARK   11  A    between atoms: C24_30  and  C26_32 
REMARK   12  A    between atoms: C26_32  and  O4_33 
REMARK   13  A    between atoms: O4_33  and  C27_34 
ROOT
HETATM    1  C6  UNL     1      10.760  -2.102   8.139  1.00  0.00     0.206 C 
HETATM    2  C7  UNL     1      10.061  -3.336   7.767  1.00  0.00     0.156 C 
HETATM    3  O3  UNL     1       9.815  -3.542   6.600  1.00  0.00    -0.295 OA
HETATM    4  C8  UNL     1       9.673  -4.301   8.830  1.00  0.00     0.082 C 
HETATM    5  C9  UNL     1       9.595  -3.541  10.121  1.00  0.00     0.017 C 
HETATM    6  C10 UNL     1      10.907  -2.930  10.534  1.00  0.00    -0.033 C 
HETATM    7  C11 UNL     1      10.583  -2.012  11.710  1.00  0.00     0.016 C 
HETATM    8  C12 UNL     1      11.544  -2.187   9.422  1.00  0.00     0.031 C 
HETATM    9  C13 UNL     1      12.930  -2.711   9.071  1.00  0.00     0.009 C 
HETATM   10  C14 UNL     1      13.791  -2.592  10.284  1.00  0.00     0.006 C 
HETATM   11  C15 UNL     1      13.210  -3.532  11.321  1.00  0.00    -0.005 C 
HETATM   12  C16 UNL     1      14.179  -4.625  11.581  1.00  0.00    -0.001 C 
HETATM   13  C17 UNL     1      14.131  -5.857  10.783  1.00  0.00     0.011 C 
HETATM   14  C18 UNL     1      14.074  -6.691  12.077  1.00  0.00    -0.002 C 
HETATM   15  C29 UNL     1      13.736  -5.416  12.781  1.00  0.00    -0.036 C 
HETATM   16  C30 UNL     1      14.643  -5.077  13.960  1.00  0.00     0.016 C 
HETATM   17  C31 UNL     1      12.320  -5.171  13.158  1.00  0.00     0.010 C 
HETATM   18  C32 UNL     1      11.360  -4.903  12.052  1.00  0.00     0.006 C 
HETATM   19  C33 UNL     1      11.853  -4.043  10.943  1.00  0.00    -0.001 C 
ENDROOT
BRANCH  14  20
HETATM   20  C19 UNL     1      15.398  -7.323  12.277  1.00  0.00    -0.014 C 
HETATM   21  C20 UNL     1      16.176  -7.136  10.963  1.00  0.00     0.010 C 
BRANCH  20  22
HETATM   22  C21 UNL     1      15.367  -8.821  12.500  1.00  0.00     0.005 C 
BRANCH  22  23
HETATM   23  C22 UNL     1      14.466  -9.489  11.476  1.00  0.00     0.001 C 
BRANCH  23  24
HETATM   24  C23 UNL     1      13.405 -10.328  12.089  1.00  0.00     0.006 C 
BRANCH  24  25
HETATM   25  C24 UNL     1      12.056 -10.203  11.425  1.00  0.00     0.006 C 
HETATM   26  C25 UNL     1      11.365  -8.897  11.706  1.00  0.00     0.012 C 
BRANCH  25  27
HETATM   27  C26 UNL     1      12.288 -10.307   9.914  1.00  0.00     0.183 C 
BRANCH  27  28
HETATM   28  O4  UNL     1      11.068 -10.363   9.206  1.00  0.00    -0.321 OA
BRANCH  28  29
HETATM   29  C27 UNL     1      10.390 -11.585   9.249  1.00  0.00     0.254 C 
HETATM   30  C28 UNL     1       9.095 -11.731   9.952  1.00  0.00     0.126 C 
HETATM   31  O5  UNL     1      10.875 -12.594   8.681  1.00  0.00    -0.266 OA
ENDBRANCH  28  29
ENDBRANCH  27  28
ENDBRANCH  25  27
ENDBRANCH  24  25
ENDBRANCH  23  24
ENDBRANCH  22  23
ENDBRANCH  20  22
ENDBRANCH  14  20
BRANCH   1  32
HETATM   32  O2  UNL     1       9.933  -0.944   8.101  1.00  0.00    -0.308 OA
BRANCH  32  33
HETATM   33  C5  UNL     1      10.084   0.023   7.120  1.00  0.00     0.259 C 
HETATM   34  O1  UNL     1      10.755   1.068   7.424  1.00  0.00    -0.265 OA
BRANCH  33  35
HETATM   35  C4  UNL     1       9.533  -0.058   5.762  1.00  0.00     0.117 C 
BRANCH  35  36
HETATM   36  C3  UNL     1      10.574   0.385   4.736  1.00  0.00     0.061 C 
BRANCH  36  37
HETATM   37  C2  UNL     1      10.272   1.807   4.430  1.00  0.00    -0.024 C 
HETATM   38  C1  UNL     1       8.951   2.166   3.794  1.00  0.00     0.062 C 
HETATM   39  N1  UNL     1      11.161   2.691   4.724  1.00  0.00    -0.406 N 
ATOM     40  H12 UNL     1      10.954   3.668   4.514  1.00  0.00     0.155 HD
ATOM     41  H11 UNL     1      12.054   2.448   5.153  1.00  0.00     0.155 HD
ENDBRANCH  36  37
ENDBRANCH  35  36
ENDBRANCH  33  35
ENDBRANCH  32  33
ENDBRANCH   1  32
TORSDOF 13
ENDMDL
MODEL 5
REMARK VINA RESULT: -6.704111478      1.668      2.808
REMARK  13 active torsions:
REMARK  status: ('A' for Active; 'I' for Inactive)
REMARK    1  A    between atoms: C2_2  and  C3_6 
REMARK    2  A    between atoms: C3_6  and  C4_7 
REMARK    3  A    between atoms: C4_7  and  C5_8 
REMARK    4  A    between atoms: C5_8  and  O2_10 
REMARK    5  A    between atoms: O2_10  and  C6_11 
REMARK    6  A    between atoms: C18_24  and  C19_25 
REMARK    7  A    between atoms: C19_25  and  C21_27 
REMARK    8  A    between atoms: C21_27  and  C22_28 
REMARK    9  A    between atoms: C22_28  and  C23_29 
REMARK   10  A    between atoms: C23_29  and  C24_30 
REMARK   11  A    between atoms: C24_30  and  C26_32 
REMARK   12  A    between atoms: C26_32  and  O4_33 
REMARK   13  A    between atoms: O4_33  and  C27_34 
ROOT
HETATM    1  C6  UNL     1      14.479  -0.360  -2.043  1.00  0.00     0.206 C 
HETATM    2  C7  UNL     1      13.901   0.062  -0.765  1.00  0.00     0.156 C 
HETATM    3  O3  UNL     1      13.249   1.081  -0.723  1.00  0.00    -0.295 OA
HETATM    4  C8  UNL     1      14.129  -0.769   0.448  1.00  0.00     0.082 C 
HETATM    5  C9  UNL     1      15.369  -1.579   0.209  1.00  0.00     0.017 C 
HETATM    6  C10 UNL     1      15.252  -2.521  -0.959  1.00  0.00    -0.033 C 
HETATM    7  C11 UNL     1      16.659  -3.066  -1.193  1.00  0.00     0.016 C 
HETATM    8  C12 UNL     1      14.722  -1.842  -2.164  1.00  0.00     0.031 C 
HETATM    9  C13 UNL     1      13.438  -2.470  -2.688  1.00  0.00     0.009 C 
HETATM   10  C14 UNL     1      13.723  -3.895  -3.025  1.00  0.00     0.006 C 
HETATM   11  C15 UNL     1      14.058  -4.590  -1.721  1.00  0.00    -0.005 C 
HETATM   12  C16 UNL     1      13.003  -5.588  -1.420  1.00  0.00    -0.001 C 
HETATM   13  C17 UNL     1      11.824  -5.200  -0.634  1.00  0.00     0.011 C 
HETATM   14  C18 UNL     1      12.081  -6.374   0.329  1.00  0.00    -0.002 C 
HETATM   15  C29 UNL     1      13.447  -6.459  -0.276  1.00  0.00    -0.036 C 
HETATM   16  C30 UNL     1      13.821  -7.836  -0.817  1.00  0.00     0.016 C 
HETATM   17  C31 UNL     1      14.592  -5.895   0.484  1.00  0.00     0.010 C 
HETATM   18  C32 UNL     1      14.659  -4.414   0.612  1.00  0.00     0.006 C 
HETATM   19  C33 UNL     1      14.281  -3.629  -0.593  1.00  0.00    -0.001 C 
ENDROOT
BRANCH  14  20
HETATM   20  C19 UNL     1      11.077  -7.426   0.051  1.00  0.00    -0.014 C 
HETATM   21  C20 UNL     1       9.745  -6.703  -0.210  1.00  0.00     0.010 C 
BRANCH  20  22
HETATM   22  C21 UNL     1      10.792  -8.363   1.207  1.00  0.00     0.005 C 
BRANCH  22  23
HETATM   23  C22 UNL     1       9.647  -7.829   2.048  1.00  0.00     0.001 C 
BRANCH  23  24
HETATM   24  C23 UNL     1      10.074  -7.372   3.395  1.00  0.00     0.006 C 
BRANCH  24  25
HETATM   25  C24 UNL     1       9.352  -6.143   3.891  1.00  0.00     0.006 C 
HETATM   26  C25 UNL     1       8.549  -6.377   5.140  1.00  0.00     0.012 C 
BRANCH  25  27
HETATM   27  C26 UNL     1      10.422  -5.090   4.200  1.00  0.00     0.183 C 
BRANCH  27  28
HETATM   28  O4  UNL     1      11.063  -4.642   3.025  1.00  0.00    -0.321 OA
BRANCH  28  29
HETATM   29  C27 UNL     1      11.238  -3.259   2.911  1.00  0.00     0.254 C 
HETATM   30  C28 UNL     1      11.046  -2.354   4.067  1.00  0.00     0.126 C 
HETATM   31  O5  UNL     1      11.570  -2.756   1.810  1.00  0.00    -0.266 OA
ENDBRANCH  28  29
ENDBRANCH  27  28
ENDBRANCH  25  27
ENDBRANCH  24  25
ENDBRANCH  23  24
ENDBRANCH  22  23
ENDBRANCH  20  22
ENDBRANCH  14  20
BRANCH   1  32
HETATM   32  O2  UNL     1      15.621   0.396  -2.431  1.00  0.00    -0.308 OA
BRANCH  32  33
HETATM   33  C5  UNL     1      15.899   0.660  -3.762  1.00  0.00     0.259 C 
HETATM   34  O1  UNL     1      14.929   0.582  -4.591  1.00  0.00    -0.265 OA
BRANCH  33  35
HETATM   35  C4  UNL     1      17.219   1.019  -4.295  1.00  0.00     0.117 C 
BRANCH  35  36
HETATM   36  C3  UNL     1      17.809   2.190  -3.513  1.00  0.00     0.061 C 
BRANCH  36  37
HETATM   37  C2  UNL     1      18.834   1.608  -2.609  1.00  0.00    -0.024 C 
HETATM   38  C1  UNL     1      20.236   1.384  -3.123  1.00  0.00     0.062 C 
HETATM   39  N1  UNL     1      18.483   1.313  -1.406  1.00  0.00    -0.406 N 
ATOM     40  H12 UNL     1      19.187   0.913  -0.785  1.00  0.00     0.155 HD
ATOM     41  H11 UNL     1      17.536   1.465  -1.059  1.00  0.00     0.155 HD
ENDBRANCH  36  37
ENDBRANCH  35  36
ENDBRANCH  33  35
ENDBRANCH  32  33
ENDBRANCH   1  32
TORSDOF 13
ENDMDL
