MODEL 1
REMARK VINA RESULT: -6.637875194      0.000      0.000
REMARK  2 active torsions:
REMARK  status: ('A' for Active; 'I' for Inactive)
REMARK       I    between atoms: C1_2  and  N2_4 
REMARK       I    between atoms: N2_4  and  C2_6 
REMARK    1  A    between atoms: C2_6  and  C3_8 
REMARK    2  A    between atoms: C3_8  and  N3_9 
ROOT
HETATM    1  C3  UNL     1      35.411  41.085  25.731  1.00  0.00     0.367 C 
HETATM    2  N4  UNL     1      35.969  41.434  24.467  1.00  0.00    -0.252 N 
ATOM      3  H4  UNL     1      35.747  42.230  23.870  1.00  0.00     0.177 HD
HETATM    4  S1  UNL     1      37.127  40.157  24.198  1.00  0.00     0.324 S 
HETATM    5  O3  UNL     1      38.367  40.706  23.561  1.00  0.00    -0.182 OA
HETATM    6  O4  UNL     1      36.560  39.041  23.416  1.00  0.00    -0.182 OA
HETATM    7  N5  UNL     1      37.394  39.722  25.854  1.00  0.00    -0.233 N 
ATOM      8  H5  UNL     1      38.087  39.071  26.223  1.00  0.00     0.183 HD
HETATM    9  C4  UNL     1      36.439  40.467  26.580  1.00  0.00     0.300 C 
HETATM   10  O5  UNL     1      36.473  40.588  27.823  1.00  0.00    -0.267 OA
ENDROOT
BRANCH   1  11
HETATM   11  C2  UNL     1      34.837  42.292  26.368  1.00  0.00     0.293 C 
HETATM   12  N2  UNL     1      33.782  42.262  27.301  1.00  0.00    -0.277 N 
HETATM   13  C1  UNL     1      33.296  43.456  27.858  1.00  0.00     0.335 C 
ATOM     14  H2  UNL     1      33.370  41.370  27.572  1.00  0.00     0.173 HD
HETATM   15  N1  UNL     1      32.235  43.512  28.807  1.00  0.00    -0.040 NA
HETATM   16  O1  UNL     1      33.793  44.590  27.537  1.00  0.00    -0.251 OA
HETATM   17  O2  UNL     1      35.324  43.408  26.052  1.00  0.00    -0.268 OA
ENDBRANCH   1  11
BRANCH   1  18
HETATM   18  N3  UNL     1      34.364  40.066  25.552  1.00  0.00    -0.034 N 
ATOM     19  H33 UNL     1      33.711  40.047  26.336  1.00  0.00     0.278 HD
ATOM     20  H32 UNL     1      33.706  40.319  24.815  1.00  0.00     0.278 HD
ATOM     21  H31 UNL     1      34.791  39.154  25.388  1.00  0.00     0.278 HD
ENDBRANCH   1  18
TORSDOF 2
ENDMDL
MODEL 2
REMARK VINA RESULT: -6.202935727      3.072      3.451
REMARK  2 active torsions:
REMARK  status: ('A' for Active; 'I' for Inactive)
REMARK       I    between atoms: C1_2  and  N2_4 
REMARK       I    between atoms: N2_4  and  C2_6 
REMARK    1  A    between atoms: C2_6  and  C3_8 
REMARK    2  A    between atoms: C3_8  and  N3_9 
ROOT
HETATM    1  C3  UNL     1      36.944  41.868  26.578  1.00  0.00     0.367 C 
HETATM    2  N4  UNL     1      36.133  41.517  25.460  1.00  0.00    -0.252 N 
ATOM      3  H4  UNL     1      35.533  42.117  24.894  1.00  0.00     0.177 HD
HETATM    4  S1  UNL     1      36.423  39.803  25.304  1.00  0.00     0.324 S 
HETATM    5  O3  UNL     1      36.499  39.419  23.857  1.00  0.00    -0.182 OA
HETATM    6  O4  UNL     1      35.424  38.996  26.031  1.00  0.00    -0.182 OA
HETATM    7  N5  UNL     1      37.979  39.753  26.066  1.00  0.00    -0.233 N 
ATOM      8  H5  UNL     1      38.618  38.960  26.125  1.00  0.00     0.183 HD
HETATM    9  C4  UNL     1      38.166  41.052  26.586  1.00  0.00     0.300 C 
HETATM   10  O5  UNL     1      39.269  41.463  27.009  1.00  0.00    -0.267 OA
ENDROOT
BRANCH   1  11
HETATM   11  C2  UNL     1      37.258  43.314  26.525  1.00  0.00     0.293 C 
HETATM   12  N2  UNL     1      38.090  43.971  27.452  1.00  0.00    -0.277 N 
HETATM   13  C1  UNL     1      38.337  45.348  27.330  1.00  0.00     0.335 C 
ATOM     14  H2  UNL     1      38.514  43.445  28.216  1.00  0.00     0.173 HD
HETATM   15  N1  UNL     1      39.164  46.086  28.223  1.00  0.00    -0.040 NA
HETATM   16  O1  UNL     1      37.819  46.034  26.382  1.00  0.00    -0.251 OA
HETATM   17  O2  UNL     1      36.749  43.990  25.594  1.00  0.00    -0.268 OA
ENDBRANCH   1  11
BRANCH   1  18
HETATM   18  N3  UNL     1      36.236  41.553  27.829  1.00  0.00    -0.034 N 
ATOM     19  H33 UNL     1      36.480  40.629  28.185  1.00  0.00     0.278 HD
ATOM     20  H32 UNL     1      36.580  42.110  28.612  1.00  0.00     0.278 HD
ATOM     21  H31 UNL     1      35.230  41.659  27.696  1.00  0.00     0.278 HD
ENDBRANCH   1  18
TORSDOF 2
ENDMDL
MODEL 3
REMARK VINA RESULT: -6.199393509      2.910      5.628
REMARK  2 active torsions:
REMARK  status: ('A' for Active; 'I' for Inactive)
REMARK       I    between atoms: C1_2  and  N2_4 
REMARK       I    between atoms: N2_4  and  C2_6 
REMARK    1  A    between atoms: C2_6  and  C3_8 
REMARK    2  A    between atoms: C3_8  and  N3_9 
ROOT
HETATM    1  C3  UNL     1      34.285  42.819  27.715  1.00  0.00     0.367 C 
HETATM    2  N4  UNL     1      33.095  42.751  28.497  1.00  0.00    -0.252 N 
ATOM      3  H4  UNL     1      32.289  42.138  28.379  1.00  0.00     0.177 HD
HETATM    4  S1  UNL     1      33.365  43.982  29.705  1.00  0.00     0.324 S 
HETATM    5  O3  UNL     1      32.844  43.528  31.034  1.00  0.00    -0.182 OA
HETATM    6  O4  UNL     1      32.796  45.287  29.312  1.00  0.00    -0.182 OA
HETATM    7  N5  UNL     1      35.097  43.988  29.660  1.00  0.00    -0.233 N 
ATOM      8  H5  UNL     1      35.735  44.486  30.280  1.00  0.00     0.183 HD
HETATM    9  C4  UNL     1      35.431  43.149  28.574  1.00  0.00     0.300 C 
HETATM   10  O5  UNL     1      36.591  42.730  28.370  1.00  0.00    -0.267 OA
ENDROOT
BRANCH   1  11
HETATM   11  C2  UNL     1      34.488  41.531  27.013  1.00  0.00     0.293 C 
HETATM   12  N2  UNL     1      35.441  41.333  25.995  1.00  0.00    -0.277 N 
HETATM   13  C1  UNL     1      35.569  40.078  25.380  1.00  0.00     0.335 C 
ATOM     14  H2  UNL     1      36.041  42.106  25.704  1.00  0.00     0.173 HD
HETATM   15  N1  UNL     1      36.507  39.795  24.346  1.00  0.00    -0.040 NA
HETATM   16  O1  UNL     1      34.831  39.091  25.723  1.00  0.00    -0.251 OA
HETATM   17  O2  UNL     1      33.762  40.560  27.349  1.00  0.00    -0.268 OA
ENDBRANCH   1  11
BRANCH   1  18
HETATM   18  N3  UNL     1      34.180  43.913  26.737  1.00  0.00    -0.034 N 
ATOM     19  H33 UNL     1      35.055  44.429  26.645  1.00  0.00     0.278 HD
ATOM     20  H32 UNL     1      34.112  43.565  25.780  1.00  0.00     0.278 HD
ATOM     21  H31 UNL     1      33.400  44.523  26.979  1.00  0.00     0.278 HD
ENDBRANCH   1  18
TORSDOF 2
ENDMDL
MODEL 4
REMARK VINA RESULT: -6.164872175      2.556      4.335
REMARK  2 active torsions:
REMARK  status: ('A' for Active; 'I' for Inactive)
REMARK       I    between atoms: C1_2  and  N2_4 
REMARK       I    between atoms: N2_4  and  C2_6 
REMARK    1  A    between atoms: C2_6  and  C3_8 
REMARK    2  A    between atoms: C3_8  and  N3_9 
ROOT
HETATM    1  C3  UNL     1      36.743  40.653  25.484  1.00  0.00     0.367 C 
HETATM    2  N4  UNL     1      37.441  41.799  25.006  1.00  0.00    -0.252 N 
ATOM      3  H4  UNL     1      37.681  42.046  24.046  1.00  0.00     0.177 HD
HETATM    4  S1  UNL     1      37.784  42.675  26.477  1.00  0.00     0.324 S 
HETATM    5  O3  UNL     1      37.631  44.148  26.251  1.00  0.00    -0.182 OA
HETATM    6  O4  UNL     1      39.112  42.343  27.031  1.00  0.00    -0.182 OA
HETATM    7  N5  UNL     1      36.496  42.034  27.443  1.00  0.00    -0.233 N 
ATOM      8  H5  UNL     1      36.213  42.328  28.378  1.00  0.00     0.183 HD
HETATM    9  C4  UNL     1      35.926  41.014  26.651  1.00  0.00     0.300 C 
HETATM   10  O5  UNL     1      34.830  40.476  26.921  1.00  0.00    -0.267 OA
ENDROOT
BRANCH   1  11
HETATM   11  C2  UNL     1      35.912  40.091  24.394  1.00  0.00     0.293 C 
HETATM   12  N2  UNL     1      34.609  40.533  24.093  1.00  0.00    -0.277 N 
HETATM   13  C1  UNL     1      33.889  39.945  23.040  1.00  0.00     0.335 C 
ATOM     14  H2  UNL     1      34.188  41.282  24.641  1.00  0.00     0.173 HD
HETATM   15  N1  UNL     1      32.569  40.333  22.671  1.00  0.00    -0.040 NA
HETATM   16  O1  UNL     1      34.391  39.003  22.335  1.00  0.00    -0.251 OA
HETATM   17  O2  UNL     1      36.405  39.165  23.701  1.00  0.00    -0.268 OA
ENDBRANCH   1  11
BRANCH   1  18
HETATM   18  N3  UNL     1      37.702  39.642  25.956  1.00  0.00    -0.034 N 
ATOM     19  H33 UNL     1      37.773  39.627  26.973  1.00  0.00     0.278 HD
ATOM     20  H32 UNL     1      37.356  38.692  25.816  1.00  0.00     0.278 HD
ATOM     21  H31 UNL     1      38.609  39.788  25.511  1.00  0.00     0.278 HD
ENDBRANCH   1  18
TORSDOF 2
ENDMDL
MODEL 5
REMARK VINA RESULT: -6.127222096      2.586      5.413
REMARK  2 active torsions:
REMARK  status: ('A' for Active; 'I' for Inactive)
REMARK       I    between atoms: C1_2  and  N2_4 
REMARK       I    between atoms: N2_4  and  C2_6 
REMARK    1  A    between atoms: C2_6  and  C3_8 
REMARK    2  A    between atoms: C3_8  and  N3_9 
ROOT
HETATM    1  C3  UNL     1      35.006  42.789  26.982  1.00  0.00     0.367 C 
HETATM    2  N4  UNL     1      33.636  42.549  27.288  1.00  0.00    -0.252 N 
ATOM      3  H4  UNL     1      32.952  42.000  26.767  1.00  0.00     0.177 HD
HETATM    4  S1  UNL     1      33.420  43.431  28.779  1.00  0.00     0.324 S 
HETATM    5  O3  UNL     1      32.529  42.666  29.710  1.00  0.00    -0.182 OA
HETATM    6  O4  UNL     1      32.924  44.802  28.553  1.00  0.00    -0.182 OA
HETATM    7  N5  UNL     1      35.070  43.415  29.308  1.00  0.00    -0.233 N 
ATOM      8  H5  UNL     1      35.439  43.728  30.206  1.00  0.00     0.183 HD
HETATM    9  C4  UNL     1      35.790  42.870  28.223  1.00  0.00     0.300 C 
HETATM   10  O5  UNL     1      36.979  42.495  28.315  1.00  0.00    -0.267 OA
ENDROOT
BRANCH   1  11
HETATM   11  C2  UNL     1      35.509  41.716  26.094  1.00  0.00     0.293 C 
HETATM   12  N2  UNL     1      36.698  41.809  25.346  1.00  0.00    -0.277 N 
HETATM   13  C1  UNL     1      37.104  40.743  24.527  1.00  0.00     0.335 C 
ATOM     14  H2  UNL     1      37.267  42.654  25.399  1.00  0.00     0.173 HD
HETATM   15  N1  UNL     1      38.291  40.757  23.740  1.00  0.00    -0.040 NA
HETATM   16  O1  UNL     1      36.411  39.671  24.439  1.00  0.00    -0.251 OA
HETATM   17  O2  UNL     1      34.828  40.662  26.007  1.00  0.00    -0.268 OA
ENDBRANCH   1  11
BRANCH   1  18
HETATM   18  N3  UNL     1      35.151  44.096  26.322  1.00  0.00    -0.034 N 
ATOM     19  H33 UNL     1      35.477  44.004  25.360  1.00  0.00     0.278 HD
ATOM     20  H32 UNL     1      34.248  44.531  26.133  1.00  0.00     0.278 HD
ATOM     21  H31 UNL     1      35.759  44.700  26.876  1.00  0.00     0.278 HD
ENDBRANCH   1  18
TORSDOF 2
ENDMDL
