MODEL 1
REMARK VINA RESULT: -6.319901927      0.000      0.000
REMARK  3 active torsions:
REMARK  status: ('A' for Active; 'I' for Inactive)
REMARK    1  A    between atoms: C2_3  and  N2_4 
REMARK    2  A    between atoms: N2_4  and  N3_6 
REMARK       I    between atoms: N5_13  and  C5_14 
REMARK    3  A    between atoms: C6_17  and  C7_18 
ROOT
HETATM    1  C1  UNL     1      37.436  42.353  24.140  1.00  0.00     0.171 C 
HETATM    2  N1  UNL     1      36.932  41.473  25.202  1.00  0.00    -0.191 N 
HETATM    3  C2  UNL     1      36.737  40.106  24.881  1.00  0.00     0.692 C 
HETATM    4  N4  UNL     1      36.046  39.252  25.546  1.00  0.00    -0.223 N 
ATOM      5  H4  UNL     1      36.045  38.321  25.130  1.00  0.00     0.177 HD
HETATM    6  C3  UNL     1      35.279  39.335  26.747  1.00  0.00     0.158 C 
HETATM    7  C4  UNL     1      34.538  40.627  26.924  1.00  0.00     0.150 C 
HETATM    8  N5  UNL     1      35.360  41.788  26.989  1.00  0.00    -0.305 N 
HETATM    9  C5  UNL     1      34.788  42.863  27.687  1.00  0.00     0.333 C 
HETATM   10  N6  UNL     1      33.500  42.732  28.252  1.00  0.00    -0.040 NA
HETATM   11  O1  UNL     1      35.400  43.940  27.819  1.00  0.00    -0.251 OA
HETATM   12  C6  UNL     1      36.684  42.102  26.478  1.00  0.00     0.297 C 
ENDROOT
BRANCH   3  13
HETATM   13  N2  UNL     1      37.398  39.694  23.693  1.00  0.00    -0.139 N 
ATOM     14  H2  UNL     1      38.371  39.957  23.538  1.00  0.00     0.205 HD
BRANCH  13  15
HETATM   15  N3  UNL     1      36.722  38.930  22.732  1.00  0.00    -0.331 N 
ATOM     16  H32 UNL     1      36.885  37.924  22.702  1.00  0.00     0.177 HD
ATOM     17  H31 UNL     1      36.080  39.375  22.077  1.00  0.00     0.177 HD
ENDBRANCH  13  15
ENDBRANCH   3  13
BRANCH  12  18
HETATM   18  C7  UNL     1      37.674  41.552  27.445  1.00  0.00     0.274 C 
HETATM   19  N7  UNL     1      39.045  41.362  27.114  1.00  0.00    -0.059 NA
HETATM   20  O2  UNL     1      37.345  41.220  28.632  1.00  0.00    -0.273 OA
ENDBRANCH  12  18
TORSDOF 3
ENDMDL
MODEL 2
REMARK VINA RESULT: -6.160949238      2.682      4.670
REMARK  3 active torsions:
REMARK  status: ('A' for Active; 'I' for Inactive)
REMARK    1  A    between atoms: C2_3  and  N2_4 
REMARK    2  A    between atoms: N2_4  and  N3_6 
REMARK       I    between atoms: N5_13  and  C5_14 
REMARK    3  A    between atoms: C6_17  and  C7_18 
ROOT
HETATM    1  C1  UNL     1      34.867  44.561  29.294  1.00  0.00     0.171 C 
HETATM    2  N1  UNL     1      35.062  43.599  28.202  1.00  0.00    -0.191 N 
HETATM    3  C2  UNL     1      33.933  42.858  27.773  1.00  0.00     0.692 C 
HETATM    4  N4  UNL     1      33.941  41.787  27.064  1.00  0.00    -0.223 N 
ATOM      5  H4  UNL     1      33.009  41.423  26.872  1.00  0.00     0.177 HD
HETATM    6  C3  UNL     1      34.984  41.002  26.488  1.00  0.00     0.158 C 
HETATM    7  C4  UNL     1      36.220  40.894  27.331  1.00  0.00     0.150 C 
HETATM    8  N5  UNL     1      36.868  42.132  27.609  1.00  0.00    -0.305 N 
HETATM    9  C5  UNL     1      38.241  42.017  27.879  1.00  0.00     0.333 C 
HETATM   10  N6  UNL     1      38.860  40.748  27.859  1.00  0.00    -0.040 NA
HETATM   11  O1  UNL     1      38.929  43.022  28.139  1.00  0.00    -0.251 OA
HETATM   12  C6  UNL     1      36.404  43.508  27.675  1.00  0.00     0.297 C 
ENDROOT
BRANCH   3  13
HETATM   13  N2  UNL     1      32.692  43.402  28.200  1.00  0.00    -0.139 N 
ATOM     14  H2  UNL     1      32.421  44.339  27.902  1.00  0.00     0.205 HD
BRANCH  13  15
HETATM   15  N3  UNL     1      31.839  42.661  29.028  1.00  0.00    -0.331 N 
ATOM     16  H32 UNL     1      31.730  41.662  28.853  1.00  0.00     0.177 HD
ATOM     17  H31 UNL     1      31.336  43.115  29.791  1.00  0.00     0.177 HD
ENDBRANCH  13  15
ENDBRANCH   3  13
BRANCH  12  18
HETATM   18  C7  UNL     1      36.371  44.031  26.280  1.00  0.00     0.274 C 
HETATM   19  N7  UNL     1      35.924  45.344  25.965  1.00  0.00    -0.059 NA
HETATM   20  O2  UNL     1      36.743  43.325  25.286  1.00  0.00    -0.273 OA
ENDBRANCH  12  18
TORSDOF 3
ENDMDL
MODEL 3
REMARK VINA RESULT: -6.073979928      1.675      1.733
REMARK  3 active torsions:
REMARK  status: ('A' for Active; 'I' for Inactive)
REMARK    1  A    between atoms: C2_3  and  N2_4 
REMARK    2  A    between atoms: N2_4  and  N3_6 
REMARK       I    between atoms: N5_13  and  C5_14 
REMARK    3  A    between atoms: C6_17  and  C7_18 
ROOT
HETATM    1  C1  UNL     1      38.533  41.879  23.443  1.00  0.00     0.171 C 
HETATM    2  N1  UNL     1      37.634  41.580  24.566  1.00  0.00    -0.191 N 
HETATM    3  C2  UNL     1      36.858  40.397  24.485  1.00  0.00     0.692 C 
HETATM    4  N4  UNL     1      35.823  40.109  25.190  1.00  0.00    -0.223 N 
ATOM      5  H4  UNL     1      35.421  39.199  24.963  1.00  0.00     0.177 HD
HETATM    6  C3  UNL     1      35.119  40.795  26.225  1.00  0.00     0.158 C 
HETATM    7  C4  UNL     1      35.036  42.281  26.040  1.00  0.00     0.150 C 
HETATM    8  N5  UNL     1      36.290  42.954  26.005  1.00  0.00    -0.305 N 
HETATM    9  C5  UNL     1      36.233  44.303  26.392  1.00  0.00     0.333 C 
HETATM   10  N6  UNL     1      35.000  44.876  26.772  1.00  0.00    -0.040 NA
HETATM   11  O1  UNL     1      37.259  45.010  26.407  1.00  0.00    -0.251 OA
HETATM   12  C6  UNL     1      37.636  42.538  25.647  1.00  0.00     0.297 C 
ENDROOT
BRANCH   3  13
HETATM   13  N2  UNL     1      37.317  39.473  23.510  1.00  0.00    -0.139 N 
ATOM     14  H2  UNL     1      38.310  39.247  23.455  1.00  0.00     0.205 HD
BRANCH  13  15
HETATM   15  N3  UNL     1      36.417  38.871  22.622  1.00  0.00    -0.331 N 
ATOM     16  H32 UNL     1      35.653  38.311  23.002  1.00  0.00     0.177 HD
ATOM     17  H31 UNL     1      36.525  38.991  21.615  1.00  0.00     0.177 HD
ENDBRANCH  13  15
ENDBRANCH   3  13
BRANCH  12  18
HETATM   18  C7  UNL     1      38.222  41.863  26.839  1.00  0.00     0.274 C 
HETATM   19  N7  UNL     1      37.690  42.024  28.149  1.00  0.00    -0.059 NA
HETATM   20  O2  UNL     1      39.238  41.098  26.750  1.00  0.00    -0.273 OA
ENDBRANCH  12  18
TORSDOF 3
ENDMDL
MODEL 4
REMARK VINA RESULT: -6.051488606      2.330      3.779
REMARK  3 active torsions:
REMARK  status: ('A' for Active; 'I' for Inactive)
REMARK    1  A    between atoms: C2_3  and  N2_4 
REMARK    2  A    between atoms: N2_4  and  N3_6 
REMARK       I    between atoms: N5_13  and  C5_14 
REMARK    3  A    between atoms: C6_17  and  C7_18 
ROOT
HETATM    1  C1  UNL     1      34.243  43.439  26.523  1.00  0.00     0.171 C 
HETATM    2  N1  UNL     1      35.362  42.488  26.570  1.00  0.00    -0.191 N 
HETATM    3  C2  UNL     1      35.103  41.200  27.103  1.00  0.00     0.692 C 
HETATM    4  N4  UNL     1      35.975  40.345  27.501  1.00  0.00    -0.223 N 
ATOM      5  H4  UNL     1      35.563  39.479  27.848  1.00  0.00     0.177 HD
HETATM    6  C3  UNL     1      37.401  40.353  27.558  1.00  0.00     0.158 C 
HETATM    7  C4  UNL     1      38.001  41.682  27.911  1.00  0.00     0.150 C 
HETATM    8  N5  UNL     1      37.711  42.735  26.996  1.00  0.00    -0.305 N 
HETATM    9  C5  UNL     1      38.664  43.766  26.982  1.00  0.00     0.333 C 
HETATM   10  N6  UNL     1      39.791  43.698  27.830  1.00  0.00    -0.040 NA
HETATM   11  O1  UNL     1      38.533  44.749  26.227  1.00  0.00    -0.251 OA
HETATM   12  C6  UNL     1      36.623  42.973  26.062  1.00  0.00     0.297 C 
ENDROOT
BRANCH   3  13
HETATM   13  N2  UNL     1      33.723  40.876  27.181  1.00  0.00    -0.139 N 
ATOM     14  H2  UNL     1      33.061  41.564  27.540  1.00  0.00     0.205 HD
BRANCH  13  15
HETATM   15  N3  UNL     1      33.263  39.619  26.768  1.00  0.00    -0.331 N 
ATOM     16  H32 UNL     1      33.637  38.786  27.222  1.00  0.00     0.177 HD
ATOM     17  H31 UNL     1      32.568  39.541  26.026  1.00  0.00     0.177 HD
ENDBRANCH  13  15
ENDBRANCH   3  13
BRANCH  12  18
HETATM   18  C7  UNL     1      36.929  42.206  24.822  1.00  0.00     0.274 C 
HETATM   19  N7  UNL     1      38.112  42.418  24.062  1.00  0.00    -0.059 NA
HETATM   20  O2  UNL     1      36.140  41.311  24.371  1.00  0.00    -0.273 OA
ENDBRANCH  12  18
TORSDOF 3
ENDMDL
MODEL 5
REMARK VINA RESULT: -5.992955452      2.088      2.554
REMARK  3 active torsions:
REMARK  status: ('A' for Active; 'I' for Inactive)
REMARK    1  A    between atoms: C2_3  and  N2_4 
REMARK    2  A    between atoms: N2_4  and  N3_6 
REMARK       I    between atoms: N5_13  and  C5_14 
REMARK    3  A    between atoms: C6_17  and  C7_18 
ROOT
HETATM    1  C1  UNL     1      38.164  41.738  24.321  1.00  0.00     0.171 C 
HETATM    2  N1  UNL     1      37.481  41.950  25.604  1.00  0.00    -0.191 N 
HETATM    3  C2  UNL     1      36.526  40.982  26.004  1.00  0.00     0.692 C 
HETATM    4  N4  UNL     1      35.628  41.119  26.912  1.00  0.00    -0.223 N 
ATOM      5  H4  UNL     1      35.048  40.290  27.035  1.00  0.00     0.177 HD
HETATM    6  C3  UNL     1      35.273  42.191  27.785  1.00  0.00     0.158 C 
HETATM    7  C4  UNL     1      35.391  43.556  27.174  1.00  0.00     0.150 C 
HETATM    8  N5  UNL     1      36.702  43.912  26.746  1.00  0.00    -0.305 N 
HETATM    9  C5  UNL     1      36.942  45.295  26.711  1.00  0.00     0.333 C 
HETATM   10  N6  UNL     1      35.923  46.198  27.083  1.00  0.00    -0.040 NA
HETATM   11  O1  UNL     1      38.048  45.745  26.355  1.00  0.00    -0.251 OA
HETATM   12  C6  UNL     1      37.861  43.138  26.331  1.00  0.00     0.297 C 
ENDROOT
BRANCH   3  13
HETATM   13  N2  UNL     1      36.620  39.754  25.296  1.00  0.00    -0.139 N 
ATOM     14  H2  UNL     1      36.254  39.688  24.347  1.00  0.00     0.205 HD
BRANCH  13  15
HETATM   15  N3  UNL     1      37.212  38.633  25.893  1.00  0.00    -0.331 N 
ATOM     16  H32 UNL     1      37.875  38.775  26.656  1.00  0.00     0.177 HD
ATOM     17  H31 UNL     1      36.983  37.694  25.569  1.00  0.00     0.177 HD
ENDBRANCH  13  15
ENDBRANCH   3  13
BRANCH  12  18
HETATM   18  C7  UNL     1      38.565  42.698  27.568  1.00  0.00     0.274 C 
HETATM   19  N7  UNL     1      38.779  41.327  27.880  1.00  0.00    -0.059 NA
HETATM   20  O2  UNL     1      39.018  43.532  28.419  1.00  0.00    -0.273 OA
ENDBRANCH  12  18
TORSDOF 3
ENDMDL
