MODEL 1
REMARK VINA RESULT: -7.102056634      0.000      0.000
REMARK  4 active torsions:
REMARK  status: ('A' for Active; 'I' for Inactive)
REMARK    1  A    between atoms: N1_1  and  C1_4 
REMARK    2  A    between atoms: C3_11  and  C4_12 
REMARK       I    between atoms: C4_12  and  N4_14 
REMARK    3  A    between atoms: N5_19  and  N6_20 
REMARK    4  A    between atoms: N7_23  and  O3_24 
ROOT
HETATM    1  C1  UNL     1      37.102  39.773  26.328  1.00  0.00     0.694 A 
HETATM    2  N2  UNL     1      35.907  40.300  26.012  1.00  0.00    -0.173 N 
ATOM      3  H2  UNL     1      35.246  39.780  25.436  1.00  0.00     0.186 HD
HETATM    4  C2  UNL     1      35.600  41.523  26.470  1.00  0.00     0.151 A 
HETATM    5  N3  UNL     1      34.457  42.088  26.197  1.00  0.00    -0.383 N 
ATOM      6  H31 UNL     1      34.224  43.018  26.545  1.00  0.00     0.157 HD
ATOM      7  H32 UNL     1      33.816  41.545  25.619  1.00  0.00     0.157 HD
HETATM    8  C3  UNL     1      36.475  42.264  27.258  1.00  0.00     0.193 A 
HETATM    9  N7  UNL     1      37.660  41.662  27.531  1.00  0.00    -0.140 N 
HETATM   10  N8  UNL     1      37.973  40.460  27.088  1.00  0.00    -0.105 N 
ATOM     11  H8  UNL     1      38.877  40.051  27.322  1.00  0.00     0.208 HD
ENDROOT
BRANCH   8  12
HETATM   12  C4  UNL     1      36.143  43.585  27.751  1.00  0.00     0.283 C 
HETATM   13  O1  UNL     1      36.051  44.526  26.939  1.00  0.00    -0.265 OA
HETATM   14  N4  UNL     1      35.928  43.808  29.110  1.00  0.00    -0.286 N 
HETATM   15  C5  UNL     1      34.798  44.190  29.620  1.00  0.00     0.246 C 
ATOM     16  H4  UNL     1      36.712  43.662  29.745  1.00  0.00     0.172 HD
HETATM   17  O2  UNL     1      33.512  44.505  29.205  1.00  0.00    -0.299 OA
HETATM   18  N5  UNL     1      34.383  44.467  30.952  1.00  0.00    -0.238 N 
HETATM   19  C6  UNL     1      33.047  44.133  30.511  1.00  0.00     0.331 C 
BRANCH  18  20
HETATM   20  N6  UNL     1      35.045  44.875  32.098  1.00  0.00    -0.338 N 
ATOM     21  H62 UNL     1      34.930  44.853  33.111  1.00  0.00     0.177 HD
ATOM     22  H61 UNL     1      35.924  45.362  32.272  1.00  0.00     0.177 HD
ENDBRANCH  18  20
ENDBRANCH   8  12
BRANCH   9  23
HETATM   23  O3  UNL     1      38.593  42.321  28.308  1.00  0.00    -0.267 OA
ATOM     24  H3  UNL     1      39.502  42.338  28.032  1.00  0.00     0.247 HD
ENDBRANCH   9  23
BRANCH   1  25
HETATM   25  N1  UNL     1      37.353  38.593  25.866  1.00  0.00    -0.233 N 
ATOM     26  H12 UNL     1      37.156  38.321  24.902  1.00  0.00     0.174 HD
ATOM     27  H11 UNL     1      37.765  37.926  26.518  1.00  0.00     0.174 HD
ENDBRANCH   1  25
TORSDOF 4
ENDMDL
MODEL 2
REMARK VINA RESULT: -7.099180809      2.864      4.044
REMARK  4 active torsions:
REMARK  status: ('A' for Active; 'I' for Inactive)
REMARK    1  A    between atoms: N1_1  and  C1_4 
REMARK    2  A    between atoms: C3_11  and  C4_12 
REMARK       I    between atoms: C4_12  and  N4_14 
REMARK    3  A    between atoms: N5_19  and  N6_20 
REMARK    4  A    between atoms: N7_23  and  O3_24 
ROOT
HETATM    1  C1  UNL     1      35.125  40.720  24.650  1.00  0.00     0.694 A 
HETATM    2  N2  UNL     1      36.418  40.397  24.477  1.00  0.00    -0.173 N 
ATOM      3  H2  UNL     1      36.730  39.943  23.619  1.00  0.00     0.186 HD
HETATM    4  C2  UNL     1      37.290  40.684  25.455  1.00  0.00     0.151 A 
HETATM    5  N3  UNL     1      38.557  40.395  25.347  1.00  0.00    -0.383 N 
ATOM      6  H31 UNL     1      39.220  40.613  26.092  1.00  0.00     0.157 HD
ATOM      7  H32 UNL     1      38.840  39.941  24.479  1.00  0.00     0.157 HD
HETATM    8  C3  UNL     1      36.903  41.303  26.640  1.00  0.00     0.193 A 
HETATM    9  N7  UNL     1      35.581  41.595  26.736  1.00  0.00    -0.140 N 
HETATM   10  N8  UNL     1      34.715  41.319  25.781  1.00  0.00    -0.105 N 
ATOM     11  H8  UNL     1      33.731  41.560  25.902  1.00  0.00     0.208 HD
ENDROOT
BRANCH   8  12
HETATM   12  C4  UNL     1      37.845  41.611  27.695  1.00  0.00     0.283 C 
HETATM   13  O1  UNL     1      38.689  40.753  28.020  1.00  0.00    -0.265 OA
HETATM   14  N4  UNL     1      37.816  42.845  28.343  1.00  0.00    -0.286 N 
HETATM   15  C5  UNL     1      38.776  43.716  28.302  1.00  0.00     0.246 C 
ATOM     16  H4  UNL     1      36.984  43.077  28.884  1.00  0.00     0.172 HD
HETATM   17  O2  UNL     1      40.035  43.866  27.739  1.00  0.00    -0.299 OA
HETATM   18  N5  UNL     1      38.936  45.005  28.882  1.00  0.00    -0.238 N 
HETATM   19  C6  UNL     1      39.840  45.287  27.789  1.00  0.00     0.331 C 
BRANCH  18  20
HETATM   20  N6  UNL     1      38.413  45.625  30.005  1.00  0.00    -0.338 N 
ATOM     21  H62 UNL     1      38.531  45.624  31.019  1.00  0.00     0.177 HD
ATOM     22  H61 UNL     1      37.689  46.327  30.153  1.00  0.00     0.177 HD
ENDBRANCH  18  20
ENDBRANCH   8  12
BRANCH   9  23
HETATM   23  O3  UNL     1      35.104  42.211  27.876  1.00  0.00    -0.267 OA
ATOM     24  H3  UNL     1      35.718  42.502  28.541  1.00  0.00     0.247 HD
ENDBRANCH   9  23
BRANCH   1  25
HETATM   25  N1  UNL     1      34.323  40.426  23.680  1.00  0.00    -0.233 N 
ATOM     26  H12 UNL     1      33.930  41.127  23.052  1.00  0.00     0.174 HD
ATOM     27  H11 UNL     1      34.092  39.439  23.564  1.00  0.00     0.174 HD
ENDBRANCH   1  25
TORSDOF 4
ENDMDL
MODEL 3
REMARK VINA RESULT: -7.085670459      3.148      4.102
REMARK  4 active torsions:
REMARK  status: ('A' for Active; 'I' for Inactive)
REMARK    1  A    between atoms: N1_1  and  C1_4 
REMARK    2  A    between atoms: C3_11  and  C4_12 
REMARK       I    between atoms: C4_12  and  N4_14 
REMARK    3  A    between atoms: N5_19  and  N6_20 
REMARK    4  A    between atoms: N7_23  and  O3_24 
ROOT
HETATM    1  C1  UNL     1      34.054  39.768  26.332  1.00  0.00     0.694 A 
HETATM    2  N2  UNL     1      35.117  38.960  26.173  1.00  0.00    -0.173 N 
ATOM      3  H2  UNL     1      34.992  37.957  26.041  1.00  0.00     0.186 HD
HETATM    4  C2  UNL     1      36.345  39.500  26.191  1.00  0.00     0.151 A 
HETATM    5  N3  UNL     1      37.414  38.769  26.043  1.00  0.00    -0.383 N 
ATOM      6  H31 UNL     1      38.349  39.180  26.057  1.00  0.00     0.157 HD
ATOM      7  H32 UNL     1      37.260  37.770  25.913  1.00  0.00     0.157 HD
HETATM    8  C3  UNL     1      36.556  40.864  26.369  1.00  0.00     0.193 A 
HETATM    9  N7  UNL     1      35.433  41.609  26.523  1.00  0.00    -0.140 N 
HETATM   10  N8  UNL     1      34.221  41.091  26.506  1.00  0.00    -0.105 N 
ATOM     11  H8  UNL     1      33.408  41.694  26.625  1.00  0.00     0.208 HD
ENDROOT
BRANCH   8  12
HETATM   12  C4  UNL     1      37.883  41.445  26.389  1.00  0.00     0.283 C 
HETATM   13  O1  UNL     1      38.658  41.210  25.443  1.00  0.00    -0.265 OA
HETATM   14  N4  UNL     1      38.293  42.255  27.446  1.00  0.00    -0.286 N 
HETATM   15  C5  UNL     1      38.597  43.511  27.332  1.00  0.00     0.246 C 
ATOM     16  H4  UNL     1      38.358  41.832  28.371  1.00  0.00     0.172 HD
HETATM   17  O2  UNL     1      38.665  44.490  26.350  1.00  0.00    -0.299 OA
HETATM   18  N5  UNL     1      39.028  44.490  28.269  1.00  0.00    -0.238 N 
HETATM   19  C6  UNL     1      38.450  45.470  27.376  1.00  0.00     0.331 C 
BRANCH  18  20
HETATM   20  N6  UNL     1      39.702  44.431  29.478  1.00  0.00    -0.338 N 
ATOM     21  H62 UNL     1      40.197  45.048  30.122  1.00  0.00     0.177 HD
ATOM     22  H61 UNL     1      39.916  43.679  30.132  1.00  0.00     0.177 HD
ENDBRANCH  18  20
ENDBRANCH   8  12
BRANCH   9  23
HETATM   23  O3  UNL     1      35.544  42.974  26.704  1.00  0.00    -0.267 OA
ATOM     24  H3  UNL     1      35.332  43.350  27.551  1.00  0.00     0.247 HD
ENDBRANCH   9  23
BRANCH   1  25
HETATM   25  N1  UNL     1      32.892  39.203  26.306  1.00  0.00    -0.233 N 
ATOM     26  H12 UNL     1      32.279  39.158  27.120  1.00  0.00     0.174 HD
ATOM     27  H11 UNL     1      32.604  38.794  25.418  1.00  0.00     0.174 HD
ENDBRANCH   1  25
TORSDOF 4
ENDMDL
MODEL 4
REMARK VINA RESULT: -6.959192667      1.845      2.259
REMARK  4 active torsions:
REMARK  status: ('A' for Active; 'I' for Inactive)
REMARK    1  A    between atoms: N1_1  and  C1_4 
REMARK    2  A    between atoms: C3_11  and  C4_12 
REMARK       I    between atoms: C4_12  and  N4_14 
REMARK    3  A    between atoms: N5_19  and  N6_20 
REMARK    4  A    between atoms: N7_23  and  O3_24 
ROOT
HETATM    1  C1  UNL     1      36.544  39.606  26.334  1.00  0.00     0.694 A 
HETATM    2  N2  UNL     1      37.191  40.784  26.310  1.00  0.00    -0.173 N 
ATOM      3  H2  UNL     1      38.168  40.834  26.021  1.00  0.00     0.186 HD
HETATM    4  C2  UNL     1      36.527  41.893  26.671  1.00  0.00     0.151 A 
HETATM    5  N3  UNL     1      37.099  43.063  26.669  1.00  0.00    -0.383 N 
ATOM      6  H31 UNL     1      36.594  43.906  26.944  1.00  0.00     0.157 HD
ATOM      7  H32 UNL     1      38.076  43.084  26.376  1.00  0.00     0.157 HD
HETATM    8  C3  UNL     1      35.194  41.864  27.071  1.00  0.00     0.193 A 
HETATM    9  N7  UNL     1      34.614  40.638  27.069  1.00  0.00    -0.140 N 
HETATM   10  N8  UNL     1      35.256  39.542  26.715  1.00  0.00    -0.105 N 
ATOM     11  H8  UNL     1      34.774  38.643  26.730  1.00  0.00     0.208 HD
ENDROOT
BRANCH   8  12
HETATM   12  C4  UNL     1      34.478  43.061  27.462  1.00  0.00     0.283 C 
HETATM   13  O1  UNL     1      33.864  43.708  26.591  1.00  0.00    -0.265 OA
HETATM   14  N4  UNL     1      34.472  43.490  28.788  1.00  0.00    -0.286 N 
HETATM   15  C5  UNL     1      33.411  43.558  29.531  1.00  0.00     0.246 C 
ATOM     16  H4  UNL     1      35.361  43.769  29.201  1.00  0.00     0.172 HD
HETATM   17  O2  UNL     1      32.049  43.306  29.442  1.00  0.00    -0.299 OA
HETATM   18  N5  UNL     1      33.199  43.960  30.878  1.00  0.00    -0.238 N 
HETATM   19  C6  UNL     1      32.041  43.094  30.861  1.00  0.00     0.331 C 
BRANCH  18  20
HETATM   20  N6  UNL     1      33.865  44.815  31.742  1.00  0.00    -0.338 N 
ATOM     21  H62 UNL     1      33.718  45.701  32.224  1.00  0.00     0.177 HD
ATOM     22  H61 UNL     1      34.784  44.798  32.184  1.00  0.00     0.177 HD
ENDBRANCH  18  20
ENDBRANCH   8  12
BRANCH   9  23
HETATM   23  O3  UNL     1      33.292  40.512  27.450  1.00  0.00    -0.267 OA
ATOM     24  H3  UNL     1      32.730  39.900  26.989  1.00  0.00     0.247 HD
ENDBRANCH   9  23
BRANCH   1  25
HETATM   25  N1  UNL     1      37.224  38.568  25.977  1.00  0.00    -0.233 N 
ATOM     26  H12 UNL     1      37.395  38.325  25.001  1.00  0.00     0.174 HD
ATOM     27  H11 UNL     1      37.594  37.985  26.728  1.00  0.00     0.174 HD
ENDBRANCH   1  25
TORSDOF 4
ENDMDL
MODEL 5
REMARK VINA RESULT: -6.724850888      2.088      5.921
REMARK  4 active torsions:
REMARK  status: ('A' for Active; 'I' for Inactive)
REMARK    1  A    between atoms: N1_1  and  C1_4 
REMARK    2  A    between atoms: C3_11  and  C4_12 
REMARK       I    between atoms: C4_12  and  N4_14 
REMARK    3  A    between atoms: N5_19  and  N6_20 
REMARK    4  A    between atoms: N7_23  and  O3_24 
ROOT
HETATM    1  C1  UNL     1      33.941  44.347  30.432  1.00  0.00     0.694 A 
HETATM    2  N2  UNL     1      35.257  44.314  30.157  1.00  0.00    -0.173 N 
ATOM      3  H2  UNL     1      35.946  44.427  30.900  1.00  0.00     0.186 HD
HETATM    4  C2  UNL     1      35.645  44.129  28.886  1.00  0.00     0.151 A 
HETATM    5  N3  UNL     1      36.905  44.089  28.555  1.00  0.00    -0.383 N 
ATOM      6  H31 UNL     1      37.200  43.949  27.588  1.00  0.00     0.157 HD
ATOM      7  H32 UNL     1      37.572  44.205  29.318  1.00  0.00     0.157 HD
HETATM    8  C3  UNL     1      34.734  43.972  27.846  1.00  0.00     0.193 A 
HETATM    9  N7  UNL     1      33.427  44.018  28.207  1.00  0.00    -0.140 N 
HETATM   10  N8  UNL     1      33.034  44.198  29.452  1.00  0.00    -0.105 N 
ATOM     11  H8  UNL     1      32.038  44.224  29.672  1.00  0.00     0.208 HD
ENDROOT
BRANCH   8  12
HETATM   12  C4  UNL     1      35.154  43.773  26.474  1.00  0.00     0.283 C 
HETATM   13  O1  UNL     1      35.959  44.578  25.967  1.00  0.00    -0.265 OA
HETATM   14  N4  UNL     1      34.670  42.702  25.725  1.00  0.00    -0.286 N 
HETATM   15  C5  UNL     1      35.406  41.737  25.266  1.00  0.00     0.246 C 
ATOM     16  H4  UNL     1      33.671  42.674  25.526  1.00  0.00     0.172 HD
HETATM   17  O2  UNL     1      36.736  41.340  25.265  1.00  0.00    -0.299 OA
HETATM   18  N5  UNL     1      35.110  40.578  24.497  1.00  0.00    -0.238 N 
HETATM   19  C6  UNL     1      36.285  39.987  25.099  1.00  0.00     0.331 C 
BRANCH  18  20
HETATM   20  N6  UNL     1      34.111  40.253  23.594  1.00  0.00    -0.338 N 
ATOM     21  H62 UNL     1      33.232  39.737  23.560  1.00  0.00     0.177 HD
ATOM     22  H61 UNL     1      33.956  40.459  22.607  1.00  0.00     0.177 HD
ENDBRANCH  18  20
ENDBRANCH   8  12
BRANCH   9  23
HETATM   23  O3  UNL     1      32.451  43.870  27.241  1.00  0.00    -0.267 OA
ATOM     24  H3  UNL     1      32.658  44.064  26.335  1.00  0.00     0.247 HD
ENDBRANCH   9  23
BRANCH   1  25
HETATM   25  N1  UNL     1      33.616  44.526  31.670  1.00  0.00    -0.233 N 
ATOM     26  H12 UNL     1      32.958  43.923  32.164  1.00  0.00     0.174 HD
ATOM     27  H11 UNL     1      34.055  45.314  32.147  1.00  0.00     0.174 HD
ENDBRANCH   1  25
TORSDOF 4
ENDMDL
