MODEL 1
REMARK VINA RESULT: -7.755235607      0.000      0.000
REMARK  12 active torsions:
REMARK  status: ('A' for Active; 'I' for Inactive)
REMARK    1  A    between atoms: C2_2  and  C3_3 
REMARK    2  A    between atoms: C3_3  and  N1_4 
REMARK    3  A    between atoms: N1_4  and  C4_5 
REMARK    4  A    between atoms: N1_4  and  S1_10 
REMARK    5  A    between atoms: C4_5  and  C5_6 
REMARK    6  A    between atoms: S1_10  and  C9_12 
REMARK    7  A    between atoms: S1_10  and  N4_18 
REMARK    8  A    between atoms: C9_12  and  N2_13 
REMARK    9  A    between atoms: N4_18  and  C11_20 
REMARK   10  A    between atoms: C11_20  and  C12_22 
REMARK   11  A    between atoms: C12_22  and  N5_24 
REMARK       I    between atoms: C14_26  and  N6_27 
REMARK       I    between atoms: C14_26  and  N7_32 
REMARK       I    between atoms: N6_27  and  C15_29 
REMARK   12  A    between atoms: N7_32  and  C17_34 
ROOT
HETATM    1  C11 UNL     1      16.907 -15.218  22.741  1.00  0.00     0.135 C 
HETATM    2  S2  UNL     1      18.115 -14.985  23.778  1.00  0.00    -0.057 SA
ENDROOT
BRANCH   1   3
HETATM    3  N4  UNL     1      15.797 -14.400  22.654  1.00  0.00    -0.292 N 
ATOM      4  H4  UNL     1      15.007 -14.569  23.277  1.00  0.00     0.177 HD
BRANCH   3   5
HETATM    5  S1  UNL     1      15.698 -12.921  21.362  1.00  0.00     0.112 S 
HETATM    6  O1  UNL     1      14.626 -14.275  20.410  1.00  0.00    -0.232 OA
BRANCH   5   7
HETATM    7  N1  UNL     1      16.715 -13.133  19.801  1.00  0.00    -0.223 NA
BRANCH   7   8
HETATM    8  C3  UNL     1      16.244 -12.499  18.617  1.00  0.00     0.132 C 
BRANCH   8   9
HETATM    9  C2  UNL     1      16.466 -13.363  17.417  1.00  0.00    -0.022 C 
HETATM   10  C1  UNL     1      16.329 -14.696  17.502  1.00  0.00     0.008 C 
ENDBRANCH   8   9
ENDBRANCH   7   8
BRANCH   7  11
HETATM   11  C4  UNL     1      18.057 -12.616  20.064  1.00  0.00     0.111 C 
BRANCH  11  12
HETATM   12  C5  UNL     1      19.054 -13.748  20.078  1.00  0.00     0.004 A 
HETATM   13  C6  UNL     1      20.486 -13.521  20.266  1.00  0.00     0.011 A 
HETATM   14  C7  UNL     1      19.966 -14.000  18.950  1.00  0.00    -0.013 A 
HETATM   15  C8  UNL     1      20.128 -13.033  17.807  1.00  0.00     0.010 C 
ENDBRANCH  11  12
ENDBRANCH   7  11
ENDBRANCH   5   7
BRANCH   5  16
HETATM   16  C9  UNL     1      14.184 -11.839  21.373  1.00  0.00     0.293 C 
BRANCH  16  17
HETATM   17  N2  UNL     1      13.093 -12.161  22.317  1.00  0.00    -0.214 N 
HETATM   18  C10 UNL     1      11.991 -11.474  22.681  1.00  0.00     0.236 A 
HETATM   19  N3  UNL     1      11.670 -12.488  23.500  1.00  0.00    -0.235 N 
HETATM   20  O2  UNL     1      12.730 -13.101  23.120  1.00  0.00    -0.152 OA
ATOM     21  H3  UNL     1      10.908 -12.686  24.148  1.00  0.00     0.197 HD
ENDBRANCH  16  17
ENDBRANCH   5  16
ENDBRANCH   3   5
ENDBRANCH   1   3
BRANCH   1  22
HETATM   22  C12 UNL     1      17.012 -16.403  21.870  1.00  0.00     0.078 C 
HETATM   23  C13 UNL     1      18.188 -16.947  21.684  1.00  0.00     0.047 C 
BRANCH  22  24
HETATM   24  N5  UNL     1      15.857 -16.913  21.279  1.00  0.00    -0.190 N 
HETATM   25  C14 UNL     1      14.923 -17.598  21.805  1.00  0.00     0.681 C 
HETATM   26  N6  UNL     1      13.841 -17.989  20.946  1.00  0.00    -0.160 N 
HETATM   27  N7  UNL     1      14.955 -17.966  23.171  1.00  0.00    -0.221 N 
HETATM   28  C15 UNL     1      12.733 -18.736  21.390  1.00  0.00     0.231 C 
ATOM     29  H6  UNL     1      13.877 -17.713  19.965  1.00  0.00     0.187 HD
HETATM   30  C16 UNL     1      11.657 -19.108  20.455  1.00  0.00     0.118 C 
HETATM   31  O3  UNL     1      12.618 -19.108  22.575  1.00  0.00    -0.273 OA
ATOM     32  H7  UNL     1      14.199 -17.613  23.756  1.00  0.00     0.178 HD
ATOM     33  H5  UNL     1      15.744 -16.707  20.286  1.00  0.00     0.184 HD
BRANCH  27  34
HETATM   34  C17 UNL     1      15.935 -18.779  23.815  1.00  0.00     0.099 C 
HETATM   35  C18 UNL     1      15.346 -20.125  24.177  1.00  0.00     0.026 C 
HETATM   36  C19 UNL     1      14.980 -20.211  25.644  1.00  0.00     0.002 C 
HETATM   37  C20 UNL     1      16.262 -20.249  26.440  1.00  0.00     0.000 C 
HETATM   38  C21 UNL     1      17.101 -19.073  26.008  1.00  0.00     0.002 C 
HETATM   39  C22 UNL     1      16.340 -18.123  25.125  1.00  0.00     0.026 C 
ENDBRANCH  27  34
ENDBRANCH  22  24
ENDBRANCH   1  22
TORSDOF 12
ENDMDL
MODEL 2
REMARK VINA RESULT: -7.510686857      2.646      6.790
REMARK  12 active torsions:
REMARK  status: ('A' for Active; 'I' for Inactive)
REMARK    1  A    between atoms: C2_2  and  C3_3 
REMARK    2  A    between atoms: C3_3  and  N1_4 
REMARK    3  A    between atoms: N1_4  and  C4_5 
REMARK    4  A    between atoms: N1_4  and  S1_10 
REMARK    5  A    between atoms: C4_5  and  C5_6 
REMARK    6  A    between atoms: S1_10  and  C9_12 
REMARK    7  A    between atoms: S1_10  and  N4_18 
REMARK    8  A    between atoms: C9_12  and  N2_13 
REMARK    9  A    between atoms: N4_18  and  C11_20 
REMARK   10  A    between atoms: C11_20  and  C12_22 
REMARK   11  A    between atoms: C12_22  and  N5_24 
REMARK       I    between atoms: C14_26  and  N6_27 
REMARK       I    between atoms: C14_26  and  N7_32 
REMARK       I    between atoms: N6_27  and  C15_29 
REMARK   12  A    between atoms: N7_32  and  C17_34 
ROOT
HETATM    1  C11 UNL     1      16.083 -16.946  21.802  1.00  0.00     0.135 C 
HETATM    2  S2  UNL     1      16.458 -18.340  21.093  1.00  0.00    -0.057 SA
ENDROOT
BRANCH   1   3
HETATM    3  N4  UNL     1      16.993 -16.156  22.478  1.00  0.00    -0.292 N 
ATOM      4  H4  UNL     1      17.215 -15.231  22.111  1.00  0.00     0.177 HD
BRANCH   3   5
HETATM    5  S1  UNL     1      17.875 -16.767  24.126  1.00  0.00     0.112 S 
HETATM    6  O1  UNL     1      17.118 -15.060  24.759  1.00  0.00    -0.232 OA
BRANCH   5   7
HETATM    7  N1  UNL     1      19.440 -15.849  24.602  1.00  0.00    -0.223 NA
BRANCH   7   8
HETATM    8  C3  UNL     1      20.111 -16.261  25.787  1.00  0.00     0.132 C 
BRANCH   8   9
HETATM    9  C2  UNL     1      20.083 -15.184  26.825  1.00  0.00    -0.022 C 
HETATM   10  C1  UNL     1      20.844 -14.086  26.690  1.00  0.00     0.008 C 
ENDBRANCH   8   9
ENDBRANCH   7   8
BRANCH   7  11
HETATM   11  C4  UNL     1      20.391 -15.978  23.499  1.00  0.00     0.111 C 
BRANCH  11  12
HETATM   12  C5  UNL     1      20.610 -14.637  22.844  1.00  0.00     0.004 A 
HETATM   13  C6  UNL     1      19.499 -13.813  22.368  1.00  0.00     0.011 A 
HETATM   14  C7  UNL     1      20.445 -14.439  21.395  1.00  0.00    -0.013 A 
HETATM   15  C8  UNL     1      19.839 -15.486  20.497  1.00  0.00     0.010 C 
ENDBRANCH  11  12
ENDBRANCH   7  11
ENDBRANCH   5   7
BRANCH   5  16
HETATM   16  C9  UNL     1      16.841 -17.619  25.418  1.00  0.00     0.293 C 
BRANCH  16  17
HETATM   17  N2  UNL     1      15.835 -18.607  24.977  1.00  0.00    -0.214 N 
HETATM   18  C10 UNL     1      15.866 -19.954  24.921  1.00  0.00     0.236 A 
HETATM   19  N3  UNL     1      14.617 -19.930  24.432  1.00  0.00    -0.235 N 
HETATM   20  O2  UNL     1      14.636 -18.650  24.505  1.00  0.00    -0.152 OA
ATOM     21  H3  UNL     1      13.940 -20.631  24.130  1.00  0.00     0.197 HD
ENDBRANCH  16  17
ENDBRANCH   5  16
ENDBRANCH   3   5
ENDBRANCH   1   3
BRANCH   1  22
HETATM   22  C12 UNL     1      14.669 -16.536  21.733  1.00  0.00     0.078 C 
HETATM   23  C13 UNL     1      13.784 -17.392  21.290  1.00  0.00     0.047 C 
BRANCH  22  24
HETATM   24  N5  UNL     1      14.316 -15.252  22.148  1.00  0.00    -0.190 N 
HETATM   25  C14 UNL     1      14.217 -14.186  21.461  1.00  0.00     0.681 C 
HETATM   26  N6  UNL     1      13.828 -12.995  22.162  1.00  0.00    -0.160 N 
HETATM   27  N7  UNL     1      14.490 -14.174  20.073  1.00  0.00    -0.221 N 
HETATM   28  C15 UNL     1      13.664 -11.746  21.532  1.00  0.00     0.231 C 
ATOM     29  H6  UNL     1      13.661 -13.056  23.166  1.00  0.00     0.187 HD
HETATM   30  C16 UNL     1      13.266 -10.561  22.310  1.00  0.00     0.118 C 
HETATM   31  O3  UNL     1      13.848 -11.594  20.307  1.00  0.00    -0.273 OA
ATOM     32  H7  UNL     1      13.717 -13.916  19.459  1.00  0.00     0.178 HD
ATOM     33  H5  UNL     1      14.107 -15.154  23.142  1.00  0.00     0.184 HD
BRANCH  27  34
HETATM   34  C17 UNL     1      15.731 -14.484  19.442  1.00  0.00     0.099 C 
HETATM   35  C18 UNL     1      16.854 -13.685  20.067  1.00  0.00     0.026 C 
HETATM   36  C19 UNL     1      17.248 -12.494  19.219  1.00  0.00     0.002 C 
HETATM   37  C20 UNL     1      17.939 -13.015  17.982  1.00  0.00     0.000 C 
HETATM   38  C21 UNL     1      17.030 -14.039  17.350  1.00  0.00     0.002 C 
HETATM   39  C22 UNL     1      15.665 -14.059  17.984  1.00  0.00     0.026 C 
ENDBRANCH  27  34
ENDBRANCH  22  24
ENDBRANCH   1  22
TORSDOF 12
ENDMDL
MODEL 3
REMARK VINA RESULT: -7.464870767      2.995      7.425
REMARK  12 active torsions:
REMARK  status: ('A' for Active; 'I' for Inactive)
REMARK    1  A    between atoms: C2_2  and  C3_3 
REMARK    2  A    between atoms: C3_3  and  N1_4 
REMARK    3  A    between atoms: N1_4  and  C4_5 
REMARK    4  A    between atoms: N1_4  and  S1_10 
REMARK    5  A    between atoms: C4_5  and  C5_6 
REMARK    6  A    between atoms: S1_10  and  C9_12 
REMARK    7  A    between atoms: S1_10  and  N4_18 
REMARK    8  A    between atoms: C9_12  and  N2_13 
REMARK    9  A    between atoms: N4_18  and  C11_20 
REMARK   10  A    between atoms: C11_20  and  C12_22 
REMARK   11  A    between atoms: C12_22  and  N5_24 
REMARK       I    between atoms: C14_26  and  N6_27 
REMARK       I    between atoms: C14_26  and  N7_32 
REMARK       I    between atoms: N6_27  and  C15_29 
REMARK   12  A    between atoms: N7_32  and  C17_34 
ROOT
HETATM    1  C11 UNL     1      18.833 -14.193  21.506  1.00  0.00     0.135 C 
HETATM    2  S2  UNL     1      19.367 -15.375  20.554  1.00  0.00    -0.057 SA
ENDROOT
BRANCH   1   3
HETATM    3  N4  UNL     1      18.562 -14.351  22.852  1.00  0.00    -0.292 N 
ATOM      4  H4  UNL     1      18.389 -13.524  23.423  1.00  0.00     0.177 HD
BRANCH   3   5
HETATM    5  S1  UNL     1      18.503 -16.126  23.697  1.00  0.00     0.112 S 
HETATM    6  O1  UNL     1      17.362 -15.116  24.948  1.00  0.00    -0.232 OA
BRANCH   5   7
HETATM    7  N1  UNL     1      19.486 -16.306  25.284  1.00  0.00    -0.223 NA
BRANCH   7   8
HETATM    8  C3  UNL     1      19.433 -17.561  25.953  1.00  0.00     0.132 C 
BRANCH   8   9
HETATM    9  C2  UNL     1      20.675 -17.798  26.752  1.00  0.00    -0.022 C 
HETATM   10  C1  UNL     1      20.781 -18.878  27.543  1.00  0.00     0.008 C 
ENDBRANCH   8   9
ENDBRANCH   7   8
BRANCH   7  11
HETATM   11  C4  UNL     1      20.890 -16.037  24.978  1.00  0.00     0.111 C 
BRANCH  11  12
HETATM   12  C5  UNL     1      21.123 -14.550  24.879  1.00  0.00     0.004 A 
HETATM   13  C6  UNL     1      22.363 -13.925  25.337  1.00  0.00     0.011 A 
HETATM   14  C7  UNL     1      21.081 -13.672  26.059  1.00  0.00    -0.013 A 
HETATM   15  C8  UNL     1      21.022 -14.207  27.466  1.00  0.00     0.010 C 
ENDBRANCH  11  12
ENDBRANCH   7  11
ENDBRANCH   5   7
BRANCH   5  16
HETATM   16  C9  UNL     1      17.035 -17.218  23.357  1.00  0.00     0.293 C 
BRANCH  16  17
HETATM   17  N2  UNL     1      16.065 -16.795  22.325  1.00  0.00    -0.214 N 
HETATM   18  C10 UNL     1      15.044 -17.448  21.734  1.00  0.00     0.236 A 
HETATM   19  N3  UNL     1      14.797 -16.342  21.015  1.00  0.00    -0.235 N 
HETATM   20  O2  UNL     1      15.777 -15.765  21.606  1.00  0.00    -0.152 OA
ATOM     21  H3  UNL     1      14.118 -16.075  20.302  1.00  0.00     0.197 HD
ENDBRANCH  16  17
ENDBRANCH   5  16
ENDBRANCH   3   5
ENDBRANCH   1   3
BRANCH   1  22
HETATM   22  C12 UNL     1      18.602 -12.888  20.862  1.00  0.00     0.078 C 
HETATM   23  C13 UNL     1      19.487 -12.440  20.007  1.00  0.00     0.047 C 
BRANCH  22  24
HETATM   24  N5  UNL     1      17.446 -12.175  21.175  1.00  0.00    -0.190 N 
HETATM   25  C14 UNL     1      16.258 -12.349  20.755  1.00  0.00     0.681 C 
HETATM   26  N6  UNL     1      15.253 -11.454  21.255  1.00  0.00    -0.160 N 
HETATM   27  N7  UNL     1      15.944 -13.372  19.829  1.00  0.00    -0.221 N 
HETATM   28  C15 UNL     1      13.895 -11.535  20.891  1.00  0.00     0.231 C 
ATOM     29  H6  UNL     1      15.537 -10.723  21.906  1.00  0.00     0.187 HD
HETATM   30  C16 UNL     1      12.915 -10.582  21.438  1.00  0.00     0.118 C 
HETATM   31  O3  UNL     1      13.473 -12.404  20.101  1.00  0.00    -0.273 OA
ATOM     32  H7  UNL     1      15.288 -14.086  20.144  1.00  0.00     0.178 HD
ATOM     33  H5  UNL     1      17.569 -11.405  21.833  1.00  0.00     0.184 HD
BRANCH  27  34
HETATM   34  C17 UNL     1      16.450 -13.510  18.502  1.00  0.00     0.099 C 
HETATM   35  C18 UNL     1      15.941 -12.387  17.625  1.00  0.00     0.026 C 
HETATM   36  C19 UNL     1      14.795 -12.830  16.740  1.00  0.00     0.002 C 
HETATM   37  C20 UNL     1      15.352 -13.763  15.693  1.00  0.00     0.000 C 
HETATM   38  C21 UNL     1      16.124 -14.842  16.410  1.00  0.00     0.002 C 
HETATM   39  C22 UNL     1      15.916 -14.799  17.899  1.00  0.00     0.026 C 
ENDBRANCH  27  34
ENDBRANCH  22  24
ENDBRANCH   1  22
TORSDOF 12
ENDMDL
MODEL 4
REMARK VINA RESULT: -7.461635145      4.477      8.755
REMARK  12 active torsions:
REMARK  status: ('A' for Active; 'I' for Inactive)
REMARK    1  A    between atoms: C2_2  and  C3_3 
REMARK    2  A    between atoms: C3_3  and  N1_4 
REMARK    3  A    between atoms: N1_4  and  C4_5 
REMARK    4  A    between atoms: N1_4  and  S1_10 
REMARK    5  A    between atoms: C4_5  and  C5_6 
REMARK    6  A    between atoms: S1_10  and  C9_12 
REMARK    7  A    between atoms: S1_10  and  N4_18 
REMARK    8  A    between atoms: C9_12  and  N2_13 
REMARK    9  A    between atoms: N4_18  and  C11_20 
REMARK   10  A    between atoms: C11_20  and  C12_22 
REMARK   11  A    between atoms: C12_22  and  N5_24 
REMARK       I    between atoms: C14_26  and  N6_27 
REMARK       I    between atoms: C14_26  and  N7_32 
REMARK       I    between atoms: N6_27  and  C15_29 
REMARK   12  A    between atoms: N7_32  and  C17_34 
ROOT
HETATM    1  C11 UNL     1      15.895 -12.339  16.501  1.00  0.00     0.135 C 
HETATM    2  S2  UNL     1      15.755 -10.865  15.871  1.00  0.00    -0.057 SA
ENDROOT
BRANCH   1   3
HETATM    3  N4  UNL     1      16.654 -12.630  17.618  1.00  0.00    -0.292 N 
ATOM      4  H4  UNL     1      17.653 -12.428  17.605  1.00  0.00     0.177 HD
BRANCH   3   5
HETATM    5  S1  UNL     1      15.859 -13.423  19.233  1.00  0.00     0.112 S 
HETATM    6  O1  UNL     1      16.553 -11.739  19.988  1.00  0.00    -0.232 OA
BRANCH   5   7
HETATM    7  N1  UNL     1      17.076 -14.085  20.498  1.00  0.00    -0.223 NA
BRANCH   7   8
HETATM    8  C3  UNL     1      16.596 -15.042  21.435  1.00  0.00     0.132 C 
BRANCH   8   9
HETATM    9  C2  UNL     1      16.822 -14.582  22.840  1.00  0.00    -0.022 C 
HETATM   10  C1  UNL     1      17.857 -15.052  23.554  1.00  0.00     0.008 C 
ENDBRANCH   8   9
ENDBRANCH   7   8
BRANCH   7  11
HETATM   11  C4  UNL     1      18.185 -14.705  19.775  1.00  0.00     0.111 C 
BRANCH  11  12
HETATM   12  C5  UNL     1      19.500 -14.164  20.281  1.00  0.00     0.004 A 
HETATM   13  C6  UNL     1      19.734 -12.732  20.461  1.00  0.00     0.011 A 
HETATM   14  C7  UNL     1      20.458 -13.485  19.394  1.00  0.00    -0.013 A 
HETATM   15  C8  UNL     1      20.115 -13.085  17.982  1.00  0.00     0.010 C 
ENDBRANCH  11  12
ENDBRANCH   7  11
ENDBRANCH   5   7
BRANCH   5  16
HETATM   16  C9  UNL     1      14.160 -12.867  19.747  1.00  0.00     0.293 C 
BRANCH  16  17
HETATM   17  N2  UNL     1      13.615 -13.358  21.030  1.00  0.00    -0.214 N 
HETATM   18  C10 UNL     1      12.768 -14.368  21.315  1.00  0.00     0.236 A 
HETATM   19  N3  UNL     1      12.872 -14.044  22.614  1.00  0.00    -0.235 N 
HETATM   20  O2  UNL     1      13.675 -13.098  22.291  1.00  0.00    -0.152 OA
ATOM     21  H3  UNL     1      12.481 -14.400  23.486  1.00  0.00     0.197 HD
ENDBRANCH  16  17
ENDBRANCH   5  16
ENDBRANCH   3   5
ENDBRANCH   1   3
BRANCH   1  22
HETATM   22  C12 UNL     1      15.183 -13.421  15.798  1.00  0.00     0.078 C 
HETATM   23  C13 UNL     1      15.533 -14.661  16.029  1.00  0.00     0.047 C 
BRANCH  22  24
HETATM   24  N5  UNL     1      14.154 -13.093  14.916  1.00  0.00    -0.190 N 
HETATM   25  C14 UNL     1      14.113 -13.217  13.651  1.00  0.00     0.681 C 
HETATM   26  N6  UNL     1      12.908 -12.794  12.995  1.00  0.00    -0.160 N 
HETATM   27  N7  UNL     1      15.209 -13.739  12.923  1.00  0.00    -0.221 N 
HETATM   28  C15 UNL     1      12.713 -12.884  11.603  1.00  0.00     0.231 C 
ATOM     29  H6  UNL     1      12.156 -12.408  13.565  1.00  0.00     0.187 HD
HETATM   30  C16 UNL     1      11.453 -12.427  10.993  1.00  0.00     0.118 C 
HETATM   31  O3  UNL     1      13.586 -13.346  10.841  1.00  0.00    -0.273 OA
ATOM     32  H7  UNL     1      15.042 -14.600  12.403  1.00  0.00     0.178 HD
ATOM     33  H5  UNL     1      13.317 -12.699  15.345  1.00  0.00     0.184 HD
BRANCH  27  34
HETATM   34  C17 UNL     1      16.522 -13.188  12.842  1.00  0.00     0.099 C 
HETATM   35  C18 UNL     1      16.460 -11.743  12.395  1.00  0.00     0.026 C 
HETATM   36  C19 UNL     1      16.802 -11.585  10.928  1.00  0.00     0.002 C 
HETATM   37  C20 UNL     1      18.277 -11.859  10.765  1.00  0.00     0.000 C 
HETATM   38  C21 UNL     1      18.564 -13.197  11.397  1.00  0.00     0.002 C 
HETATM   39  C22 UNL     1      17.307 -13.932  11.774  1.00  0.00     0.026 C 
ENDBRANCH  27  34
ENDBRANCH  22  24
ENDBRANCH   1  22
TORSDOF 12
ENDMDL
MODEL 5
REMARK VINA RESULT: -7.435130117      2.735      4.559
REMARK  12 active torsions:
REMARK  status: ('A' for Active; 'I' for Inactive)
REMARK    1  A    between atoms: C2_2  and  C3_3 
REMARK    2  A    between atoms: C3_3  and  N1_4 
REMARK    3  A    between atoms: N1_4  and  C4_5 
REMARK    4  A    between atoms: N1_4  and  S1_10 
REMARK    5  A    between atoms: C4_5  and  C5_6 
REMARK    6  A    between atoms: S1_10  and  C9_12 
REMARK    7  A    between atoms: S1_10  and  N4_18 
REMARK    8  A    between atoms: C9_12  and  N2_13 
REMARK    9  A    between atoms: N4_18  and  C11_20 
REMARK   10  A    between atoms: C11_20  and  C12_22 
REMARK   11  A    between atoms: C12_22  and  N5_24 
REMARK       I    between atoms: C14_26  and  N6_27 
REMARK       I    between atoms: C14_26  and  N7_32 
REMARK       I    between atoms: N6_27  and  C15_29 
REMARK   12  A    between atoms: N7_32  and  C17_34 
ROOT
HETATM    1  C11 UNL     1      16.050 -16.092  21.999  1.00  0.00     0.135 C 
HETATM    2  S2  UNL     1      16.587 -16.687  20.603  1.00  0.00    -0.057 SA
ENDROOT
BRANCH   1   3
HETATM    3  N4  UNL     1      15.157 -15.042  22.097  1.00  0.00    -0.292 N 
ATOM      4  H4  UNL     1      14.248 -15.204  22.529  1.00  0.00     0.177 HD
BRANCH   3   5
HETATM    5  S1  UNL     1      15.590 -13.246  21.424  1.00  0.00     0.112 S 
HETATM    6  O1  UNL     1      14.389 -13.866  19.988  1.00  0.00    -0.232 OA
BRANCH   5   7
HETATM    7  N1  UNL     1      16.749 -13.185  19.951  1.00  0.00    -0.223 NA
BRANCH   7   8
HETATM    8  C3  UNL     1      16.353 -12.399  18.833  1.00  0.00     0.132 C 
BRANCH   8   9
HETATM    9  C2  UNL     1      16.770 -13.041  17.548  1.00  0.00    -0.022 C 
HETATM   10  C1  UNL     1      16.629 -14.364  17.369  1.00  0.00     0.008 C 
ENDBRANCH   8   9
ENDBRANCH   7   8
BRANCH   7  11
HETATM   11  C4  UNL     1      18.036 -12.665  20.412  1.00  0.00     0.111 C 
BRANCH  11  12
HETATM   12  C5  UNL     1      19.055 -13.776  20.465  1.00  0.00     0.004 A 
HETATM   13  C6  UNL     1      20.460 -13.527  20.783  1.00  0.00     0.011 A 
HETATM   14  C7  UNL     1      20.064 -13.962  19.410  1.00  0.00    -0.013 A 
HETATM   15  C8  UNL     1      20.299 -12.945  18.323  1.00  0.00     0.010 C 
ENDBRANCH  11  12
ENDBRANCH   7  11
ENDBRANCH   5   7
BRANCH   5  16
HETATM   16  C9  UNL     1      14.379 -11.868  21.740  1.00  0.00     0.293 C 
BRANCH  16  17
HETATM   17  N2  UNL     1      13.165 -12.164  22.529  1.00  0.00    -0.214 N 
HETATM   18  C10 UNL     1      12.148 -11.377  22.937  1.00  0.00     0.236 A 
HETATM   19  N3  UNL     1      11.599 -12.450  23.527  1.00  0.00    -0.235 N 
HETATM   20  O2  UNL     1      12.587 -13.156  23.115  1.00  0.00    -0.152 OA
ATOM     21  H3  UNL     1      10.756 -12.628  24.072  1.00  0.00     0.197 HD
ENDBRANCH  16  17
ENDBRANCH   5  16
ENDBRANCH   3   5
ENDBRANCH   1   3
BRANCH   1  22
HETATM   22  C12 UNL     1      16.591 -16.708  23.224  1.00  0.00     0.078 C 
HETATM   23  C13 UNL     1      16.326 -17.967  23.466  1.00  0.00     0.047 C 
BRANCH  22  24
HETATM   24  N5  UNL     1      17.373 -15.936  24.081  1.00  0.00    -0.190 N 
HETATM   25  C14 UNL     1      18.617 -15.677  24.017  1.00  0.00     0.681 C 
HETATM   26  N6  UNL     1      19.162 -14.841  25.049  1.00  0.00    -0.160 N 
HETATM   27  N7  UNL     1      19.427 -16.198  22.981  1.00  0.00    -0.221 N 
HETATM   28  C15 UNL     1      20.516 -14.459  25.100  1.00  0.00     0.231 C 
ATOM     29  H6  UNL     1      18.537 -14.508  25.782  1.00  0.00     0.187 HD
HETATM   30  C16 UNL     1      21.012 -13.601  26.190  1.00  0.00     0.118 C 
HETATM   31  O3  UNL     1      21.340 -14.826  24.238  1.00  0.00    -0.273 OA
ATOM     32  H7  UNL     1      19.875 -15.519  22.366  1.00  0.00     0.178 HD
ATOM     33  H5  UNL     1      16.879 -15.520  24.871  1.00  0.00     0.184 HD
BRANCH  27  34
HETATM   34  C17 UNL     1      19.684 -17.574  22.705  1.00  0.00     0.099 C 
HETATM   35  C18 UNL     1      20.472 -18.200  23.836  1.00  0.00     0.026 C 
HETATM   36  C19 UNL     1      21.942 -18.335  23.499  1.00  0.00     0.002 C 
HETATM   37  C20 UNL     1      22.079 -19.406  22.445  1.00  0.00     0.000 C 
HETATM   38  C21 UNL     1      21.145 -19.055  21.315  1.00  0.00     0.002 C 
HETATM   39  C22 UNL     1      20.559 -17.677  21.466  1.00  0.00     0.026 C 
ENDBRANCH  27  34
ENDBRANCH  22  24
ENDBRANCH   1  22
TORSDOF 12
ENDMDL
