MODEL 1
REMARK VINA RESULT: -8.310966618      0.000      0.000
REMARK  11 active torsions:
REMARK  status: ('A' for Active; 'I' for Inactive)
REMARK    1  A    between atoms: C3_3  and  C4_4 
REMARK    2  A    between atoms: C14_14  and  C15_15 
REMARK    3  A    between atoms: C14_14  and  C21_25 
REMARK       I    between atoms: C15_15  and  N1_17 
REMARK    4  A    between atoms: N1_17  and  C16_19 
REMARK    5  A    between atoms: C16_19  and  C17_20 
REMARK    6  A    between atoms: C17_20  and  N2_21 
REMARK       I    between atoms: C21_25  and  N3_27 
REMARK    7  A    between atoms: N3_27  and  C22_29 
REMARK    8  A    between atoms: C22_29  and  C23_30 
REMARK    9  A    between atoms: C22_29  and  C26_38 
REMARK       I    between atoms: C23_30  and  N4_32 
REMARK   10  A    between atoms: N4_32  and  C24_34 
REMARK   11  A    between atoms: C24_34  and  C25_35 
ROOT
HETATM    1  C1  UNL     1      19.158 -18.591  26.895  1.00  0.00     0.012 C 
HETATM    2  C2  UNL     1      19.411 -18.352  25.737  1.00  0.00    -0.117 C 
HETATM    3  C3  UNL     1      19.733 -18.043  24.328  1.00  0.00     0.103 C 
ENDROOT
BRANCH   3   4
HETATM    4  C4  UNL     1      19.280 -16.672  23.969  1.00  0.00    -0.027 C 
HETATM    5  C5  UNL     1      20.116 -15.718  24.816  1.00  0.00     0.017 C 
HETATM    6  C6  UNL     1      17.841 -16.437  24.288  1.00  0.00    -0.004 C 
HETATM    7  C7  UNL     1      16.866 -17.247  23.485  1.00  0.00     0.011 C 
HETATM    8  C13 UNL     1      17.504 -14.981  23.925  1.00  0.00     0.011 C 
HETATM    9  C8  UNL     1      17.071 -16.979  22.003  1.00  0.00     0.014 C 
HETATM   10  C9  UNL     1      18.527 -17.331  21.755  1.00  0.00     0.011 C 
HETATM   11  C14 UNL     1      16.853 -15.557  21.627  1.00  0.00     0.129 C 
HETATM   12  C10 UNL     1      19.479 -16.424  22.509  1.00  0.00    -0.004 C 
HETATM   13  C11 UNL     1      19.187 -15.003  22.135  1.00  0.00     0.011 C 
HETATM   14  C12 UNL     1      17.744 -14.686  22.489  1.00  0.00     0.014 C 
BRANCH  11  15
HETATM   15  C15 UNL     1      15.423 -15.103  21.752  1.00  0.00     0.236 C 
HETATM   16  O1  UNL     1      14.543 -15.992  21.697  1.00  0.00    -0.272 OA
HETATM   17  N1  UNL     1      15.091 -13.724  21.935  1.00  0.00    -0.358 N 
ATOM     18  H1  UNL     1      15.849 -13.043  21.961  1.00  0.00     0.162 HD
BRANCH  17  19
HETATM   19  C16 UNL     1      13.761 -13.256  22.082  1.00  0.00     0.150 C 
BRANCH  19  20
HETATM   20  C17 UNL     1      13.542 -11.819  22.364  1.00  0.00     0.255 C 
BRANCH  20  21
HETATM   21  N2  UNL     1      12.202 -11.369  22.489  1.00  0.00    -0.077 N 
HETATM   22  C18 UNL     1      11.933 -10.426  21.380  1.00  0.00     0.271 C 
HETATM   23  C19 UNL     1      11.190 -12.375  22.426  1.00  0.00     0.271 C 
HETATM   24  C20 UNL     1      11.977 -10.573  23.689  1.00  0.00     0.271 C 
ENDBRANCH  20  21
ENDBRANCH  19  20
ENDBRANCH  17  19
ENDBRANCH  11  15
BRANCH  11  25
HETATM   25  C21 UNL     1      17.139 -15.370  20.180  1.00  0.00     0.237 C 
HETATM   26  O2  UNL     1      16.712 -16.175  19.349  1.00  0.00    -0.272 OA
HETATM   27  N3  UNL     1      17.898 -14.259  19.774  1.00  0.00    -0.346 N 
ATOM     28  H3  UNL     1      18.234 -13.615  20.490  1.00  0.00     0.163 HD
BRANCH  27  29
HETATM   29  C22 UNL     1      18.231 -13.979  18.374  1.00  0.00     0.180 C 
BRANCH  29  30
HETATM   30  C23 UNL     1      17.470 -12.775  17.941  1.00  0.00     0.241 C 
HETATM   31  O3  UNL     1      17.024 -12.014  18.863  1.00  0.00    -0.271 OA
HETATM   32  N4  UNL     1      17.205 -12.421  16.602  1.00  0.00    -0.351 N 
ATOM     33  H4  UNL     1      17.550 -13.032  15.861  1.00  0.00     0.163 HD
BRANCH  32  34
HETATM   34  C24 UNL     1      16.472 -11.238  16.228  1.00  0.00     0.222 C 
BRANCH  34  35
HETATM   35  C25 UNL     1      15.029 -11.473  16.028  1.00  0.00     0.248 C 
HETATM   36  N5  UNL     1      14.471 -11.672  14.747  1.00  0.00    -0.061 NA
HETATM   37  O4  UNL     1      14.244 -11.504  17.003  1.00  0.00    -0.275 OA
ENDBRANCH  34  35
ENDBRANCH  32  34
ENDBRANCH  29  30
BRANCH  29  38
HETATM   38  C26 UNL     1      19.704 -13.636  18.402  1.00  0.00     0.009 C 
HETATM   39  C27 UNL     1      20.199 -12.941  17.166  1.00  0.00     0.012 C 
HETATM   40  C28 UNL     1      20.080 -12.882  19.660  1.00  0.00     0.012 C 
ENDBRANCH  29  38
ENDBRANCH  27  29
ENDBRANCH  11  25
ENDBRANCH   3   4
TORSDOF 11
ENDMDL
MODEL 2
REMARK VINA RESULT: -8.025851389      1.493      1.996
REMARK  11 active torsions:
REMARK  status: ('A' for Active; 'I' for Inactive)
REMARK    1  A    between atoms: C3_3  and  C4_4 
REMARK    2  A    between atoms: C14_14  and  C15_15 
REMARK    3  A    between atoms: C14_14  and  C21_25 
REMARK       I    between atoms: C15_15  and  N1_17 
REMARK    4  A    between atoms: N1_17  and  C16_19 
REMARK    5  A    between atoms: C16_19  and  C17_20 
REMARK    6  A    between atoms: C17_20  and  N2_21 
REMARK       I    between atoms: C21_25  and  N3_27 
REMARK    7  A    between atoms: N3_27  and  C22_29 
REMARK    8  A    between atoms: C22_29  and  C23_30 
REMARK    9  A    between atoms: C22_29  and  C26_38 
REMARK       I    between atoms: C23_30  and  N4_32 
REMARK   10  A    between atoms: N4_32  and  C24_34 
REMARK   11  A    between atoms: C24_34  and  C25_35 
ROOT
HETATM    1  C1  UNL     1      18.737 -17.259  26.225  1.00  0.00     0.012 C 
HETATM    2  C2  UNL     1      18.893 -17.329  25.028  1.00  0.00    -0.117 C 
HETATM    3  C3  UNL     1      19.103 -17.403  23.568  1.00  0.00     0.103 C 
ENDROOT
BRANCH   3   4
HETATM    4  C4  UNL     1      19.335 -16.050  22.994  1.00  0.00    -0.027 C 
HETATM    5  C5  UNL     1      20.684 -15.589  23.538  1.00  0.00     0.017 C 
HETATM    6  C6  UNL     1      18.301 -15.059  23.417  1.00  0.00    -0.004 C 
HETATM    7  C7  UNL     1      16.916 -15.320  22.904  1.00  0.00     0.011 C 
HETATM    8  C13 UNL     1      18.673 -13.695  22.811  1.00  0.00     0.011 C 
HETATM    9  C8  UNL     1      16.930 -15.369  21.385  1.00  0.00     0.014 C 
HETATM   10  C9  UNL     1      17.933 -16.459  21.052  1.00  0.00     0.011 C 
HETATM   11  C14 UNL     1      17.382 -14.098  20.759  1.00  0.00     0.129 C 
HETATM   12  C10 UNL     1      19.338 -16.110  21.501  1.00  0.00    -0.004 C 
HETATM   13  C11 UNL     1      19.728 -14.800  20.886  1.00  0.00     0.011 C 
HETATM   14  C12 UNL     1      18.739 -13.735  21.327  1.00  0.00     0.014 C 
BRANCH  11  15
HETATM   15  C15 UNL     1      16.427 -12.949  20.949  1.00  0.00     0.236 C 
HETATM   16  O1  UNL     1      16.910 -11.798  20.878  1.00  0.00    -0.272 OA
HETATM   17  N1  UNL     1      15.034 -13.169  21.189  1.00  0.00    -0.358 N 
ATOM     18  H1  UNL     1      14.698 -14.130  21.247  1.00  0.00     0.162 HD
BRANCH  17  19
HETATM   19  C16 UNL     1      14.096 -12.118  21.349  1.00  0.00     0.150 C 
BRANCH  19  20
HETATM   20  C17 UNL     1      13.412 -11.972  22.653  1.00  0.00     0.255 C 
BRANCH  20  21
HETATM   21  N2  UNL     1      12.101 -11.427  22.652  1.00  0.00    -0.077 N 
HETATM   22  C18 UNL     1      11.151 -12.525  22.360  1.00  0.00     0.271 C 
HETATM   23  C19 UNL     1      11.667 -10.824  23.872  1.00  0.00     0.271 C 
HETATM   24  C20 UNL     1      11.880 -10.475  21.571  1.00  0.00     0.271 C 
ENDBRANCH  20  21
ENDBRANCH  19  20
ENDBRANCH  17  19
ENDBRANCH  11  15
BRANCH  11  25
HETATM   25  C21 UNL     1      17.431 -14.254  19.282  1.00  0.00     0.237 C 
HETATM   26  O2  UNL     1      16.742 -15.110  18.720  1.00  0.00    -0.272 OA
HETATM   27  N3  UNL     1      18.268 -13.408  18.535  1.00  0.00    -0.346 N 
ATOM     28  H3  UNL     1      18.823 -12.712  19.035  1.00  0.00     0.163 HD
BRANCH  27  29
HETATM   29  C22 UNL     1      18.386 -13.474  17.076  1.00  0.00     0.180 C 
BRANCH  29  30
HETATM   30  C23 UNL     1      17.362 -12.573  16.480  1.00  0.00     0.241 C 
HETATM   31  O3  UNL     1      17.764 -11.432  16.076  1.00  0.00    -0.271 OA
HETATM   32  N4  UNL     1      15.994 -12.885  16.334  1.00  0.00    -0.351 N 
ATOM     33  H4  UNL     1      15.664 -13.792  16.666  1.00  0.00     0.163 HD
BRANCH  32  34
HETATM   34  C24 UNL     1      15.038 -11.985  15.740  1.00  0.00     0.222 C 
BRANCH  34  35
HETATM   35  C25 UNL     1      14.653 -12.353  14.363  1.00  0.00     0.248 C 
HETATM   36  N5  UNL     1      13.357 -12.811  14.044  1.00  0.00    -0.061 NA
HETATM   37  O4  UNL     1      15.477 -12.268  13.424  1.00  0.00    -0.275 OA
ENDBRANCH  34  35
ENDBRANCH  32  34
ENDBRANCH  29  30
BRANCH  29  38
HETATM   38  C26 UNL     1      19.758 -12.906  16.785  1.00  0.00     0.009 C 
HETATM   39  C27 UNL     1      20.560 -12.574  18.011  1.00  0.00     0.012 C 
HETATM   40  C28 UNL     1      20.534 -13.780  15.825  1.00  0.00     0.012 C 
ENDBRANCH  29  38
ENDBRANCH  27  29
ENDBRANCH  11  25
ENDBRANCH   3   4
TORSDOF 11
ENDMDL
MODEL 3
REMARK VINA RESULT: -7.881872197      2.447      4.514
REMARK  11 active torsions:
REMARK  status: ('A' for Active; 'I' for Inactive)
REMARK    1  A    between atoms: C3_3  and  C4_4 
REMARK    2  A    between atoms: C14_14  and  C15_15 
REMARK    3  A    between atoms: C14_14  and  C21_25 
REMARK       I    between atoms: C15_15  and  N1_17 
REMARK    4  A    between atoms: N1_17  and  C16_19 
REMARK    5  A    between atoms: C16_19  and  C17_20 
REMARK    6  A    between atoms: C17_20  and  N2_21 
REMARK       I    between atoms: C21_25  and  N3_27 
REMARK    7  A    between atoms: N3_27  and  C22_29 
REMARK    8  A    between atoms: C22_29  and  C23_30 
REMARK    9  A    between atoms: C22_29  and  C26_38 
REMARK       I    between atoms: C23_30  and  N4_32 
REMARK   10  A    between atoms: N4_32  and  C24_34 
REMARK   11  A    between atoms: C24_34  and  C25_35 
ROOT
HETATM    1  C1  UNL     1      23.468 -14.232  24.641  1.00  0.00     0.012 C 
HETATM    2  C2  UNL     1      22.665 -15.119  24.818  1.00  0.00    -0.117 C 
HETATM    3  C3  UNL     1      21.675 -16.198  25.014  1.00  0.00     0.103 C 
ENDROOT
BRANCH   3   4
HETATM    4  C4  UNL     1      20.288 -15.675  24.898  1.00  0.00    -0.027 C 
HETATM    5  C5  UNL     1      20.148 -14.612  25.983  1.00  0.00     0.017 C 
HETATM    6  C6  UNL     1      19.253 -16.724  25.140  1.00  0.00    -0.004 C 
HETATM    7  C7  UNL     1      19.198 -17.819  24.117  1.00  0.00     0.011 C 
HETATM    8  C13 UNL     1      17.869 -16.058  25.048  1.00  0.00     0.011 C 
HETATM    9  C8  UNL     1      18.955 -17.225  22.739  1.00  0.00     0.014 C 
HETATM   10  C9  UNL     1      20.099 -16.246  22.544  1.00  0.00     0.011 C 
HETATM   11  C14 UNL     1      17.671 -16.484  22.636  1.00  0.00     0.129 C 
HETATM   12  C10 UNL     1      20.058 -15.101  23.537  1.00  0.00    -0.004 C 
HETATM   13  C11 UNL     1      18.728 -14.420  23.431  1.00  0.00     0.011 C 
HETATM   14  C12 UNL     1      17.632 -15.429  23.723  1.00  0.00     0.014 C 
BRANCH  11  15
HETATM   15  C15 UNL     1      16.450 -17.360  22.733  1.00  0.00     0.236 C 
HETATM   16  O1  UNL     1      16.630 -18.537  23.117  1.00  0.00    -0.272 OA
HETATM   17  N1  UNL     1      15.147 -16.863  22.412  1.00  0.00    -0.358 N 
ATOM     18  H1  UNL     1      15.062 -15.898  22.094  1.00  0.00     0.162 HD
BRANCH  17  19
HETATM   19  C16 UNL     1      13.969 -17.645  22.512  1.00  0.00     0.150 C 
BRANCH  19  20
HETATM   20  C17 UNL     1      13.229 -17.974  21.273  1.00  0.00     0.255 C 
BRANCH  20  21
HETATM   21  N2  UNL     1      13.575 -19.173  20.597  1.00  0.00    -0.077 N 
HETATM   22  C18 UNL     1      12.384 -19.635  19.849  1.00  0.00     0.271 C 
HETATM   23  C19 UNL     1      14.642 -19.079  19.651  1.00  0.00     0.271 C 
HETATM   24  C20 UNL     1      13.869 -20.275  21.504  1.00  0.00     0.271 C 
ENDBRANCH  20  21
ENDBRANCH  19  20
ENDBRANCH  17  19
ENDBRANCH  11  15
BRANCH  11  25
HETATM   25  C21 UNL     1      17.544 -15.881  21.284  1.00  0.00     0.237 C 
HETATM   26  O2  UNL     1      17.517 -16.597  20.280  1.00  0.00    -0.272 OA
HETATM   27  N3  UNL     1      17.450 -14.484  21.167  1.00  0.00    -0.346 N 
ATOM     28  H3  UNL     1      17.477 -13.924  22.020  1.00  0.00     0.163 HD
BRANCH  27  29
HETATM   29  C22 UNL     1      17.317 -13.789  19.883  1.00  0.00     0.180 C 
BRANCH  29  30
HETATM   30  C23 UNL     1      16.256 -12.754  20.016  1.00  0.00     0.241 C 
HETATM   31  O3  UNL     1      16.107 -11.953  19.035  1.00  0.00    -0.271 OA
HETATM   32  N4  UNL     1      15.415 -12.593  21.137  1.00  0.00    -0.351 N 
ATOM     33  H4  UNL     1      15.537 -13.224  21.930  1.00  0.00     0.163 HD
BRANCH  32  34
HETATM   34  C24 UNL     1      14.392 -11.582  21.218  1.00  0.00     0.222 C 
BRANCH  34  35
HETATM   35  C25 UNL     1      13.414 -11.812  22.300  1.00  0.00     0.248 C 
HETATM   36  N5  UNL     1      12.605 -10.777  22.814  1.00  0.00    -0.061 NA
HETATM   37  O4  UNL     1      13.270 -12.952  22.801  1.00  0.00    -0.275 OA
ENDBRANCH  34  35
ENDBRANCH  32  34
ENDBRANCH  29  30
BRANCH  29  38
HETATM   38  C26 UNL     1      18.648 -13.096  19.693  1.00  0.00     0.009 C 
HETATM   39  C27 UNL     1      19.132 -12.347  20.901  1.00  0.00     0.012 C 
HETATM   40  C28 UNL     1      19.701 -14.043  19.159  1.00  0.00     0.012 C 
ENDBRANCH  29  38
ENDBRANCH  27  29
ENDBRANCH  11  25
ENDBRANCH   3   4
TORSDOF 11
ENDMDL
MODEL 4
REMARK VINA RESULT: -7.866766078      2.188      6.649
REMARK  11 active torsions:
REMARK  status: ('A' for Active; 'I' for Inactive)
REMARK    1  A    between atoms: C3_3  and  C4_4 
REMARK    2  A    between atoms: C14_14  and  C15_15 
REMARK    3  A    between atoms: C14_14  and  C21_25 
REMARK       I    between atoms: C15_15  and  N1_17 
REMARK    4  A    between atoms: N1_17  and  C16_19 
REMARK    5  A    between atoms: C16_19  and  C17_20 
REMARK    6  A    between atoms: C17_20  and  N2_21 
REMARK       I    between atoms: C21_25  and  N3_27 
REMARK    7  A    between atoms: N3_27  and  C22_29 
REMARK    8  A    between atoms: C22_29  and  C23_30 
REMARK    9  A    between atoms: C22_29  and  C26_38 
REMARK       I    between atoms: C23_30  and  N4_32 
REMARK   10  A    between atoms: N4_32  and  C24_34 
REMARK   11  A    between atoms: C24_34  and  C25_35 
ROOT
HETATM    1  C1  UNL     1      18.657 -15.523  24.816  1.00  0.00     0.012 C 
HETATM    2  C2  UNL     1      18.996 -14.918  23.826  1.00  0.00    -0.117 C 
HETATM    3  C3  UNL     1      19.390 -14.175  22.612  1.00  0.00     0.103 C 
ENDROOT
BRANCH   3   4
HETATM    4  C4  UNL     1      18.713 -14.726  21.407  1.00  0.00    -0.027 C 
HETATM    5  C5  UNL     1      19.178 -16.174  21.292  1.00  0.00     0.017 C 
HETATM    6  C6  UNL     1      19.098 -14.014  20.152  1.00  0.00    -0.004 C 
HETATM    7  C7  UNL     1      18.651 -12.585  20.064  1.00  0.00     0.011 C 
HETATM    8  C13 UNL     1      18.383 -14.701  18.977  1.00  0.00     0.011 C 
HETATM    9  C8  UNL     1      17.140 -12.508  20.207  1.00  0.00     0.014 C 
HETATM   10  C9  UNL     1      16.854 -13.168  21.544  1.00  0.00     0.011 C 
HETATM   11  C14 UNL     1      16.409 -13.247  19.144  1.00  0.00     0.129 C 
HETATM   12  C10 UNL     1      17.229 -14.637  21.556  1.00  0.00    -0.004 C 
HETATM   13  C11 UNL     1      16.509 -15.327  20.438  1.00  0.00     0.011 C 
HETATM   14  C12 UNL     1      16.905 -14.679  19.122  1.00  0.00     0.014 C 
BRANCH  11  15
HETATM   15  C15 UNL     1      16.547 -12.640  17.772  1.00  0.00     0.236 C 
HETATM   16  O1  UNL     1      16.700 -11.400  17.718  1.00  0.00    -0.272 OA
HETATM   17  N1  UNL     1      16.515 -13.449  16.592  1.00  0.00    -0.358 N 
ATOM     18  H1  UNL     1      16.377 -14.454  16.698  1.00  0.00     0.162 HD
BRANCH  17  19
HETATM   19  C16 UNL     1      16.665 -12.923  15.285  1.00  0.00     0.150 C 
BRANCH  19  20
HETATM   20  C17 UNL     1      15.476 -12.354  14.609  1.00  0.00     0.255 C 
BRANCH  20  21
HETATM   21  N2  UNL     1      15.245 -12.725  13.258  1.00  0.00    -0.077 N 
HETATM   22  C18 UNL     1      13.916 -12.206  12.864  1.00  0.00     0.271 C 
HETATM   23  C19 UNL     1      16.180 -12.229  12.299  1.00  0.00     0.271 C 
HETATM   24  C20 UNL     1      15.128 -14.166  13.075  1.00  0.00     0.271 C 
ENDBRANCH  20  21
ENDBRANCH  19  20
ENDBRANCH  17  19
ENDBRANCH  11  15
BRANCH  11  25
HETATM   25  C21 UNL     1      14.946 -13.177  19.396  1.00  0.00     0.237 C 
HETATM   26  O2  UNL     1      14.144 -13.493  18.514  1.00  0.00    -0.272 OA
HETATM   27  N3  UNL     1      14.492 -12.752  20.656  1.00  0.00    -0.346 N 
ATOM     28  H3  UNL     1      15.185 -12.499  21.360  1.00  0.00     0.163 HD
BRANCH  27  29
HETATM   29  C22 UNL     1      13.073 -12.653  21.009  1.00  0.00     0.180 C 
BRANCH  29  30
HETATM   30  C23 UNL     1      12.526 -14.030  21.151  1.00  0.00     0.241 C 
HETATM   31  O3  UNL     1      11.408 -14.266  20.584  1.00  0.00    -0.271 OA
HETATM   32  N4  UNL     1      13.145 -15.080  21.861  1.00  0.00    -0.351 N 
ATOM     33  H4  UNL     1      14.033 -14.894  22.327  1.00  0.00     0.163 HD
BRANCH  32  34
HETATM   34  C24 UNL     1      12.583 -16.403  21.962  1.00  0.00     0.222 C 
BRANCH  34  35
HETATM   35  C25 UNL     1      13.591 -17.480  21.918  1.00  0.00     0.248 C 
HETATM   36  N5  UNL     1      14.053 -18.125  23.086  1.00  0.00    -0.061 NA
HETATM   37  O4  UNL     1      14.074 -17.861  20.827  1.00  0.00    -0.275 OA
ENDBRANCH  34  35
ENDBRANCH  32  34
ENDBRANCH  29  30
BRANCH  29  38
HETATM   38  C26 UNL     1      13.071 -11.990  22.368  1.00  0.00     0.009 C 
HETATM   39  C27 UNL     1      13.419 -10.528  22.342  1.00  0.00     0.012 C 
HETATM   40  C28 UNL     1      11.782 -12.248  23.117  1.00  0.00     0.012 C 
ENDBRANCH  29  38
ENDBRANCH  27  29
ENDBRANCH  11  25
ENDBRANCH   3   4
TORSDOF 11
ENDMDL
MODEL 5
REMARK VINA RESULT: -7.825115659      1.838      2.627
REMARK  11 active torsions:
REMARK  status: ('A' for Active; 'I' for Inactive)
REMARK    1  A    between atoms: C3_3  and  C4_4 
REMARK    2  A    between atoms: C14_14  and  C15_15 
REMARK    3  A    between atoms: C14_14  and  C21_25 
REMARK       I    between atoms: C15_15  and  N1_17 
REMARK    4  A    between atoms: N1_17  and  C16_19 
REMARK    5  A    between atoms: C16_19  and  C17_20 
REMARK    6  A    between atoms: C17_20  and  N2_21 
REMARK       I    between atoms: C21_25  and  N3_27 
REMARK    7  A    between atoms: N3_27  and  C22_29 
REMARK    8  A    between atoms: C22_29  and  C23_30 
REMARK    9  A    between atoms: C22_29  and  C26_38 
REMARK       I    between atoms: C23_30  and  N4_32 
REMARK   10  A    between atoms: N4_32  and  C24_34 
REMARK   11  A    between atoms: C24_34  and  C25_35 
ROOT
HETATM    1  C1  UNL     1      14.464 -21.669  23.677  1.00  0.00     0.012 C 
HETATM    2  C2  UNL     1      15.079 -21.206  22.744  1.00  0.00    -0.117 C 
HETATM    3  C3  UNL     1      15.849 -20.643  21.616  1.00  0.00     0.103 C 
ENDROOT
BRANCH   3   4
HETATM    4  C4  UNL     1      16.594 -19.426  22.036  1.00  0.00    -0.027 C 
HETATM    5  C5  UNL     1      17.719 -19.914  22.942  1.00  0.00     0.017 C 
HETATM    6  C6  UNL     1      15.750 -18.473  22.817  1.00  0.00    -0.004 C 
HETATM    7  C7  UNL     1      14.628 -17.835  22.053  1.00  0.00     0.011 C 
HETATM    8  C13 UNL     1      16.634 -17.288  23.240  1.00  0.00     0.011 C 
HETATM    9  C8  UNL     1      15.183 -17.095  20.847  1.00  0.00     0.014 C 
HETATM   10  C9  UNL     1      15.942 -18.156  20.070  1.00  0.00     0.011 C 
HETATM   11  C14 UNL     1      16.125 -16.003  21.209  1.00  0.00     0.129 C 
HETATM   12  C10 UNL     1      17.127 -18.702  20.842  1.00  0.00    -0.004 C 
HETATM   13  C11 UNL     1      18.018 -17.561  21.227  1.00  0.00     0.011 C 
HETATM   14  C12 UNL     1      17.225 -16.580  22.075  1.00  0.00     0.014 C 
BRANCH  11  15
HETATM   15  C15 UNL     1      15.474 -14.844  21.918  1.00  0.00     0.236 C 
HETATM   16  O1  UNL     1      16.210 -14.150  22.654  1.00  0.00    -0.272 OA
HETATM   17  N1  UNL     1      14.085 -14.550  21.747  1.00  0.00    -0.358 N 
ATOM     18  H1  UNL     1      13.532 -15.157  21.142  1.00  0.00     0.162 HD
BRANCH  17  19
HETATM   19  C16 UNL     1      13.438 -13.457  22.375  1.00  0.00     0.150 C 
BRANCH  19  20
HETATM   20  C17 UNL     1      13.765 -12.085  21.923  1.00  0.00     0.255 C 
BRANCH  20  21
HETATM   21  N2  UNL     1      12.748 -11.099  22.019  1.00  0.00    -0.077 N 
HETATM   22  C18 UNL     1      12.576 -10.491  20.681  1.00  0.00     0.271 C 
HETATM   23  C19 UNL     1      11.459 -11.560  22.428  1.00  0.00     0.271 C 
HETATM   24  C20 UNL     1      13.120  -9.977  22.870  1.00  0.00     0.271 C 
ENDBRANCH  20  21
ENDBRANCH  19  20
ENDBRANCH  17  19
ENDBRANCH  11  15
BRANCH  11  25
HETATM   25  C21 UNL     1      16.670 -15.378  19.975  1.00  0.00     0.237 C 
HETATM   26  O2  UNL     1      16.189 -15.649  18.872  1.00  0.00    -0.272 OA
HETATM   27  N3  UNL     1      17.737 -14.471  20.085  1.00  0.00    -0.346 N 
ATOM     28  H3  UNL     1      18.109 -14.272  21.015  1.00  0.00     0.163 HD
BRANCH  27  29
HETATM   29  C22 UNL     1      18.344 -13.796  18.934  1.00  0.00     0.180 C 
BRANCH  29  30
HETATM   30  C23 UNL     1      17.391 -12.768  18.435  1.00  0.00     0.241 C 
HETATM   31  O3  UNL     1      16.790 -12.066  19.314  1.00  0.00    -0.271 OA
HETATM   32  N4  UNL     1      17.103 -12.519  17.077  1.00  0.00    -0.351 N 
ATOM     33  H4  UNL     1      17.572 -13.085  16.369  1.00  0.00     0.163 HD
BRANCH  32  34
HETATM   34  C24 UNL     1      16.180 -11.504  16.639  1.00  0.00     0.222 C 
BRANCH  34  35
HETATM   35  C25 UNL     1      14.770 -11.943  16.643  1.00  0.00     0.248 C 
HETATM   36  N5  UNL     1      14.244 -12.788  15.642  1.00  0.00    -0.061 NA
HETATM   37  O4  UNL     1      13.987 -11.572  17.547  1.00  0.00    -0.275 OA
ENDBRANCH  34  35
ENDBRANCH  32  34
ENDBRANCH  29  30
BRANCH  29  38
HETATM   38  C26 UNL     1      19.555 -13.096  19.508  1.00  0.00     0.009 C 
HETATM   39  C27 UNL     1      20.194 -13.813  20.663  1.00  0.00     0.012 C 
HETATM   40  C28 UNL     1      20.564 -12.750  18.433  1.00  0.00     0.012 C 
ENDBRANCH  29  38
ENDBRANCH  27  29
ENDBRANCH  11  25
ENDBRANCH   3   4
TORSDOF 11
ENDMDL
