MODEL 1
REMARK VINA RESULT: -10.324805620      0.000      0.000
REMARK  6 active torsions:
REMARK  status: ('A' for Active; 'I' for Inactive)
REMARK    1  A    between atoms: N4_12  and  C7_13 
REMARK    2  A    between atoms: C7_13  and  C9_15 
REMARK    3  A    between atoms: C10_19  and  N5_20 
REMARK    4  A    between atoms: N5_20  and  C11_22 
REMARK    5  A    between atoms: C11_22  and  C13_24 
REMARK    6  A    between atoms: C13_24  and  C16_27 
ROOT
HETATM    1  C1  UNL     1      79.318   1.840  23.808  1.00  0.00     0.089 C 
HETATM    2  C2  UNL     1      78.208   1.268  24.649  1.00  0.00     0.080 A 
HETATM    3  N1  UNL     1      77.431   2.096  25.384  1.00  0.00    -0.330 N 
ATOM      4  H1  UNL     1      77.599   3.102  25.366  1.00  0.00     0.168 HD
HETATM    5  C3  UNL     1      76.437   1.595  26.138  1.00  0.00     0.142 A 
HETATM    6  C4  UNL     1      76.243   0.247  26.140  1.00  0.00     0.123 A 
HETATM    7  N2  UNL     1      75.191   0.027  26.976  1.00  0.00    -0.327 N 
ATOM      8  H2  UNL     1      74.790  -0.885  27.198  1.00  0.00     0.168 HD
HETATM    9  C5  UNL     1      74.769   1.207  27.461  1.00  0.00     0.193 A 
HETATM   10  C6  UNL     1      73.685   1.413  28.373  1.00  0.00     0.137 C 
HETATM   11  N3  UNL     1      72.792   1.561  29.117  1.00  0.00    -0.188 NA
HETATM   12  N4  UNL     1      75.525   2.189  26.956  1.00  0.00    -0.295 N 
HETATM   13  C10 UNL     1      77.034  -0.613  25.391  1.00  0.00     0.134 A 
HETATM   14  N6  UNL     1      78.012  -0.060  24.655  1.00  0.00    -0.331 N 
ATOM     15  H6  UNL     1      78.616  -0.659  24.090  1.00  0.00     0.168 HD
ENDROOT
BRANCH  12  16
HETATM   16  C7  UNL     1      75.439   3.596  27.191  1.00  0.00     0.197 C 
HETATM   17  C8  UNL     1      74.059   4.131  27.383  1.00  0.00     0.042 C 
BRANCH  16  18
HETATM   18  C9  UNL     1      76.311   4.030  28.372  1.00  0.00     0.407 C 
HETATM   19  F1  UNL     1      76.132   5.394  28.600  1.00  0.00    -0.169 F 
HETATM   20  F2  UNL     1      77.649   3.827  28.121  1.00  0.00    -0.169 F 
HETATM   21  F3  UNL     1      75.865   3.356  29.485  1.00  0.00    -0.169 F 
ENDBRANCH  16  18
ENDBRANCH  12  16
BRANCH  13  22
HETATM   22  N5  UNL     1      76.821  -1.865  25.418  1.00  0.00    -0.369 N 
ATOM     23  H5  UNL     1      76.049  -2.188  26.002  1.00  0.00     0.161 HD
BRANCH  22  24
HETATM   24  C11 UNL     1      77.564  -2.875  24.704  1.00  0.00     0.087 C 
HETATM   25  C12 UNL     1      77.124  -2.991  23.292  1.00  0.00     0.033 C 
BRANCH  24  26
HETATM   26  C13 UNL     1      77.641  -4.171  25.470  1.00  0.00    -0.022 C 
HETATM   27  C14 UNL     1      76.787  -4.106  26.707  1.00  0.00     0.017 C 
HETATM   28  C15 UNL     1      76.956  -5.198  24.544  1.00  0.00     0.017 C 
BRANCH  26  29
HETATM   29  C16 UNL     1      79.006  -4.704  25.708  1.00  0.00     0.019 C 
HETATM   30  C17 UNL     1      78.991  -5.279  27.134  1.00  0.00     0.009 C 
HETATM   31  C18 UNL     1      80.316  -5.743  27.598  1.00  0.00     0.027 C 
HETATM   32  C19 UNL     1      81.479  -4.923  27.120  1.00  0.00     0.167 C 
HETATM   33  O1  UNL     1      81.312  -4.438  25.832  1.00  0.00    -0.391 OA
HETATM   34  C20 UNL     1      80.115  -3.687  25.707  1.00  0.00     0.172 C 
ENDBRANCH  26  29
ENDBRANCH  24  26
ENDBRANCH  22  24
ENDBRANCH  13  22
TORSDOF 6
ENDMDL
MODEL 2
REMARK VINA RESULT: -9.819162812      1.461      1.869
REMARK  6 active torsions:
REMARK  status: ('A' for Active; 'I' for Inactive)
REMARK    1  A    between atoms: N4_12  and  C7_13 
REMARK    2  A    between atoms: C7_13  and  C9_15 
REMARK    3  A    between atoms: C10_19  and  N5_20 
REMARK    4  A    between atoms: N5_20  and  C11_22 
REMARK    5  A    between atoms: C11_22  and  C13_24 
REMARK    6  A    between atoms: C13_24  and  C16_27 
ROOT
HETATM    1  C1  UNL     1      79.574   3.234  23.473  1.00  0.00     0.089 C 
HETATM    2  C2  UNL     1      78.670   2.252  24.169  1.00  0.00     0.080 A 
HETATM    3  N1  UNL     1      77.719   2.704  25.019  1.00  0.00    -0.330 N 
ATOM      4  H1  UNL     1      77.619   3.705  25.185  1.00  0.00     0.168 HD
HETATM    5  C3  UNL     1      76.907   1.836  25.646  1.00  0.00     0.142 A 
HETATM    6  C4  UNL     1      77.071   0.506  25.402  1.00  0.00     0.123 A 
HETATM    7  N2  UNL     1      76.131  -0.127  26.158  1.00  0.00    -0.327 N 
ATOM      8  H2  UNL     1      75.986  -1.135  26.203  1.00  0.00     0.168 HD
HETATM    9  C5  UNL     1      75.426   0.797  26.833  1.00  0.00     0.193 A 
HETATM   10  C6  UNL     1      74.346   0.547  27.739  1.00  0.00     0.137 C 
HETATM   11  N3  UNL     1      73.462   0.322  28.473  1.00  0.00    -0.188 NA
HETATM   12  N4  UNL     1      75.890   2.016  26.532  1.00  0.00    -0.295 N 
HETATM   13  C10 UNL     1      78.042   0.029  24.533  1.00  0.00     0.134 A 
HETATM   14  N6  UNL     1      78.827   0.940  23.933  1.00  0.00    -0.331 N 
ATOM     15  H6  UNL     1      79.553   0.630  23.287  1.00  0.00     0.168 HD
ENDROOT
BRANCH  12  16
HETATM   16  C7  UNL     1      75.445   3.287  27.012  1.00  0.00     0.197 C 
HETATM   17  C8  UNL     1      73.999   3.365  27.372  1.00  0.00     0.042 C 
BRANCH  16  18
HETATM   18  C9  UNL     1      76.282   3.772  28.198  1.00  0.00     0.407 C 
HETATM   19  F1  UNL     1      75.951   5.096  28.484  1.00  0.00    -0.169 F 
HETATM   20  F2  UNL     1      77.630   3.734  27.921  1.00  0.00    -0.169 F 
HETATM   21  F3  UNL     1      75.936   3.007  29.288  1.00  0.00    -0.169 F 
ENDBRANCH  16  18
ENDBRANCH  12  16
BRANCH  13  22
HETATM   22  N5  UNL     1      78.164  -1.220  24.331  1.00  0.00    -0.369 N 
ATOM     23  H5  UNL     1      77.784  -1.584  23.457  1.00  0.00     0.161 HD
BRANCH  22  24
HETATM   24  C11 UNL     1      78.786  -2.173  25.218  1.00  0.00     0.087 C 
HETATM   25  C12 UNL     1      80.226  -2.353  24.912  1.00  0.00     0.033 C 
BRANCH  24  26
HETATM   26  C13 UNL     1      77.983  -3.442  25.340  1.00  0.00    -0.022 C 
HETATM   27  C14 UNL     1      76.569  -3.221  24.877  1.00  0.00     0.017 C 
HETATM   28  C15 UNL     1      78.619  -4.392  24.304  1.00  0.00     0.017 C 
BRANCH  26  29
HETATM   29  C16 UNL     1      78.086  -4.152  26.641  1.00  0.00     0.019 C 
HETATM   30  C17 UNL     1      79.037  -5.337  26.400  1.00  0.00     0.009 C 
HETATM   31  C18 UNL     1      79.160  -6.241  27.563  1.00  0.00     0.027 C 
HETATM   32  C19 UNL     1      77.901  -6.424  28.361  1.00  0.00     0.167 C 
HETATM   33  O1  UNL     1      77.133  -5.273  28.440  1.00  0.00    -0.391 OA
HETATM   34  C20 UNL     1      76.813  -4.768  27.154  1.00  0.00     0.172 C 
ENDBRANCH  26  29
ENDBRANCH  24  26
ENDBRANCH  22  24
ENDBRANCH  13  22
TORSDOF 6
ENDMDL
MODEL 3
REMARK VINA RESULT: -9.475097749      1.713      2.357
REMARK  6 active torsions:
REMARK  status: ('A' for Active; 'I' for Inactive)
REMARK    1  A    between atoms: N4_12  and  C7_13 
REMARK    2  A    between atoms: C7_13  and  C9_15 
REMARK    3  A    between atoms: C10_19  and  N5_20 
REMARK    4  A    between atoms: N5_20  and  C11_22 
REMARK    5  A    between atoms: C11_22  and  C13_24 
REMARK    6  A    between atoms: C13_24  and  C16_27 
ROOT
HETATM    1  C1  UNL     1      79.337   2.162  23.897  1.00  0.00     0.089 C 
HETATM    2  C2  UNL     1      78.214   1.585  24.717  1.00  0.00     0.080 A 
HETATM    3  N1  UNL     1      77.464   2.400  25.494  1.00  0.00    -0.330 N 
ATOM      4  H1  UNL     1      77.663   3.400  25.522  1.00  0.00     0.168 HD
HETATM    5  C3  UNL     1      76.459   1.894  26.228  1.00  0.00     0.142 A 
HETATM    6  C4  UNL     1      76.223   0.554  26.168  1.00  0.00     0.123 A 
HETATM    7  N2  UNL     1      75.169   0.326  26.998  1.00  0.00    -0.327 N 
ATOM      8  H2  UNL     1      74.741  -0.582  27.179  1.00  0.00     0.168 HD
HETATM    9  C5  UNL     1      74.784   1.494  27.539  1.00  0.00     0.193 A 
HETATM   10  C6  UNL     1      73.710   1.690  28.466  1.00  0.00     0.137 C 
HETATM   11  N3  UNL     1      72.826   1.829  29.220  1.00  0.00    -0.188 NA
HETATM   12  N4  UNL     1      75.569   2.476  27.078  1.00  0.00    -0.295 N 
HETATM   13  C10 UNL     1      76.985  -0.293  25.375  1.00  0.00     0.134 A 
HETATM   14  N6  UNL     1      77.977   0.264  24.660  1.00  0.00    -0.331 N 
ATOM     15  H6  UNL     1      78.560  -0.325  24.065  1.00  0.00     0.168 HD
ENDROOT
BRANCH  12  16
HETATM   16  C7  UNL     1      75.526   3.873  27.380  1.00  0.00     0.197 C 
HETATM   17  C8  UNL     1      74.163   4.479  27.418  1.00  0.00     0.042 C 
BRANCH  16  18
HETATM   18  C9  UNL     1      76.253   4.194  28.687  1.00  0.00     0.407 C 
HETATM   19  F1  UNL     1      77.613   3.922  28.538  1.00  0.00    -0.169 F 
HETATM   20  F2  UNL     1      75.791   3.425  29.731  1.00  0.00    -0.169 F 
HETATM   21  F3  UNL     1      76.117   5.545  28.914  1.00  0.00    -0.169 F 
ENDBRANCH  16  18
ENDBRANCH  12  16
BRANCH  13  22
HETATM   22  N5  UNL     1      76.734  -1.539  25.344  1.00  0.00    -0.369 N 
ATOM     23  H5  UNL     1      75.751  -1.809  25.329  1.00  0.00     0.161 HD
BRANCH  22  24
HETATM   24  C11 UNL     1      77.705  -2.607  25.328  1.00  0.00     0.087 C 
HETATM   25  C12 UNL     1      78.969  -2.195  24.671  1.00  0.00     0.033 C 
BRANCH  24  26
HETATM   26  C13 UNL     1      77.112  -3.904  24.842  1.00  0.00    -0.022 C 
HETATM   27  C14 UNL     1      76.388  -3.701  23.539  1.00  0.00     0.017 C 
HETATM   28  C15 UNL     1      78.339  -4.778  24.508  1.00  0.00     0.017 C 
BRANCH  26  29
HETATM   29  C16 UNL     1      76.338  -4.679  25.846  1.00  0.00     0.019 C 
HETATM   30  C17 UNL     1      77.358  -5.136  26.903  1.00  0.00     0.009 C 
HETATM   31  C18 UNL     1      76.785  -6.038  27.924  1.00  0.00     0.027 C 
HETATM   32  C19 UNL     1      75.736  -6.985  27.418  1.00  0.00     0.167 C 
HETATM   33  O1  UNL     1      74.931  -6.433  26.434  1.00  0.00    -0.391 OA
HETATM   34  C20 UNL     1      75.698  -5.945  25.345  1.00  0.00     0.172 C 
ENDBRANCH  26  29
ENDBRANCH  24  26
ENDBRANCH  22  24
ENDBRANCH  13  22
TORSDOF 6
ENDMDL
MODEL 4
REMARK VINA RESULT: -9.283925668      1.410      3.171
REMARK  6 active torsions:
REMARK  status: ('A' for Active; 'I' for Inactive)
REMARK    1  A    between atoms: N4_12  and  C7_13 
REMARK    2  A    between atoms: C7_13  and  C9_15 
REMARK    3  A    between atoms: C10_19  and  N5_20 
REMARK    4  A    between atoms: N5_20  and  C11_22 
REMARK    5  A    between atoms: C11_22  and  C13_24 
REMARK    6  A    between atoms: C13_24  and  C16_27 
ROOT
HETATM    1  C1  UNL     1      72.844  -0.467  28.689  1.00  0.00     0.089 C 
HETATM    2  C2  UNL     1      74.009  -0.201  27.774  1.00  0.00     0.080 A 
HETATM    3  N1  UNL     1      74.500   1.054  27.661  1.00  0.00    -0.330 N 
ATOM      4  H1  UNL     1      74.079   1.815  28.194  1.00  0.00     0.168 HD
HETATM    5  C3  UNL     1      75.540   1.302  26.847  1.00  0.00     0.142 A 
HETATM    6  C4  UNL     1      76.076   0.262  26.149  1.00  0.00     0.123 A 
HETATM    7  N2  UNL     1      77.095   0.794  25.419  1.00  0.00    -0.327 N 
ATOM      8  H2  UNL     1      77.703   0.277  24.784  1.00  0.00     0.168 HD
HETATM    9  C5  UNL     1      77.167   2.112  25.673  1.00  0.00     0.193 A 
HETATM   10  C6  UNL     1      78.102   3.037  25.107  1.00  0.00     0.137 C 
HETATM   11  N3  UNL     1      78.878   3.777  24.637  1.00  0.00    -0.188 NA
HETATM   12  N4  UNL     1      76.215   2.446  26.552  1.00  0.00    -0.295 N 
HETATM   13  C10 UNL     1      75.582  -1.031  26.255  1.00  0.00     0.134 A 
HETATM   14  N6  UNL     1      74.542  -1.222  27.083  1.00  0.00    -0.331 N 
ATOM     15  H6  UNL     1      74.150  -2.158  27.189  1.00  0.00     0.168 HD
ENDROOT
BRANCH  12  16
HETATM   16  C7  UNL     1      75.919   3.730  27.106  1.00  0.00     0.197 C 
HETATM   17  C8  UNL     1      74.469   4.028  27.295  1.00  0.00     0.042 C 
BRANCH  16  18
HETATM   18  C9  UNL     1      76.652   3.961  28.430  1.00  0.00     0.407 C 
HETATM   19  F1  UNL     1      76.465   5.283  28.835  1.00  0.00    -0.169 F 
HETATM   20  F2  UNL     1      78.007   3.757  28.306  1.00  0.00    -0.169 F 
HETATM   21  F3  UNL     1      76.070   3.146  29.373  1.00  0.00    -0.169 F 
ENDBRANCH  16  18
ENDBRANCH  12  16
BRANCH  13  22
HETATM   22  N5  UNL     1      76.110  -1.974  25.587  1.00  0.00    -0.369 N 
ATOM     23  H5  UNL     1      75.529  -2.413  24.873  1.00  0.00     0.161 HD
BRANCH  22  24
HETATM   24  C11 UNL     1      77.451  -2.485  25.742  1.00  0.00     0.087 C 
HETATM   25  C12 UNL     1      78.353  -2.002  24.669  1.00  0.00     0.033 C 
BRANCH  24  26
HETATM   26  C13 UNL     1      77.466  -3.973  25.984  1.00  0.00    -0.022 C 
HETATM   27  C14 UNL     1      76.063  -4.513  26.052  1.00  0.00     0.017 C 
HETATM   28  C15 UNL     1      78.078  -4.558  24.694  1.00  0.00     0.017 C 
BRANCH  26  29
HETATM   29  C16 UNL     1      78.345  -4.441  27.085  1.00  0.00     0.019 C 
HETATM   30  C17 UNL     1      79.692  -4.792  26.428  1.00  0.00     0.009 C 
HETATM   31  C18 UNL     1      80.661  -5.404  27.361  1.00  0.00     0.027 C 
HETATM   32  C19 UNL     1      80.061  -6.309  28.398  1.00  0.00     0.167 C 
HETATM   33  O1  UNL     1      78.824  -5.875  28.850  1.00  0.00    -0.391 OA
HETATM   34  C20 UNL     1      77.908  -5.701  27.781  1.00  0.00     0.172 C 
ENDBRANCH  26  29
ENDBRANCH  24  26
ENDBRANCH  22  24
ENDBRANCH  13  22
TORSDOF 6
ENDMDL
MODEL 5
REMARK VINA RESULT: -9.205483578      1.636      2.634
REMARK  6 active torsions:
REMARK  status: ('A' for Active; 'I' for Inactive)
REMARK    1  A    between atoms: N4_12  and  C7_13 
REMARK    2  A    between atoms: C7_13  and  C9_15 
REMARK    3  A    between atoms: C10_19  and  N5_20 
REMARK    4  A    between atoms: N5_20  and  C11_22 
REMARK    5  A    between atoms: C11_22  and  C13_24 
REMARK    6  A    between atoms: C13_24  and  C16_27 
ROOT
HETATM    1  C1  UNL     1      79.272   1.691  23.918  1.00  0.00     0.089 C 
HETATM    2  C2  UNL     1      78.133   1.169  24.753  1.00  0.00     0.080 A 
HETATM    3  N1  UNL     1      77.383   2.032  25.478  1.00  0.00    -0.330 N 
ATOM      4  H1  UNL     1      77.592   3.030  25.456  1.00  0.00     0.168 HD
HETATM    5  C3  UNL     1      76.364   1.576  26.226  1.00  0.00     0.142 A 
HETATM    6  C4  UNL     1      76.115   0.237  26.233  1.00  0.00     0.123 A 
HETATM    7  N2  UNL     1      75.049   0.064  27.061  1.00  0.00    -0.327 N 
ATOM      8  H2  UNL     1      74.609  -0.829  27.285  1.00  0.00     0.168 HD
HETATM    9  C5  UNL     1      74.671   1.263  27.536  1.00  0.00     0.193 A 
HETATM   10  C6  UNL     1      73.589   1.517  28.439  1.00  0.00     0.137 C 
HETATM   11  N3  UNL     1      72.697   1.705  29.174  1.00  0.00    -0.188 NA
HETATM   12  N4  UNL     1      75.471   2.211  27.033  1.00  0.00    -0.295 N 
HETATM   13  C10 UNL     1      76.877  -0.659  25.495  1.00  0.00     0.134 A 
HETATM   14  N6  UNL     1      77.883  -0.150  24.764  1.00  0.00    -0.331 N 
ATOM     15  H6  UNL     1      78.466  -0.776  24.207  1.00  0.00     0.168 HD
ENDROOT
BRANCH  12  16
HETATM   16  C7  UNL     1      75.440   3.621  27.260  1.00  0.00     0.197 C 
HETATM   17  C8  UNL     1      74.081   4.214  27.425  1.00  0.00     0.042 C 
BRANCH  16  18
HETATM   18  C9  UNL     1      76.309   4.024  28.454  1.00  0.00     0.407 C 
HETATM   19  F1  UNL     1      76.121   5.380  28.724  1.00  0.00    -0.169 F 
HETATM   20  F2  UNL     1      77.648   3.837  28.198  1.00  0.00    -0.169 F 
HETATM   21  F3  UNL     1      75.866   3.314  29.546  1.00  0.00    -0.169 F 
ENDBRANCH  16  18
ENDBRANCH  12  16
BRANCH  13  22
HETATM   22  N5  UNL     1      76.613  -1.901  25.527  1.00  0.00    -0.369 N 
ATOM     23  H5  UNL     1      75.810  -2.187  26.087  1.00  0.00     0.161 HD
BRANCH  22  24
HETATM   24  C11 UNL     1      77.338  -2.948  24.847  1.00  0.00     0.087 C 
HETATM   25  C12 UNL     1      77.105  -2.920  23.382  1.00  0.00     0.033 C 
BRANCH  24  26
HETATM   26  C13 UNL     1      77.153  -4.289  25.510  1.00  0.00    -0.022 C 
HETATM   27  C14 UNL     1      78.453  -5.046  25.545  1.00  0.00     0.017 C 
HETATM   28  C15 UNL     1      76.831  -3.942  26.978  1.00  0.00     0.017 C 
BRANCH  26  29
HETATM   29  C16 UNL     1      76.000  -5.093  25.033  1.00  0.00     0.019 C 
HETATM   30  C17 UNL     1      75.531  -5.916  26.245  1.00  0.00     0.009 C 
HETATM   31  C18 UNL     1      74.461  -6.884  25.923  1.00  0.00     0.027 C 
HETATM   32  C19 UNL     1      74.565  -7.517  24.566  1.00  0.00     0.167 C 
HETATM   33  O1  UNL     1      75.051  -6.654  23.596  1.00  0.00    -0.391 OA
HETATM   34  C20 UNL     1      76.306  -6.108  23.964  1.00  0.00     0.172 C 
ENDBRANCH  26  29
ENDBRANCH  24  26
ENDBRANCH  22  24
ENDBRANCH  13  22
TORSDOF 6
ENDMDL
