MODEL 1
REMARK VINA RESULT: -8.773167585      0.000      0.000
REMARK  5 active torsions:
REMARK  status: ('A' for Active; 'I' for Inactive)
REMARK    1  A    between atoms: O1_2  and  C2_3 
REMARK    2  A    between atoms: C4_5  and  C5_6 
REMARK    3  A    between atoms: C7_9  and  C8_10 
REMARK    4  A    between atoms: C18_25  and  O5_26 
REMARK    5  A    between atoms: C19_28  and  O6_29 
ROOT
HETATM    1  C5  UNL     1      78.391  -2.469  24.585  1.00  0.00     0.074 C 
HETATM    2  C6  UNL     1      77.770  -3.558  25.325  1.00  0.00     0.180 C 
HETATM    3  O2  UNL     1      78.525  -4.522  25.979  1.00  0.00    -0.378 OA
HETATM    4  C7  UNL     1      79.867  -4.475  25.959  1.00  0.00     0.192 C 
HETATM    5  C14 UNL     1      80.137  -2.972  26.135  1.00  0.00     0.187 C 
HETATM    6  O3  UNL     1      81.459  -2.724  26.281  1.00  0.00    -0.356 OA
HETATM    7  C15 UNL     1      81.752  -1.643  25.479  1.00  0.00     0.339 C 
HETATM    8  O4  UNL     1      80.577  -1.343  24.750  1.00  0.00    -0.358 OA
HETATM    9  C16 UNL     1      79.929  -2.511  24.676  1.00  0.00     0.166 C 
ENDROOT
BRANCH   1  10
HETATM   10  C4  UNL     1      77.982  -1.070  24.853  1.00  0.00    -0.044 A 
HETATM   11  C3  UNL     1      76.938  -0.882  25.763  1.00  0.00     0.047 A 
HETATM   12  C2  UNL     1      76.458   0.363  26.056  1.00  0.00     0.104 A 
HETATM   13  C19 UNL     1      77.005   1.473  25.452  1.00  0.00     0.134 A 
HETATM   14  C18 UNL     1      78.067   1.289  24.522  1.00  0.00     0.102 A 
HETATM   15  C17 UNL     1      78.525   0.021  24.248  1.00  0.00     0.047 A 
BRANCH  12  16
HETATM   16  O1  UNL     1      75.432   0.602  26.944  1.00  0.00    -0.353 OA
HETATM   17  C1  UNL     1      74.430  -0.358  27.250  1.00  0.00     0.210 C 
ENDBRANCH  12  16
BRANCH  13  18
HETATM   18  O6  UNL     1      76.573   2.720  25.683  1.00  0.00    -0.351 OA
HETATM   19  C20 UNL     1      76.755   3.693  26.617  1.00  0.00     0.210 C 
ENDBRANCH  13  18
BRANCH  14  20
HETATM   20  O5  UNL     1      78.632   2.378  23.908  1.00  0.00    -0.358 OA
ATOM     21  H5  UNL     1      78.387   3.258  24.170  1.00  0.00     0.217 HD
ENDBRANCH  14  20
ENDBRANCH   1  10
BRANCH   4  22
HETATM   22  C8  UNL     1      80.520  -5.078  27.111  1.00  0.00     0.051 A 
HETATM   23  C9  UNL     1      81.834  -5.558  26.979  1.00  0.00     0.131 A 
HETATM   24  F1  UNL     1      82.477  -5.474  25.792  1.00  0.00    -0.205 F 
HETATM   25  C10 UNL     1      82.506  -6.118  28.067  1.00  0.00     0.085 A 
HETATM   26  C11 UNL     1      81.893  -6.219  29.299  1.00  0.00     0.122 A 
HETATM   27  F2  UNL     1      82.571  -6.760  30.347  1.00  0.00    -0.206 F 
HETATM   28  C12 UNL     1      80.620  -5.765  29.437  1.00  0.00     0.085 A 
HETATM   29  C13 UNL     1      79.938  -5.195  28.344  1.00  0.00     0.131 A 
HETATM   30  F3  UNL     1      78.667  -4.844  28.589  1.00  0.00    -0.205 F 
ENDBRANCH   4  22
TORSDOF 5
ENDMDL
MODEL 2
REMARK VINA RESULT: -8.677787567      0.140      1.534
REMARK  5 active torsions:
REMARK  status: ('A' for Active; 'I' for Inactive)
REMARK    1  A    between atoms: O1_2  and  C2_3 
REMARK    2  A    between atoms: C4_5  and  C5_6 
REMARK    3  A    between atoms: C7_9  and  C8_10 
REMARK    4  A    between atoms: C18_25  and  O5_26 
REMARK    5  A    between atoms: C19_28  and  O6_29 
ROOT
HETATM    1  C5  UNL     1      78.328  -2.402  24.613  1.00  0.00     0.074 C 
HETATM    2  C6  UNL     1      77.748  -3.513  25.356  1.00  0.00     0.180 C 
HETATM    3  O2  UNL     1      78.539  -4.473  25.971  1.00  0.00    -0.378 OA
HETATM    4  C7  UNL     1      79.879  -4.405  25.908  1.00  0.00     0.192 C 
HETATM    5  C14 UNL     1      80.131  -2.900  26.098  1.00  0.00     0.187 C 
HETATM    6  O3  UNL     1      81.453  -2.633  26.205  1.00  0.00    -0.356 OA
HETATM    7  C15 UNL     1      81.703  -1.536  25.411  1.00  0.00     0.339 C 
HETATM    8  O4  UNL     1      80.500  -1.244  24.724  1.00  0.00    -0.358 OA
HETATM    9  C16 UNL     1      79.868  -2.421  24.654  1.00  0.00     0.166 C 
ENDROOT
BRANCH   1  10
HETATM   10  C4  UNL     1      77.906  -1.014  24.915  1.00  0.00    -0.044 A 
HETATM   11  C3  UNL     1      76.841  -0.860  25.807  1.00  0.00     0.047 A 
HETATM   12  C2  UNL     1      76.348   0.374  26.127  1.00  0.00     0.104 A 
HETATM   13  C19 UNL     1      76.904   1.505  25.571  1.00  0.00     0.134 A 
HETATM   14  C18 UNL     1      77.988   1.354  24.661  1.00  0.00     0.102 A 
HETATM   15  C17 UNL     1      78.458   0.098  24.358  1.00  0.00     0.047 A 
BRANCH  12  16
HETATM   16  O1  UNL     1      75.301   0.580  26.999  1.00  0.00    -0.353 OA
HETATM   17  C1  UNL     1      74.330  -0.414  27.296  1.00  0.00     0.210 C 
ENDBRANCH  12  16
BRANCH  13  18
HETATM   18  O6  UNL     1      76.461   2.742  25.831  1.00  0.00    -0.351 OA
HETATM   19  C20 UNL     1      76.586   3.671  26.817  1.00  0.00     0.210 C 
ENDBRANCH  13  18
BRANCH  14  20
HETATM   20  O5  UNL     1      78.562   2.464  24.094  1.00  0.00    -0.358 OA
ATOM     21  H5  UNL     1      79.062   2.388  23.290  1.00  0.00     0.217 HD
ENDBRANCH  14  20
ENDBRANCH   1  10
BRANCH   4  22
HETATM   22  C8  UNL     1      80.578  -5.014  27.030  1.00  0.00     0.051 A 
HETATM   23  C9  UNL     1      79.922  -5.123  28.266  1.00  0.00     0.131 A 
HETATM   24  F1  UNL     1      78.662  -4.654  28.416  1.00  0.00    -0.205 F 
HETATM   25  C10 UNL     1      80.546  -5.725  29.360  1.00  0.00     0.085 A 
HETATM   26  C11 UNL     1      81.829  -6.223  29.253  1.00  0.00     0.122 A 
HETATM   27  F2  UNL     1      82.413  -6.814  30.330  1.00  0.00    -0.206 F 
HETATM   28  C12 UNL     1      82.477  -6.117  28.064  1.00  0.00     0.085 A 
HETATM   29  C13 UNL     1      81.850  -5.513  26.956  1.00  0.00     0.131 A 
HETATM   30  F3  UNL     1      82.614  -5.411  25.859  1.00  0.00    -0.205 F 
ENDBRANCH   4  22
TORSDOF 5
ENDMDL
MODEL 3
REMARK VINA RESULT: -8.132136888      6.001      8.292
REMARK  5 active torsions:
REMARK  status: ('A' for Active; 'I' for Inactive)
REMARK    1  A    between atoms: O1_2  and  C2_3 
REMARK    2  A    between atoms: C4_5  and  C5_6 
REMARK    3  A    between atoms: C7_9  and  C8_10 
REMARK    4  A    between atoms: C18_25  and  O5_26 
REMARK    5  A    between atoms: C19_28  and  O6_29 
ROOT
HETATM    1  C5  UNL     1      75.102  -6.151  25.832  1.00  0.00     0.074 C 
HETATM    2  C6  UNL     1      74.414  -7.106  26.691  1.00  0.00     0.180 C 
HETATM    3  O2  UNL     1      73.781  -8.228  26.174  1.00  0.00    -0.378 OA
HETATM    4  C7  UNL     1      73.790  -8.478  24.854  1.00  0.00     0.192 C 
HETATM    5  C14 UNL     1      75.232  -8.108  24.470  1.00  0.00     0.187 C 
HETATM    6  O3  UNL     1      75.493  -8.424  23.180  1.00  0.00    -0.356 OA
HETATM    7  C15 UNL     1      76.154  -7.347  22.632  1.00  0.00     0.339 C 
HETATM    8  O4  UNL     1      76.158  -6.326  23.613  1.00  0.00    -0.358 OA
HETATM    9  C16 UNL     1      75.071  -6.577  24.352  1.00  0.00     0.166 C 
ENDROOT
BRANCH   1  10
HETATM   10  C4  UNL     1      76.498  -5.759  26.139  1.00  0.00    -0.044 A 
HETATM   11  C3  UNL     1      76.973  -4.592  25.535  1.00  0.00     0.047 A 
HETATM   12  C2  UNL     1      78.255  -4.160  25.721  1.00  0.00     0.104 A 
HETATM   13  C19 UNL     1      79.116  -4.877  26.523  1.00  0.00     0.134 A 
HETATM   14  C18 UNL     1      78.639  -6.068  27.140  1.00  0.00     0.102 A 
HETATM   15  C17 UNL     1      77.342  -6.476  26.930  1.00  0.00     0.047 A 
BRANCH  12  16
HETATM   16  O1  UNL     1      78.772  -3.018  25.149  1.00  0.00    -0.353 OA
HETATM   17  C1  UNL     1      77.962  -2.004  24.571  1.00  0.00     0.210 C 
ENDBRANCH  12  16
BRANCH  13  18
HETATM   18  O6  UNL     1      80.389  -4.517  26.737  1.00  0.00    -0.351 OA
HETATM   19  C20 UNL     1      81.563  -4.509  26.049  1.00  0.00     0.210 C 
ENDBRANCH  13  18
BRANCH  14  20
HETATM   20  O5  UNL     1      79.474  -6.800  27.946  1.00  0.00    -0.358 OA
ATOM     21  H5  UNL     1      79.975  -6.373  28.632  1.00  0.00     0.217 HD
ENDBRANCH  14  20
ENDBRANCH   1  10
BRANCH   4  22
HETATM   22  C8  UNL     1      73.690  -9.884  24.495  1.00  0.00     0.051 A 
HETATM   23  C9  UNL     1      72.862 -10.258  23.424  1.00  0.00     0.131 A 
HETATM   24  F1  UNL     1      72.156  -9.325  22.746  1.00  0.00    -0.205 F 
HETATM   25  C10 UNL     1      72.758 -11.594  23.028  1.00  0.00     0.085 A 
HETATM   26  C11 UNL     1      73.465 -12.580  23.686  1.00  0.00     0.122 A 
HETATM   27  F2  UNL     1      73.355 -13.873  23.277  1.00  0.00    -0.206 F 
HETATM   28  C12 UNL     1      74.262 -12.231  24.728  1.00  0.00     0.085 A 
HETATM   29  C13 UNL     1      74.373 -10.885  25.129  1.00  0.00     0.131 A 
HETATM   30  F3  UNL     1      75.141 -10.677  26.209  1.00  0.00    -0.205 F 
ENDBRANCH   4  22
TORSDOF 5
ENDMDL
MODEL 4
REMARK VINA RESULT: -7.966278219      5.924      8.213
REMARK  5 active torsions:
REMARK  status: ('A' for Active; 'I' for Inactive)
REMARK    1  A    between atoms: O1_2  and  C2_3 
REMARK    2  A    between atoms: C4_5  and  C5_6 
REMARK    3  A    between atoms: C7_9  and  C8_10 
REMARK    4  A    between atoms: C18_25  and  O5_26 
REMARK    5  A    between atoms: C19_28  and  O6_29 
ROOT
HETATM    1  C5  UNL     1      75.204  -6.099  25.839  1.00  0.00     0.074 C 
HETATM    2  C6  UNL     1      74.513  -7.060  26.689  1.00  0.00     0.180 C 
HETATM    3  O2  UNL     1      73.864  -8.168  26.162  1.00  0.00    -0.378 OA
HETATM    4  C7  UNL     1      73.861  -8.399  24.839  1.00  0.00     0.192 C 
HETATM    5  C14 UNL     1      75.304  -8.038  24.449  1.00  0.00     0.187 C 
HETATM    6  O3  UNL     1      75.552  -8.339  23.152  1.00  0.00    -0.356 OA
HETATM    7  C15 UNL     1      76.220  -7.261  22.615  1.00  0.00     0.339 C 
HETATM    8  O4  UNL     1      76.242  -6.254  23.610  1.00  0.00    -0.358 OA
HETATM    9  C16 UNL     1      75.158  -6.504  24.354  1.00  0.00     0.166 C 
ENDROOT
BRANCH   1  10
HETATM   10  C4  UNL     1      76.606  -5.727  26.141  1.00  0.00    -0.044 A 
HETATM   11  C3  UNL     1      77.099  -4.572  25.526  1.00  0.00     0.047 A 
HETATM   12  C2  UNL     1      78.388  -4.159  25.707  1.00  0.00     0.104 A 
HETATM   13  C19 UNL     1      79.238  -4.882  26.515  1.00  0.00     0.134 A 
HETATM   14  C18 UNL     1      78.744  -6.059  27.142  1.00  0.00     0.102 A 
HETATM   15  C17 UNL     1      77.441  -6.449  26.937  1.00  0.00     0.047 A 
BRANCH  12  16
HETATM   16  O1  UNL     1      78.922  -3.030  25.124  1.00  0.00    -0.353 OA
HETATM   17  C1  UNL     1      78.127  -2.001  24.552  1.00  0.00     0.210 C 
ENDBRANCH  12  16
BRANCH  13  18
HETATM   18  O6  UNL     1      80.517  -4.540  26.724  1.00  0.00    -0.351 OA
HETATM   19  C20 UNL     1      81.678  -4.498  26.015  1.00  0.00     0.210 C 
ENDBRANCH  13  18
BRANCH  14  20
HETATM   20  O5  UNL     1      79.568  -6.797  27.954  1.00  0.00    -0.358 OA
ATOM     21  H5  UNL     1      79.242  -7.155  28.772  1.00  0.00     0.217 HD
ENDBRANCH  14  20
ENDBRANCH   1  10
BRANCH   4  22
HETATM   22  C8  UNL     1      73.743  -9.799  24.460  1.00  0.00     0.051 A 
HETATM   23  C9  UNL     1      74.403 -10.772  25.228  1.00  0.00     0.131 A 
HETATM   24  F1  UNL     1      75.151 -10.410  26.295  1.00  0.00    -0.205 F 
HETATM   25  C10 UNL     1      74.294 -12.129  24.915  1.00  0.00     0.085 A 
HETATM   26  C11 UNL     1      73.538 -12.545  23.839  1.00  0.00     0.122 A 
HETATM   27  F2  UNL     1      73.439 -13.873  23.560  1.00  0.00    -0.206 F 
HETATM   28  C12 UNL     1      72.901 -11.613  23.085  1.00  0.00     0.085 A 
HETATM   29  C13 UNL     1      73.005 -10.243  23.397  1.00  0.00     0.131 A 
HETATM   30  F3  UNL     1      72.384  -9.417  22.542  1.00  0.00    -0.205 F 
ENDBRANCH   4  22
TORSDOF 5
ENDMDL
MODEL 5
REMARK VINA RESULT: -7.903749554      0.555      2.531
REMARK  5 active torsions:
REMARK  status: ('A' for Active; 'I' for Inactive)
REMARK    1  A    between atoms: O1_2  and  C2_3 
REMARK    2  A    between atoms: C4_5  and  C5_6 
REMARK    3  A    between atoms: C7_9  and  C8_10 
REMARK    4  A    between atoms: C18_25  and  O5_26 
REMARK    5  A    between atoms: C19_28  and  O6_29 
ROOT
HETATM    1  C5  UNL     1      78.031  -2.736  24.753  1.00  0.00     0.074 C 
HETATM    2  C6  UNL     1      77.596  -3.925  25.475  1.00  0.00     0.180 C 
HETATM    3  O2  UNL     1      78.504  -4.813  26.034  1.00  0.00    -0.378 OA
HETATM    4  C7  UNL     1      79.827  -4.599  25.936  1.00  0.00     0.192 C 
HETATM    5  C14 UNL     1      79.922  -3.082  26.170  1.00  0.00     0.187 C 
HETATM    6  O3  UNL     1      81.211  -2.678  26.249  1.00  0.00    -0.356 OA
HETATM    7  C15 UNL     1      81.318  -1.537  25.486  1.00  0.00     0.339 C 
HETATM    8  O4  UNL     1      80.069  -1.355  24.843  1.00  0.00    -0.358 OA
HETATM    9  C16 UNL     1      79.565  -2.590  24.750  1.00  0.00     0.166 C 
ENDROOT
BRANCH   1  10
HETATM   10  C4  UNL     1      77.473  -1.412  25.115  1.00  0.00    -0.044 A 
HETATM   11  C3  UNL     1      78.093  -0.292  24.555  1.00  0.00     0.047 A 
HETATM   12  C2  UNL     1      77.682   0.977  24.850  1.00  0.00     0.104 A 
HETATM   13  C19 UNL     1      76.629   1.178  25.715  1.00  0.00     0.134 A 
HETATM   14  C18 UNL     1      75.993   0.042  26.289  1.00  0.00     0.102 A 
HETATM   15  C17 UNL     1      76.434  -1.222  25.973  1.00  0.00     0.047 A 
BRANCH  12  16
HETATM   16  O1  UNL     1      78.260   2.114  24.326  1.00  0.00    -0.353 OA
HETATM   17  C1  UNL     1      79.566   2.134  23.767  1.00  0.00     0.210 C 
ENDBRANCH  12  16
BRANCH  13  18
HETATM   18  O6  UNL     1      76.184   2.395  26.057  1.00  0.00    -0.351 OA
HETATM   19  C20 UNL     1      76.448   3.335  27.004  1.00  0.00     0.210 C 
ENDBRANCH  13  18
BRANCH  14  20
HETATM   20  O5  UNL     1      74.940   0.213  27.152  1.00  0.00    -0.358 OA
ATOM     21  H5  UNL     1      74.061  -0.037  26.891  1.00  0.00     0.217 HD
ENDBRANCH  14  20
ENDBRANCH   1  10
BRANCH   4  22
HETATM   22  C8  UNL     1      80.622  -5.163  27.016  1.00  0.00     0.051 A 
HETATM   23  C9  UNL     1      80.040  -5.315  28.285  1.00  0.00     0.131 A 
HETATM   24  F1  UNL     1      78.763  -4.927  28.504  1.00  0.00    -0.205 F 
HETATM   25  C10 UNL     1      80.760  -5.877  29.342  1.00  0.00     0.085 A 
HETATM   26  C11 UNL     1      82.063  -6.293  29.165  1.00  0.00     0.122 A 
HETATM   27  F2  UNL     1      82.741  -6.846  30.207  1.00  0.00    -0.206 F 
HETATM   28  C12 UNL     1      82.639  -6.144  27.944  1.00  0.00     0.085 A 
HETATM   29  C13 UNL     1      81.917  -5.581  26.873  1.00  0.00     0.131 A 
HETATM   30  F3  UNL     1      82.613  -5.429  25.737  1.00  0.00    -0.205 F 
ENDBRANCH   4  22
TORSDOF 5
ENDMDL
