MODEL 1
REMARK VINA RESULT: -5.983605184      0.000      0.000
REMARK  3 active torsions:
REMARK  status: ('A' for Active; 'I' for Inactive)
REMARK    1  A    between atoms: N3_4  and  C2_6 
REMARK    2  A    between atoms: C2_6  and  C3_7 
REMARK    3  A    between atoms: C3_7  and  N4_8 
ROOT
HETATM    1  N4  UNL     1      78.085  26.040  40.131  1.00  0.00    -0.390 N 
HETATM    2  C4  UNL     1      78.424  25.672  38.794  1.00  0.00     0.123 C 
HETATM    3  C5  UNL     1      79.225  26.748  38.095  1.00  0.00     0.039 C 
HETATM    4  C6  UNL     1      78.369  27.882  37.608  1.00  0.00     0.115 C 
HETATM    5  N5  UNL     1      78.057  28.864  38.590  1.00  0.00    -0.420 N 
ATOM      6  H5  UNL     1      77.828  29.826  38.344  1.00  0.00     0.153 HD
HETATM    7  C7  UNL     1      78.088  28.407  39.954  1.00  0.00     0.133 C 
HETATM    8  C8  UNL     1      77.255  27.207  40.239  1.00  0.00     0.141 C 
ENDROOT
BRANCH   1   9
HETATM    9  C3  UNL     1      77.738  25.029  41.029  1.00  0.00     0.077 C 
BRANCH   9  10
HETATM   10  C2  UNL     1      77.903  25.279  42.485  1.00  0.00     0.166 C 
BRANCH  10  11
HETATM   11  N3  UNL     1      76.847  26.237  42.853  1.00  0.00    -0.362 N 
HETATM   12  C1  UNL     1      76.305  26.195  44.023  1.00  0.00     0.197 C 
HETATM   13  N1  UNL     1      76.625  25.290  45.042  1.00  0.00    -0.067 NA
HETATM   14  N2  UNL     1      75.289  27.164  44.290  1.00  0.00    -0.067 NA
ATOM     15  H3  UNL     1      76.542  26.938  42.178  1.00  0.00     0.162 HD
ENDBRANCH  10  11
ENDBRANCH   9  10
ENDBRANCH   1   9
TORSDOF 3
ENDMDL
MODEL 2
REMARK VINA RESULT: -5.886965161      1.223      1.981
REMARK  3 active torsions:
REMARK  status: ('A' for Active; 'I' for Inactive)
REMARK    1  A    between atoms: N3_4  and  C2_6 
REMARK    2  A    between atoms: C2_6  and  C3_7 
REMARK    3  A    between atoms: C3_7  and  N4_8 
ROOT
HETATM    1  N4  UNL     1      77.506  27.009  40.006  1.00  0.00    -0.390 N 
HETATM    2  C4  UNL     1      77.936  28.165  39.286  1.00  0.00     0.123 C 
HETATM    3  C5  UNL     1      78.123  27.879  37.813  1.00  0.00     0.039 C 
HETATM    4  C6  UNL     1      79.415  27.170  37.521  1.00  0.00     0.115 C 
HETATM    5  N5  UNL     1      79.380  25.760  37.710  1.00  0.00    -0.420 N 
ATOM      6  H5  UNL     1      80.014  25.129  37.218  1.00  0.00     0.153 HD
HETATM    7  C7  UNL     1      78.392  25.282  38.640  1.00  0.00     0.133 C 
HETATM    8  C8  UNL     1      78.435  25.914  39.988  1.00  0.00     0.141 C 
ENDROOT
BRANCH   1   9
HETATM    9  C3  UNL     1      76.889  27.191  41.245  1.00  0.00     0.077 C 
BRANCH   9  10
HETATM   10  C2  UNL     1      76.525  25.992  42.045  1.00  0.00     0.166 C 
BRANCH  10  11
HETATM   11  N3  UNL     1      75.869  26.502  43.261  1.00  0.00    -0.362 N 
HETATM   12  C1  UNL     1      76.296  26.157  44.428  1.00  0.00     0.197 C 
HETATM   13  N1  UNL     1      77.376  25.304  44.686  1.00  0.00    -0.067 NA
HETATM   14  N2  UNL     1      75.597  26.702  45.550  1.00  0.00    -0.067 NA
ATOM     15  H3  UNL     1      75.071  27.132  43.180  1.00  0.00     0.162 HD
ENDBRANCH  10  11
ENDBRANCH   9  10
ENDBRANCH   1   9
TORSDOF 3
ENDMDL
MODEL 3
REMARK VINA RESULT: -5.883469499      1.597      5.301
REMARK  3 active torsions:
REMARK  status: ('A' for Active; 'I' for Inactive)
REMARK    1  A    between atoms: N3_4  and  C2_6 
REMARK    2  A    between atoms: C2_6  and  C3_7 
REMARK    3  A    between atoms: C3_7  and  N4_8 
ROOT
HETATM    1  N4  UNL     1      77.284  27.118  41.405  1.00  0.00    -0.390 N 
HETATM    2  C4  UNL     1      78.334  26.253  41.840  1.00  0.00     0.123 C 
HETATM    3  C5  UNL     1      77.820  25.129  42.712  1.00  0.00     0.039 C 
HETATM    4  C6  UNL     1      77.545  25.569  44.122  1.00  0.00     0.115 C 
HETATM    5  N5  UNL     1      76.282  26.194  44.320  1.00  0.00    -0.420 N 
ATOM      6  H5  UNL     1      75.814  26.200  45.226  1.00  0.00     0.153 HD
HETATM    7  C7  UNL     1      75.709  26.817  43.156  1.00  0.00     0.133 C 
HETATM    8  C8  UNL     1      76.591  27.797  42.465  1.00  0.00     0.141 C 
ENDROOT
BRANCH   1   9
HETATM    9  C3  UNL     1      77.507  27.920  40.285  1.00  0.00     0.077 C 
BRANCH   9  10
HETATM   10  C2  UNL     1      77.033  27.444  38.959  1.00  0.00     0.166 C 
BRANCH  10  11
HETATM   11  N3  UNL     1      77.700  26.150  38.734  1.00  0.00    -0.362 N 
HETATM   12  C1  UNL     1      78.893  26.106  38.245  1.00  0.00     0.197 C 
HETATM   13  N1  UNL     1      79.672  27.212  37.883  1.00  0.00    -0.067 NA
HETATM   14  N2  UNL     1      79.459  24.806  38.061  1.00  0.00    -0.067 NA
ATOM     15  H3  UNL     1      77.215  25.283  38.966  1.00  0.00     0.162 HD
ENDBRANCH  10  11
ENDBRANCH   9  10
ENDBRANCH   1   9
TORSDOF 3
ENDMDL
MODEL 4
REMARK VINA RESULT: -5.836873997      0.940      1.788
REMARK  3 active torsions:
REMARK  status: ('A' for Active; 'I' for Inactive)
REMARK    1  A    between atoms: N3_4  and  C2_6 
REMARK    2  A    between atoms: C2_6  and  C3_7 
REMARK    3  A    between atoms: C3_7  and  N4_8 
ROOT
HETATM    1  N4  UNL     1      77.736  26.536  40.591  1.00  0.00    -0.390 N 
HETATM    2  C4  UNL     1      77.727  27.839  41.176  1.00  0.00     0.123 C 
HETATM    3  C5  UNL     1      77.049  28.856  40.285  1.00  0.00     0.039 C 
HETATM    4  C6  UNL     1      77.933  29.323  39.163  1.00  0.00     0.115 C 
HETATM    5  N5  UNL     1      77.963  28.466  38.027  1.00  0.00    -0.420 N 
ATOM      6  H5  UNL     1      78.192  28.808  37.094  1.00  0.00     0.153 HD
HETATM    7  C7  UNL     1      77.649  27.085  38.283  1.00  0.00     0.133 C 
HETATM    8  C8  UNL     1      78.459  26.441  39.353  1.00  0.00     0.141 C 
ENDROOT
BRANCH   1   9
HETATM    9  C3  UNL     1      77.924  25.435  41.428  1.00  0.00     0.077 C 
BRANCH   9  10
HETATM   10  C2  UNL     1      76.730  24.778  42.023  1.00  0.00     0.166 C 
BRANCH  10  11
HETATM   11  N3  UNL     1      75.989  25.843  42.721  1.00  0.00    -0.362 N 
HETATM   12  C1  UNL     1      76.157  26.035  43.985  1.00  0.00     0.197 C 
HETATM   13  N1  UNL     1      77.012  25.305  44.819  1.00  0.00    -0.067 NA
HETATM   14  N2  UNL     1      75.396  27.092  44.576  1.00  0.00    -0.067 NA
ATOM     15  H3  UNL     1      75.340  26.433  42.200  1.00  0.00     0.162 HD
ENDBRANCH  10  11
ENDBRANCH   9  10
ENDBRANCH   1   9
TORSDOF 3
ENDMDL
MODEL 5
REMARK VINA RESULT: -5.764233590      1.327      2.365
REMARK  3 active torsions:
REMARK  status: ('A' for Active; 'I' for Inactive)
REMARK    1  A    between atoms: N3_4  and  C2_6 
REMARK    2  A    between atoms: C2_6  and  C3_7 
REMARK    3  A    between atoms: C3_7  and  N4_8 
ROOT
HETATM    1  N4  UNL     1      77.776  27.353  40.347  1.00  0.00    -0.390 N 
HETATM    2  C4  UNL     1      77.332  25.996  40.405  1.00  0.00     0.123 C 
HETATM    3  C5  UNL     1      78.406  25.028  39.961  1.00  0.00     0.039 C 
HETATM    4  C6  UNL     1      78.541  24.961  38.466  1.00  0.00     0.115 C 
HETATM    5  N5  UNL     1      79.339  25.988  37.889  1.00  0.00    -0.420 N 
ATOM      6  H5  UNL     1      79.816  25.869  36.995  1.00  0.00     0.153 HD
HETATM    7  C7  UNL     1      79.430  27.205  38.651  1.00  0.00     0.133 C 
HETATM    8  C8  UNL     1      78.125  27.811  39.031  1.00  0.00     0.141 C 
ENDROOT
BRANCH   1   9
HETATM    9  C3  UNL     1      77.093  28.306  41.103  1.00  0.00     0.077 C 
BRANCH   9  10
HETATM   10  C2  UNL     1      76.231  27.845  42.224  1.00  0.00     0.166 C 
BRANCH  10  11
HETATM   11  N3  UNL     1      76.992  26.786  42.908  1.00  0.00    -0.362 N 
HETATM   12  C1  UNL     1      76.578  26.307  44.032  1.00  0.00     0.197 C 
HETATM   13  N1  UNL     1      75.422  26.702  44.716  1.00  0.00    -0.067 NA
HETATM   14  N2  UNL     1      77.382  25.282  44.622  1.00  0.00    -0.067 NA
ATOM     15  H3  UNL     1      77.851  26.429  42.490  1.00  0.00     0.162 HD
ENDBRANCH  10  11
ENDBRANCH   9  10
ENDBRANCH   1   9
TORSDOF 3
ENDMDL
