MODEL 1
REMARK VINA RESULT: -6.294563717      0.000      0.000
REMARK  3 active torsions:
REMARK  status: ('A' for Active; 'I' for Inactive)
REMARK       I    between atoms: N3_4  and  C2_6 
REMARK    1  A    between atoms: N5_8  and  C3_10 
REMARK    2  A    between atoms: C3_10  and  C4_11 
REMARK    3  A    between atoms: C4_11  and  N6_12 
ROOT
HETATM    1  N1  UNL     1      75.604  26.054  44.973  1.00  0.00    -0.066 NA
HETATM    2  C1  UNL     1      76.369  26.197  43.781  1.00  0.00     0.203 C 
HETATM    3  N2  UNL     1      77.102  25.074  43.307  1.00  0.00    -0.066 NA
HETATM    4  N3  UNL     1      76.361  27.334  43.191  1.00  0.00    -0.307 N 
ATOM      5  H3  UNL     1      75.806  28.084  43.603  1.00  0.00     0.170 HD
HETATM    6  C2  UNL     1      77.073  27.612  42.004  1.00  0.00     0.190 C 
HETATM    7  N4  UNL     1      78.369  27.086  41.831  1.00  0.00    -0.063 NA
HETATM    8  N5  UNL     1      76.546  28.336  41.094  1.00  0.00    -0.363 N 
ATOM      9  H5  UNL     1      75.608  28.715  41.224  1.00  0.00     0.162 HD
ENDROOT
BRANCH   8  10
HETATM   10  C3  UNL     1      77.278  28.620  39.878  1.00  0.00     0.152 C 
BRANCH  10  11
HETATM   11  C4  UNL     1      76.564  28.008  38.665  1.00  0.00     0.292 C 
BRANCH  11  12
HETATM   12  N6  UNL     1      77.488  27.048  38.101  1.00  0.00     0.090 N 
HETATM   13  C5  UNL     1      77.526  25.768  38.787  1.00  0.00     0.274 C 
HETATM   14  C6  UNL     1      79.011  25.723  38.415  1.00  0.00     0.060 C 
HETATM   15  C7  UNL     1      78.865  27.232  38.561  1.00  0.00     0.274 C 
ENDBRANCH  11  12
ENDBRANCH  10  11
ENDBRANCH   8  10
TORSDOF 3
ENDMDL
MODEL 2
REMARK VINA RESULT: -4.907940608      1.506      2.224
REMARK  3 active torsions:
REMARK  status: ('A' for Active; 'I' for Inactive)
REMARK       I    between atoms: N3_4  and  C2_6 
REMARK    1  A    between atoms: N5_8  and  C3_10 
REMARK    2  A    between atoms: C3_10  and  C4_11 
REMARK    3  A    between atoms: C4_11  and  N6_12 
ROOT
HETATM    1  N1  UNL     1      75.317  27.121  44.604  1.00  0.00    -0.066 NA
HETATM    2  C1  UNL     1      76.310  26.278  44.028  1.00  0.00     0.203 C 
HETATM    3  N2  UNL     1      76.857  25.233  44.823  1.00  0.00    -0.066 NA
HETATM    4  N3  UNL     1      76.664  26.502  42.817  1.00  0.00    -0.307 N 
ATOM      5  H3  UNL     1      76.218  27.275  42.323  1.00  0.00     0.170 HD
HETATM    6  C2  UNL     1      77.635  25.744  42.126  1.00  0.00     0.190 C 
HETATM    7  N4  UNL     1      78.793  25.313  42.803  1.00  0.00    -0.063 NA
HETATM    8  N5  UNL     1      77.464  25.453  40.895  1.00  0.00    -0.363 N 
ATOM      9  H5  UNL     1      76.624  25.768  40.408  1.00  0.00     0.162 HD
ENDROOT
BRANCH   8  10
HETATM   10  C3  UNL     1      78.459  24.676  40.188  1.00  0.00     0.152 C 
BRANCH  10  11
HETATM   11  C4  UNL     1      78.600  25.170  38.742  1.00  0.00     0.292 C 
BRANCH  11  12
HETATM   12  N6  UNL     1      78.509  26.612  38.802  1.00  0.00     0.090 N 
HETATM   13  C5  UNL     1      77.228  27.157  38.385  1.00  0.00     0.274 C 
HETATM   14  C6  UNL     1      78.021  28.355  37.853  1.00  0.00     0.060 C 
HETATM   15  C7  UNL     1      79.070  27.276  37.624  1.00  0.00     0.274 C 
ENDBRANCH  11  12
ENDBRANCH  10  11
ENDBRANCH   8  10
TORSDOF 3
ENDMDL
MODEL 3
REMARK VINA RESULT: -4.657046849      1.674      4.680
REMARK  3 active torsions:
REMARK  status: ('A' for Active; 'I' for Inactive)
REMARK       I    between atoms: N3_4  and  C2_6 
REMARK    1  A    between atoms: N5_8  and  C3_10 
REMARK    2  A    between atoms: C3_10  and  C4_11 
REMARK    3  A    between atoms: C4_11  and  N6_12 
ROOT
HETATM    1  N1  UNL     1      79.858  24.458  37.792  1.00  0.00    -0.066 NA
HETATM    2  C1  UNL     1      78.789  25.301  38.210  1.00  0.00     0.203 C 
HETATM    3  N2  UNL     1      77.472  24.766  38.233  1.00  0.00    -0.066 NA
HETATM    4  N3  UNL     1      79.067  26.506  38.546  1.00  0.00    -0.307 N 
ATOM      5  H3  UNL     1      80.041  26.804  38.498  1.00  0.00     0.170 HD
HETATM    6  C2  UNL     1      78.106  27.446  38.979  1.00  0.00     0.190 C 
HETATM    7  N4  UNL     1      76.846  27.491  38.351  1.00  0.00    -0.063 NA
HETATM    8  N5  UNL     1      78.380  28.250  39.932  1.00  0.00    -0.363 N 
ATOM      9  H5  UNL     1      79.294  28.214  40.384  1.00  0.00     0.162 HD
ENDROOT
BRANCH   8  10
HETATM   10  C3  UNL     1      77.394  29.212  40.375  1.00  0.00     0.152 C 
BRANCH  10  11
HETATM   11  C4  UNL     1      76.337  28.534  41.257  1.00  0.00     0.292 C 
BRANCH  11  12
HETATM   12  N6  UNL     1      77.065  27.656  42.148  1.00  0.00     0.090 N 
HETATM   13  C5  UNL     1      77.093  26.263  41.736  1.00  0.00     0.274 C 
HETATM   14  C6  UNL     1      77.088  25.923  43.229  1.00  0.00     0.060 C 
HETATM   15  C7  UNL     1      76.270  27.206  43.291  1.00  0.00     0.274 C 
ENDBRANCH  11  12
ENDBRANCH  10  11
ENDBRANCH   8  10
TORSDOF 3
ENDMDL
MODEL 4
REMARK VINA RESULT: -4.588191676      2.198      3.857
REMARK  3 active torsions:
REMARK  status: ('A' for Active; 'I' for Inactive)
REMARK       I    between atoms: N3_4  and  C2_6 
REMARK    1  A    between atoms: N5_8  and  C3_10 
REMARK    2  A    between atoms: C3_10  and  C4_11 
REMARK    3  A    between atoms: C4_11  and  N6_12 
ROOT
HETATM    1  N1  UNL     1      79.610  22.988  41.917  1.00  0.00    -0.066 NA
HETATM    2  C1  UNL     1      78.732  23.963  41.361  1.00  0.00     0.203 C 
HETATM    3  N2  UNL     1      77.560  24.313  42.086  1.00  0.00    -0.066 NA
HETATM    4  N3  UNL     1      79.042  24.478  40.229  1.00  0.00    -0.307 N 
ATOM      5  H3  UNL     1      79.903  24.166  39.780  1.00  0.00     0.170 HD
HETATM    6  C2  UNL     1      78.264  25.452  39.567  1.00  0.00     0.190 C 
HETATM    7  N4  UNL     1      76.859  25.348  39.582  1.00  0.00    -0.063 NA
HETATM    8  N5  UNL     1      78.831  26.420  38.957  1.00  0.00    -0.363 N 
ATOM      9  H5  UNL     1      79.848  26.491  38.948  1.00  0.00     0.162 HD
ENDROOT
BRANCH   8  10
HETATM   10  C3  UNL     1      78.031  27.418  38.278  1.00  0.00     0.152 C 
BRANCH  10  11
HETATM   11  C4  UNL     1      78.018  28.729  39.074  1.00  0.00     0.292 C 
BRANCH  11  12
HETATM   12  N6  UNL     1      76.792  28.718  39.842  1.00  0.00     0.090 N 
HETATM   13  C5  UNL     1      76.380  30.017  40.345  1.00  0.00     0.274 C 
HETATM   14  C6  UNL     1      75.820  29.263  41.554  1.00  0.00     0.060 C 
HETATM   15  C7  UNL     1      76.991  28.342  41.243  1.00  0.00     0.274 C 
ENDBRANCH  11  12
ENDBRANCH  10  11
ENDBRANCH   8  10
TORSDOF 3
ENDMDL
MODEL 5
REMARK VINA RESULT: -4.520194812      1.754      5.474
REMARK  3 active torsions:
REMARK  status: ('A' for Active; 'I' for Inactive)
REMARK       I    between atoms: N3_4  and  C2_6 
REMARK    1  A    between atoms: N5_8  and  C3_10 
REMARK    2  A    between atoms: C3_10  and  C4_11 
REMARK    3  A    between atoms: C4_11  and  N6_12 
ROOT
HETATM    1  N1  UNL     1      78.352  28.577  37.050  1.00  0.00    -0.066 NA
HETATM    2  C1  UNL     1      78.571  27.515  37.973  1.00  0.00     0.203 C 
HETATM    3  N2  UNL     1      79.896  27.031  38.148  1.00  0.00    -0.066 NA
HETATM    4  N3  UNL     1      77.559  27.045  38.604  1.00  0.00    -0.307 N 
ATOM      5  H3  UNL     1      76.644  27.454  38.415  1.00  0.00     0.170 HD
HETATM    6  C2  UNL     1      77.635  25.995  39.545  1.00  0.00     0.190 C 
HETATM    7  N4  UNL     1      78.491  24.903  39.302  1.00  0.00    -0.063 NA
HETATM    8  N5  UNL     1      76.930  26.035  40.609  1.00  0.00    -0.363 N 
ATOM      9  H5  UNL     1      76.310  26.828  40.780  1.00  0.00     0.162 HD
ENDROOT
BRANCH   8  10
HETATM   10  C3  UNL     1      77.009  24.959  41.572  1.00  0.00     0.152 C 
BRANCH  10  11
HETATM   11  C4  UNL     1      78.079  25.260  42.630  1.00  0.00     0.292 C 
BRANCH  11  12
HETATM   12  N6  UNL     1      77.489  26.227  43.530  1.00  0.00     0.090 N 
HETATM   13  C5  UNL     1      76.869  25.654  44.713  1.00  0.00     0.274 C 
HETATM   14  C6  UNL     1      75.862  26.805  44.622  1.00  0.00     0.060 C 
HETATM   15  C7  UNL     1      76.141  26.638  43.134  1.00  0.00     0.274 C 
ENDBRANCH  11  12
ENDBRANCH  10  11
ENDBRANCH   8  10
TORSDOF 3
ENDMDL
