MODEL 1
REMARK VINA RESULT: -7.749439910      0.000      0.000
REMARK  6 active torsions:
REMARK  status: ('A' for Active; 'I' for Inactive)
REMARK    1  A    between atoms: C3_4  and  N1_5 
REMARK    2  A    between atoms: C6_10  and  N3_11 
REMARK    3  A    between atoms: C11_22  and  C12_23 
REMARK    4  A    between atoms: C12_23  and  O1_24 
REMARK    5  A    between atoms: O1_24  and  C13_25 
REMARK    6  A    between atoms: C13_25  and  C14_27 
ROOT
HETATM    1  C1  UNL     1      15.408  23.569  46.546  1.00  0.00     0.022 C 
HETATM    2  C2  UNL     1      16.355  22.579  45.933  1.00  0.00     0.051 C 
HETATM    3  S1  UNL     1      18.058  23.183  46.152  1.00  0.00    -0.138 SA
HETATM    4  C3  UNL     1      19.105  22.072  45.145  1.00  0.00     0.154 C 
HETATM    5  C9  UNL     1      18.495  22.036  43.772  1.00  0.00     0.037 C 
HETATM    6  C10 UNL     1      17.117  21.485  43.849  1.00  0.00     0.011 C 
HETATM    7  C11 UNL     1      16.111  22.377  44.476  1.00  0.00     0.024 C 
ENDROOT
BRANCH   4   8
HETATM    8  N1  UNL     1      20.480  22.491  45.145  1.00  0.00    -0.313 N 
HETATM    9  C4  UNL     1      21.136  23.204  44.216  1.00  0.00     0.186 A 
HETATM   10  N2  UNL     1      22.417  23.393  44.581  1.00  0.00    -0.346 N 
HETATM   11  C5  UNL     1      22.605  22.798  45.763  1.00  0.00     0.122 A 
ATOM     12  H2  UNL     1      23.122  23.902  44.048  1.00  0.00     0.167 HD
HETATM   13  C6  UNL     1      23.710  22.684  46.578  1.00  0.00     0.131 A 
HETATM   14  C8  UNL     1      21.380  22.232  46.111  1.00  0.00     0.141 A 
HETATM   15  N4  UNL     1      23.574  22.008  47.727  1.00  0.00    -0.337 N 
HETATM   16  C7  UNL     1      22.387  21.463  48.060  1.00  0.00     0.183 A 
ATOM     17  H4  UNL     1      24.372  21.905  48.353  1.00  0.00     0.168 HD
HETATM   18  N5  UNL     1      21.309  21.573  47.265  1.00  0.00    -0.336 N 
ATOM     19  H5  UNL     1      20.427  21.147  47.549  1.00  0.00     0.168 HD
BRANCH  13  20
HETATM   20  N3  UNL     1      24.839  23.195  46.276  1.00  0.00    -0.383 N 
ATOM     21  H32 UNL     1      25.352  23.733  46.974  1.00  0.00     0.157 HD
ATOM     22  H31 UNL     1      25.260  23.087  45.354  1.00  0.00     0.157 HD
ENDBRANCH  13  20
ENDBRANCH   4   8
BRANCH   7  23
HETATM   23  C12 UNL     1      15.979  23.702  43.758  1.00  0.00     0.184 C 
BRANCH  23  24
HETATM   24  O1  UNL     1      14.654  23.897  43.301  1.00  0.00    -0.320 OA
BRANCH  24  25
HETATM   25  C13 UNL     1      14.131  23.118  42.302  1.00  0.00     0.266 C 
HETATM   26  O2  UNL     1      14.815  22.880  41.279  1.00  0.00    -0.264 OA
BRANCH  25  27
HETATM   27  C14 UNL     1      12.761  22.553  42.418  1.00  0.00     0.037 C 
HETATM   28  C15 UNL     1      11.821  23.326  41.510  1.00  0.00     0.025 C 
HETATM   29  C16 UNL     1      12.331  22.756  43.868  1.00  0.00     0.025 C 
HETATM   30  C17 UNL     1      12.728  21.090  42.073  1.00  0.00     0.025 C 
ENDBRANCH  25  27
ENDBRANCH  24  25
ENDBRANCH  23  24
ENDBRANCH   7  23
TORSDOF 6
ENDMDL
MODEL 2
REMARK VINA RESULT: -7.273350965      2.557      4.103
REMARK  6 active torsions:
REMARK  status: ('A' for Active; 'I' for Inactive)
REMARK    1  A    between atoms: C3_4  and  N1_5 
REMARK    2  A    between atoms: C6_10  and  N3_11 
REMARK    3  A    between atoms: C11_22  and  C12_23 
REMARK    4  A    between atoms: C12_23  and  O1_24 
REMARK    5  A    between atoms: O1_24  and  C13_25 
REMARK    6  A    between atoms: C13_25  and  C14_27 
ROOT
HETATM    1  C1  UNL     1      17.739  22.566  37.997  1.00  0.00     0.022 C 
HETATM    2  C2  UNL     1      17.677  23.439  39.216  1.00  0.00     0.051 C 
HETATM    3  S1  UNL     1      18.427  22.548  40.615  1.00  0.00    -0.138 SA
HETATM    4  C3  UNL     1      18.059  23.560  42.094  1.00  0.00     0.154 C 
HETATM    5  C9  UNL     1      16.578  23.819  42.079  1.00  0.00     0.037 C 
HETATM    6  C10 UNL     1      16.214  24.578  40.854  1.00  0.00     0.011 C 
HETATM    7  C11 UNL     1      16.281  23.810  39.587  1.00  0.00     0.024 C 
ENDROOT
BRANCH   4   8
HETATM    8  N1  UNL     1      18.512  22.924  43.300  1.00  0.00    -0.313 N 
HETATM    9  C4  UNL     1      17.835  22.100  44.115  1.00  0.00     0.186 A 
HETATM   10  N2  UNL     1      18.608  21.712  45.146  1.00  0.00    -0.346 N 
HETATM   11  C5  UNL     1      19.807  22.288  45.006  1.00  0.00     0.122 A 
ATOM     12  H2  UNL     1      18.328  21.087  45.902  1.00  0.00     0.167 HD
HETATM   13  C6  UNL     1      20.955  22.234  45.766  1.00  0.00     0.131 A 
HETATM   14  C8  UNL     1      19.737  23.050  43.841  1.00  0.00     0.141 A 
HETATM   15  N4  UNL     1      22.015  22.941  45.351  1.00  0.00    -0.337 N 
HETATM   16  C7  UNL     1      21.943  23.676  44.224  1.00  0.00     0.183 A 
ATOM     17  H4  UNL     1      22.879  22.924  45.891  1.00  0.00     0.168 HD
HETATM   18  N5  UNL     1      20.824  23.729  43.482  1.00  0.00    -0.336 N 
ATOM     19  H5  UNL     1      20.806  24.296  42.634  1.00  0.00     0.168 HD
BRANCH  13  20
HETATM   20  N3  UNL     1      21.036  21.543  46.835  1.00  0.00    -0.383 N 
ATOM     21  H32 UNL     1      21.165  22.012  47.731  1.00  0.00     0.157 HD
ATOM     22  H31 UNL     1      20.977  20.525  46.835  1.00  0.00     0.157 HD
ENDBRANCH  13  20
ENDBRANCH   4   8
BRANCH   7  23
HETATM   23  C12 UNL     1      15.380  22.594  39.595  1.00  0.00     0.184 C 
BRANCH  23  24
HETATM   24  O1  UNL     1      14.114  22.909  40.143  1.00  0.00    -0.320 OA
BRANCH  24  25
HETATM   25  C13 UNL     1      13.247  21.920  40.527  1.00  0.00     0.266 C 
HETATM   26  O2  UNL     1      12.904  21.040  39.703  1.00  0.00    -0.264 OA
BRANCH  25  27
HETATM   27  C14 UNL     1      12.708  21.878  41.912  1.00  0.00     0.037 C 
HETATM   28  C15 UNL     1      13.857  21.979  42.900  1.00  0.00     0.025 C 
HETATM   29  C16 UNL     1      12.032  20.520  42.072  1.00  0.00     0.025 C 
HETATM   30  C17 UNL     1      11.714  22.979  42.160  1.00  0.00     0.025 C 
ENDBRANCH  25  27
ENDBRANCH  24  25
ENDBRANCH  23  24
ENDBRANCH   7  23
TORSDOF 6
ENDMDL
MODEL 3
REMARK VINA RESULT: -7.161621820      2.626      4.130
REMARK  6 active torsions:
REMARK  status: ('A' for Active; 'I' for Inactive)
REMARK    1  A    between atoms: C3_4  and  N1_5 
REMARK    2  A    between atoms: C6_10  and  N3_11 
REMARK    3  A    between atoms: C11_22  and  C12_23 
REMARK    4  A    between atoms: C12_23  and  O1_24 
REMARK    5  A    between atoms: O1_24  and  C13_25 
REMARK    6  A    between atoms: C13_25  and  C14_27 
ROOT
HETATM    1  C1  UNL     1      17.296  21.796  38.050  1.00  0.00     0.022 C 
HETATM    2  C2  UNL     1      17.673  22.957  38.924  1.00  0.00     0.051 C 
HETATM    3  S1  UNL     1      18.644  22.340  40.334  1.00  0.00    -0.138 SA
HETATM    4  C3  UNL     1      18.815  23.762  41.470  1.00  0.00     0.154 C 
HETATM    5  C9  UNL     1      17.430  24.301  41.695  1.00  0.00     0.037 C 
HETATM    6  C10 UNL     1      16.856  24.763  40.404  1.00  0.00     0.011 C 
HETATM    7  C11 UNL     1      16.485  23.687  39.453  1.00  0.00     0.024 C 
ENDROOT
BRANCH   4   8
HETATM    8  N1  UNL     1      19.484  23.394  42.687  1.00  0.00    -0.313 N 
HETATM    9  C4  UNL     1      20.732  23.695  43.079  1.00  0.00     0.186 A 
HETATM   10  N2  UNL     1      20.990  23.164  44.288  1.00  0.00    -0.346 N 
HETATM   11  C5  UNL     1      19.900  22.505  44.695  1.00  0.00     0.122 A 
ATOM     12  H2  UNL     1      21.866  23.248  44.804  1.00  0.00     0.167 HD
HETATM   13  C6  UNL     1      19.623  21.790  45.839  1.00  0.00     0.131 A 
HETATM   14  C8  UNL     1      18.956  22.655  43.681  1.00  0.00     0.141 A 
HETATM   15  N4  UNL     1      18.407  21.235  45.952  1.00  0.00    -0.337 N 
HETATM   16  C7  UNL     1      17.498  21.383  44.969  1.00  0.00     0.183 A 
ATOM     17  H4  UNL     1      18.170  20.698  46.786  1.00  0.00     0.168 HD
HETATM   18  N5  UNL     1      17.768  22.081  43.853  1.00  0.00    -0.336 N 
ATOM     19  H5  UNL     1      17.055  22.172  43.129  1.00  0.00     0.168 HD
BRANCH  13  20
HETATM   20  N3  UNL     1      20.473  21.641  46.777  1.00  0.00    -0.383 N 
ATOM     21  H32 UNL     1      21.145  22.383  46.971  1.00  0.00     0.157 HD
ATOM     22  H31 UNL     1      20.513  20.801  47.353  1.00  0.00     0.157 HD
ENDBRANCH  13  20
ENDBRANCH   4   8
BRANCH   7  23
HETATM   23  C12 UNL     1      15.468  22.726  40.028  1.00  0.00     0.184 C 
BRANCH  23  24
HETATM   24  O1  UNL     1      14.579  23.397  40.902  1.00  0.00    -0.320 OA
BRANCH  24  25
HETATM   25  C13 UNL     1      14.156  22.808  42.064  1.00  0.00     0.266 C 
HETATM   26  O2  UNL     1      14.987  22.543  42.965  1.00  0.00    -0.264 OA
BRANCH  25  27
HETATM   27  C14 UNL     1      12.721  22.478  42.271  1.00  0.00     0.037 C 
HETATM   28  C15 UNL     1      11.867  23.404  41.423  1.00  0.00     0.025 C 
HETATM   29  C16 UNL     1      12.425  22.738  43.745  1.00  0.00     0.025 C 
HETATM   30  C17 UNL     1      12.421  21.044  41.933  1.00  0.00     0.025 C 
ENDBRANCH  25  27
ENDBRANCH  24  25
ENDBRANCH  23  24
ENDBRANCH   7  23
TORSDOF 6
ENDMDL
MODEL 4
REMARK VINA RESULT: -7.093403221      0.916      1.892
REMARK  6 active torsions:
REMARK  status: ('A' for Active; 'I' for Inactive)
REMARK    1  A    between atoms: C3_4  and  N1_5 
REMARK    2  A    between atoms: C6_10  and  N3_11 
REMARK    3  A    between atoms: C11_22  and  C12_23 
REMARK    4  A    between atoms: C12_23  and  O1_24 
REMARK    5  A    between atoms: O1_24  and  C13_25 
REMARK    6  A    between atoms: C13_25  and  C14_27 
ROOT
HETATM    1  C1  UNL     1      15.105  23.848  46.242  1.00  0.00     0.022 C 
HETATM    2  C2  UNL     1      15.932  22.623  45.981  1.00  0.00     0.051 C 
HETATM    3  S1  UNL     1      17.670  22.994  46.370  1.00  0.00    -0.138 SA
HETATM    4  C3  UNL     1      18.625  21.556  45.764  1.00  0.00     0.154 C 
HETATM    5  C9  UNL     1      18.209  21.336  44.337  1.00  0.00     0.037 C 
HETATM    6  C10 UNL     1      16.756  21.027  44.280  1.00  0.00     0.011 C 
HETATM    7  C11 UNL     1      15.853  22.169  44.562  1.00  0.00     0.024 C 
ENDROOT
BRANCH   4   8
HETATM    8  N1  UNL     1      20.040  21.754  45.918  1.00  0.00    -0.313 N 
HETATM    9  C4  UNL     1      20.866  21.213  46.828  1.00  0.00     0.186 A 
HETATM   10  N2  UNL     1      22.126  21.648  46.642  1.00  0.00    -0.346 N 
HETATM   11  C5  UNL     1      22.128  22.484  45.599  1.00  0.00     0.122 A 
ATOM     12  H2  UNL     1      22.937  21.385  47.201  1.00  0.00     0.167 HD
HETATM   13  C6  UNL     1      23.133  23.201  44.989  1.00  0.00     0.131 A 
HETATM   14  C8  UNL     1      20.810  22.545  45.149  1.00  0.00     0.141 A 
HETATM   15  N4  UNL     1      22.807  23.968  43.939  1.00  0.00    -0.337 N 
HETATM   16  C7  UNL     1      21.532  24.024  43.507  1.00  0.00     0.183 A 
ATOM     17  H4  UNL     1      23.528  24.512  43.465  1.00  0.00     0.168 HD
HETATM   18  N5  UNL     1      20.551  23.324  44.102  1.00  0.00    -0.336 N 
ATOM     19  H5  UNL     1      19.597  23.391  43.747  1.00  0.00     0.168 HD
BRANCH  13  20
HETATM   20  N3  UNL     1      24.344  23.157  45.386  1.00  0.00    -0.383 N 
ATOM     21  H32 UNL     1      24.741  22.272  45.701  1.00  0.00     0.157 HD
ATOM     22  H31 UNL     1      24.945  23.981  45.404  1.00  0.00     0.157 HD
ENDBRANCH  13  20
ENDBRANCH   4   8
BRANCH   7  23
HETATM   23  C12 UNL     1      16.060  23.325  43.609  1.00  0.00     0.184 C 
BRANCH  23  24
HETATM   24  O1  UNL     1      14.830  23.735  43.041  1.00  0.00    -0.320 OA
BRANCH  24  25
HETATM   25  C13 UNL     1      14.200  22.968  42.096  1.00  0.00     0.266 C 
HETATM   26  O2  UNL     1      14.809  22.654  41.045  1.00  0.00    -0.264 OA
BRANCH  25  27
HETATM   27  C14 UNL     1      12.803  22.504  42.302  1.00  0.00     0.037 C 
HETATM   28  C15 UNL     1      11.871  23.308  41.413  1.00  0.00     0.025 C 
HETATM   29  C16 UNL     1      12.465  22.788  43.763  1.00  0.00     0.025 C 
HETATM   30  C17 UNL     1      12.653  21.036  42.017  1.00  0.00     0.025 C 
ENDBRANCH  25  27
ENDBRANCH  24  25
ENDBRANCH  23  24
ENDBRANCH   7  23
TORSDOF 6
ENDMDL
MODEL 5
REMARK VINA RESULT: -7.092545057      1.553      2.194
REMARK  6 active torsions:
REMARK  status: ('A' for Active; 'I' for Inactive)
REMARK    1  A    between atoms: C3_4  and  N1_5 
REMARK    2  A    between atoms: C6_10  and  N3_11 
REMARK    3  A    between atoms: C11_22  and  C12_23 
REMARK    4  A    between atoms: C12_23  and  O1_24 
REMARK    5  A    between atoms: O1_24  and  C13_25 
REMARK    6  A    between atoms: C13_25  and  C14_27 
ROOT
HETATM    1  C1  UNL     1      16.594  20.545  44.455  1.00  0.00     0.022 C 
HETATM    2  C2  UNL     1      17.929  21.049  43.991  1.00  0.00     0.051 C 
HETATM    3  S1  UNL     1      18.858  21.663  45.431  1.00  0.00    -0.138 SA
HETATM    4  C3  UNL     1      20.331  22.501  44.743  1.00  0.00     0.154 C 
HETATM    5  C9  UNL     1      19.830  23.469  43.708  1.00  0.00     0.037 C 
HETATM    6  C10 UNL     1      19.128  22.729  42.626  1.00  0.00     0.011 C 
HETATM    7  C11 UNL     1      17.812  22.157  42.999  1.00  0.00     0.024 C 
ENDROOT
BRANCH   4   8
HETATM    8  N1  UNL     1      21.117  23.126  45.771  1.00  0.00    -0.313 N 
HETATM    9  C4  UNL     1      21.126  24.414  46.149  1.00  0.00     0.186 A 
HETATM   10  N2  UNL     1      22.002  24.607  47.152  1.00  0.00    -0.346 N 
HETATM   11  C5  UNL     1      22.576  23.433  47.435  1.00  0.00     0.122 A 
ATOM     12  H2  UNL     1      22.195  25.495  47.614  1.00  0.00     0.167 HD
HETATM   13  C6  UNL     1      23.529  23.067  48.359  1.00  0.00     0.131 A 
HETATM   14  C8  UNL     1      22.013  22.506  46.560  1.00  0.00     0.141 A 
HETATM   15  N4  UNL     1      23.905  21.780  48.396  1.00  0.00    -0.337 N 
HETATM   16  C7  UNL     1      23.357  20.887  47.549  1.00  0.00     0.183 A 
ATOM     17  H4  UNL     1      24.609  21.477  49.068  1.00  0.00     0.168 HD
HETATM   18  N5  UNL     1      22.427  21.244  46.647  1.00  0.00    -0.336 N 
ATOM     19  H5  UNL     1      22.034  20.540  46.021  1.00  0.00     0.168 HD
BRANCH  13  20
HETATM   20  N3  UNL     1      24.056  23.901  49.167  1.00  0.00    -0.383 N 
ATOM     21  H32 UNL     1      24.152  24.878  48.892  1.00  0.00     0.157 HD
ATOM     22  H31 UNL     1      24.391  23.632  50.092  1.00  0.00     0.157 HD
ENDBRANCH  13  20
ENDBRANCH   4   8
BRANCH   7  23
HETATM   23  C12 UNL     1      16.833  23.208  43.472  1.00  0.00     0.184 C 
BRANCH  23  24
HETATM   24  O1  UNL     1      15.772  23.361  42.548  1.00  0.00    -0.320 OA
BRANCH  24  25
HETATM   25  C13 UNL     1      14.479  23.082  42.906  1.00  0.00     0.266 C 
HETATM   26  O2  UNL     1      14.120  23.231  44.098  1.00  0.00    -0.264 OA
BRANCH  25  27
HETATM   27  C14 UNL     1      13.497  22.605  41.897  1.00  0.00     0.037 C 
HETATM   28  C15 UNL     1      13.149  21.155  42.183  1.00  0.00     0.025 C 
HETATM   29  C16 UNL     1      14.193  22.692  40.542  1.00  0.00     0.025 C 
HETATM   30  C17 UNL     1      12.250  23.444  41.888  1.00  0.00     0.025 C 
ENDBRANCH  25  27
ENDBRANCH  24  25
ENDBRANCH  23  24
ENDBRANCH   7  23
TORSDOF 6
ENDMDL
