MODEL 1
REMARK VINA RESULT: -8.284677575      0.000      0.000
REMARK  4 active torsions:
REMARK  status: ('A' for Active; 'I' for Inactive)
REMARK    1  A    between atoms: C2_2  and  C10_19 
REMARK    2  A    between atoms: N1_3  and  N2_5 
REMARK    3  A    between atoms: C12_22  and  N5_23 
REMARK    4  A    between atoms: N5_23  and  C13_25 
ROOT
HETATM    1  C1  UNL     1      22.888  20.624  46.206  1.00  0.00     0.072 C 
HETATM    2  C2  UNL     1      21.924  21.733  46.621  1.00  0.00     0.049 C 
HETATM    3  N1  UNL     1      20.740  21.477  46.404  1.00  0.00    -0.303 N 
ATOM      4  H1  UNL     1      20.593  20.561  45.980  1.00  0.00     0.186 HD
ENDROOT
BRANCH   3   5
HETATM    5  N2  UNL     1      19.606  22.159  46.611  1.00  0.00    -0.302 N 
HETATM    6  C3  UNL     1      18.613  22.111  45.790  1.00  0.00     0.065 C 
HETATM    7  C4  UNL     1      18.718  21.273  44.567  1.00  0.00     0.081 C 
HETATM    8  C9  UNL     1      17.363  22.841  45.988  1.00  0.00     0.151 A 
HETATM    9  C5  UNL     1      17.449  20.490  44.377  1.00  0.00     0.126 C 
HETATM   10  N3  UNL     1      16.256  21.279  44.542  1.00  0.00    -0.386 N 
HETATM   11  C6  UNL     1      16.200  22.430  45.371  1.00  0.00     0.090 A 
ATOM     12  H3  UNL     1      15.414  20.999  44.040  1.00  0.00     0.159 HD
HETATM   13  C7  UNL     1      15.237  23.329  45.771  1.00  0.00     0.058 A 
HETATM   14  C8  UNL     1      13.821  23.291  45.361  1.00  0.00     0.072 C 
HETATM   15  N4  UNL     1      15.856  24.196  46.576  1.00  0.00    -0.263 N 
HETATM   16  O1  UNL     1      17.118  23.913  46.709  1.00  0.00    -0.233 OA
ATOM     17  H4  UNL     1      15.395  24.984  47.031  1.00  0.00     0.194 HD
ATOM     18  H2  UNL     1      19.524  22.737  47.447  1.00  0.00     0.186 HD
ENDBRANCH   3   5
BRANCH   2  19
HETATM   19  C10 UNL     1      22.479  22.981  47.234  1.00  0.00     0.064 A 
HETATM   20  C11 UNL     1      22.631  24.113  46.483  1.00  0.00     0.084 A 
HETATM   21  S1  UNL     1      23.290  25.220  47.635  1.00  0.00    -0.064 SA
HETATM   22  C12 UNL     1      23.323  24.173  48.969  1.00  0.00     0.145 A 
HETATM   23  N6  UNL     1      22.836  23.034  48.488  1.00  0.00    -0.335 N 
ATOM     24  H6  UNL     1      22.743  22.214  49.088  1.00  0.00     0.168 HD
BRANCH  22  25
HETATM   25  N5  UNL     1      23.725  24.393  50.207  1.00  0.00    -0.366 N 
ATOM     26  H5  UNL     1      24.001  23.611  50.801  1.00  0.00     0.162 HD
BRANCH  25  27
HETATM   27  C13 UNL     1      23.773  25.743  50.719  1.00  0.00     0.083 C 
HETATM   28  C14 UNL     1      22.734  26.008  51.746  1.00  0.00     0.025 C 
HETATM   29  C15 UNL     1      23.451  26.781  52.825  1.00  0.00     0.002 C 
HETATM   30  C16 UNL     1      24.855  26.235  52.760  1.00  0.00     0.002 C 
HETATM   31  C17 UNL     1      25.130  26.068  51.272  1.00  0.00     0.025 C 
ENDBRANCH  25  27
ENDBRANCH  22  25
ENDBRANCH   2  19
TORSDOF 4
ENDMDL
MODEL 2
REMARK VINA RESULT: -8.067562530      4.268      7.078
REMARK  4 active torsions:
REMARK  status: ('A' for Active; 'I' for Inactive)
REMARK    1  A    between atoms: C2_2  and  C10_19 
REMARK    2  A    between atoms: N1_3  and  N2_5 
REMARK    3  A    between atoms: C12_22  and  N5_23 
REMARK    4  A    between atoms: N5_23  and  C13_25 
ROOT
HETATM    1  C1  UNL     1      13.762  23.292  46.210  1.00  0.00     0.072 C 
HETATM    2  C2  UNL     1      14.739  23.493  45.055  1.00  0.00     0.049 C 
HETATM    3  N1  UNL     1      14.310  24.214  44.155  1.00  0.00    -0.303 N 
ATOM      4  H1  UNL     1      13.367  24.564  44.327  1.00  0.00     0.186 HD
ENDROOT
BRANCH   3   5
HETATM    5  N2  UNL     1      14.832  24.633  42.993  1.00  0.00    -0.302 N 
HETATM    6  C3  UNL     1      14.856  23.888  41.941  1.00  0.00     0.065 C 
HETATM    7  C4  UNL     1      14.290  22.516  42.004  1.00  0.00     0.081 C 
HETATM    8  C9  UNL     1      15.417  24.315  40.661  1.00  0.00     0.151 A 
HETATM    9  C5  UNL     1      13.447  22.258  40.786  1.00  0.00     0.126 C 
HETATM   10  N3  UNL     1      14.077  22.661  39.556  1.00  0.00    -0.386 N 
HETATM   11  C6  UNL     1      15.032  23.709  39.484  1.00  0.00     0.090 A 
ATOM     12  H3  UNL     1      13.825  22.171  38.698  1.00  0.00     0.159 HD
HETATM   13  C7  UNL     1      15.742  24.348  38.493  1.00  0.00     0.058 A 
HETATM   14  C8  UNL     1      15.658  24.036  37.055  1.00  0.00     0.072 C 
HETATM   15  N4  UNL     1      16.487  25.269  39.111  1.00  0.00    -0.263 N 
HETATM   16  O1  UNL     1      16.298  25.255  40.398  1.00  0.00    -0.233 OA
ATOM     17  H4  UNL     1      17.124  25.905  38.633  1.00  0.00     0.194 HD
ATOM     18  H2  UNL     1      15.224  25.573  42.940  1.00  0.00     0.186 HD
ENDBRANCH   3   5
BRANCH   2  19
HETATM   19  C10 UNL     1      16.078  22.826  45.115  1.00  0.00     0.064 A 
HETATM   20  C11 UNL     1      16.200  21.492  44.846  1.00  0.00     0.084 A 
HETATM   21  S1  UNL     1      17.897  21.239  45.055  1.00  0.00    -0.064 SA
HETATM   22  C12 UNL     1      18.319  22.831  45.464  1.00  0.00     0.145 A 
HETATM   23  N6  UNL     1      17.162  23.483  45.426  1.00  0.00    -0.335 N 
ATOM     24  H6  UNL     1      17.121  24.481  45.637  1.00  0.00     0.168 HD
BRANCH  22  25
HETATM   25  N5  UNL     1      19.499  23.344  45.756  1.00  0.00    -0.366 N 
ATOM     26  H5  UNL     1      19.569  24.128  46.405  1.00  0.00     0.162 HD
BRANCH  25  27
HETATM   27  C13 UNL     1      20.692  22.794  45.155  1.00  0.00     0.083 C 
HETATM   28  C14 UNL     1      21.080  23.489  43.901  1.00  0.00     0.025 C 
HETATM   29  C15 UNL     1      22.575  23.657  44.004  1.00  0.00     0.002 C 
HETATM   30  C16 UNL     1      22.802  23.803  45.487  1.00  0.00     0.002 C 
HETATM   31  C17 UNL     1      21.843  22.804  46.118  1.00  0.00     0.025 C 
ENDBRANCH  25  27
ENDBRANCH  22  25
ENDBRANCH   2  19
TORSDOF 4
ENDMDL
MODEL 3
REMARK VINA RESULT: -7.875984349      3.077      9.133
REMARK  4 active torsions:
REMARK  status: ('A' for Active; 'I' for Inactive)
REMARK    1  A    between atoms: C2_2  and  C10_19 
REMARK    2  A    between atoms: N1_3  and  N2_5 
REMARK    3  A    between atoms: C12_22  and  N5_23 
REMARK    4  A    between atoms: N5_23  and  C13_25 
ROOT
HETATM    1  C1  UNL     1      17.659  19.981  43.964  1.00  0.00     0.072 C 
HETATM    2  C2  UNL     1      17.949  21.370  44.527  1.00  0.00     0.049 C 
HETATM    3  N1  UNL     1      19.139  21.578  44.762  1.00  0.00    -0.303 N 
ATOM      4  H1  UNL     1      19.742  20.785  44.541  1.00  0.00     0.186 HD
ENDROOT
BRANCH   3   5
HETATM    5  N2  UNL     1      19.802  22.636  45.249  1.00  0.00    -0.302 N 
HETATM    6  C3  UNL     1      20.847  22.510  45.994  1.00  0.00     0.065 C 
HETATM    7  C4  UNL     1      21.344  21.151  46.331  1.00  0.00     0.081 C 
HETATM    8  C9  UNL     1      21.592  23.642  46.540  1.00  0.00     0.151 A 
HETATM    9  C5  UNL     1      22.838  21.104  46.177  1.00  0.00     0.126 C 
HETATM   10  N3  UNL     1      23.513  22.225  46.776  1.00  0.00    -0.386 N 
HETATM   11  C6  UNL     1      22.908  23.501  46.926  1.00  0.00     0.090 A 
ATOM     12  H3  UNL     1      24.469  22.097  47.108  1.00  0.00     0.159 HD
HETATM   13  C7  UNL     1      23.290  24.741  47.384  1.00  0.00     0.058 A 
HETATM   14  C8  UNL     1      24.628  25.076  47.905  1.00  0.00     0.072 C 
HETATM   15  N4  UNL     1      22.219  25.528  47.250  1.00  0.00    -0.263 N 
HETATM   16  O1  UNL     1      21.208  24.881  46.750  1.00  0.00    -0.233 OA
ATOM     17  H4  UNL     1      22.198  26.514  47.509  1.00  0.00     0.194 HD
ATOM     18  H2  UNL     1      19.468  23.572  45.024  1.00  0.00     0.186 HD
ENDBRANCH   3   5
BRANCH   2  19
HETATM   19  C10 UNL     1      16.810  22.319  44.732  1.00  0.00     0.064 A 
HETATM   20  C11 UNL     1      16.370  22.610  45.992  1.00  0.00     0.084 A 
HETATM   21  S1  UNL     1      15.080  23.716  45.674  1.00  0.00    -0.064 SA
HETATM   22  C12 UNL     1      15.196  23.725  43.981  1.00  0.00     0.145 A 
HETATM   23  N6  UNL     1      16.202  22.894  43.730  1.00  0.00    -0.335 N 
ATOM     24  H6  UNL     1      16.494  22.707  42.770  1.00  0.00     0.168 HD
BRANCH  22  25
HETATM   25  N5  UNL     1      14.483  24.385  43.089  1.00  0.00    -0.366 N 
ATOM     26  H5  UNL     1      14.698  25.361  42.883  1.00  0.00     0.162 HD
BRANCH  25  27
HETATM   27  C13 UNL     1      13.396  23.724  42.404  1.00  0.00     0.083 C 
HETATM   28  C14 UNL     1      13.793  23.178  41.082  1.00  0.00     0.025 C 
HETATM   29  C15 UNL     1      13.161  21.810  41.027  1.00  0.00     0.002 C 
HETATM   30  C16 UNL     1      13.163  21.374  42.471  1.00  0.00     0.002 C 
HETATM   31  C17 UNL     1      12.804  22.633  43.248  1.00  0.00     0.025 C 
ENDBRANCH  25  27
ENDBRANCH  22  25
ENDBRANCH   2  19
TORSDOF 4
ENDMDL
MODEL 4
REMARK VINA RESULT: -7.834660273      4.995      7.946
REMARK  4 active torsions:
REMARK  status: ('A' for Active; 'I' for Inactive)
REMARK    1  A    between atoms: C2_2  and  C10_19 
REMARK    2  A    between atoms: N1_3  and  N2_5 
REMARK    3  A    between atoms: C12_22  and  N5_23 
REMARK    4  A    between atoms: N5_23  and  C13_25 
ROOT
HETATM    1  C1  UNL     1      12.358  23.289  45.518  1.00  0.00     0.072 C 
HETATM    2  C2  UNL     1      13.593  23.361  44.624  1.00  0.00     0.049 C 
HETATM    3  N1  UNL     1      13.343  23.579  43.439  1.00  0.00    -0.303 N 
ATOM      4  H1  UNL     1      12.346  23.677  43.244  1.00  0.00     0.186 HD
ENDROOT
BRANCH   3   5
HETATM    5  N2  UNL     1      14.116  23.713  42.352  1.00  0.00    -0.302 N 
HETATM    6  C3  UNL     1      14.205  22.793  41.453  1.00  0.00     0.065 C 
HETATM    7  C4  UNL     1      13.430  21.536  41.615  1.00  0.00     0.081 C 
HETATM    8  C9  UNL     1      15.037  22.909  40.257  1.00  0.00     0.151 A 
HETATM    9  C5  UNL     1      12.781  21.168  40.310  1.00  0.00     0.126 C 
HETATM   10  N3  UNL     1      13.668  21.260  39.181  1.00  0.00    -0.386 N 
HETATM   11  C6  UNL     1      14.772  22.152  39.136  1.00  0.00     0.090 A 
ATOM     12  H3  UNL     1      13.495  20.658  38.376  1.00  0.00     0.159 HD
HETATM   13  C7  UNL     1      15.733  22.509  38.218  1.00  0.00     0.058 A 
HETATM   14  C8  UNL     1      15.850  21.954  36.856  1.00  0.00     0.072 C 
HETATM   15  N4  UNL     1      16.493  23.427  38.819  1.00  0.00    -0.263 N 
HETATM   16  O1  UNL     1      16.086  23.669  40.031  1.00  0.00    -0.233 OA
ATOM     17  H4  UNL     1      17.295  23.882  38.383  1.00  0.00     0.194 HD
ATOM     18  H2  UNL     1      14.652  24.572  42.232  1.00  0.00     0.186 HD
ENDBRANCH   3   5
BRANCH   2  19
HETATM   19  C10 UNL     1      14.944  23.173  45.240  1.00  0.00     0.064 A 
HETATM   20  C11 UNL     1      15.411  24.058  46.170  1.00  0.00     0.084 A 
HETATM   21  S1  UNL     1      16.965  23.401  46.542  1.00  0.00    -0.064 SA
HETATM   22  C12 UNL     1      16.906  22.064  45.499  1.00  0.00     0.145 A 
HETATM   23  N6  UNL     1      15.717  22.173  44.915  1.00  0.00    -0.335 N 
ATOM     24  H6  UNL     1      15.413  21.485  44.225  1.00  0.00     0.168 HD
BRANCH  22  25
HETATM   25  N5  UNL     1      17.800  21.117  45.287  1.00  0.00    -0.366 N 
ATOM     26  H5  UNL     1      17.656  20.183  45.671  1.00  0.00     0.162 HD
BRANCH  25  27
HETATM   27  C13 UNL     1      18.984  21.406  44.511  1.00  0.00     0.083 C 
HETATM   28  C14 UNL     1      18.815  22.577  43.614  1.00  0.00     0.025 C 
HETATM   29  C15 UNL     1      20.096  23.360  43.760  1.00  0.00     0.002 C 
HETATM   30  C16 UNL     1      20.504  23.085  45.185  1.00  0.00     0.002 C 
HETATM   31  C17 UNL     1      20.178  21.613  45.396  1.00  0.00     0.025 C 
ENDBRANCH  25  27
ENDBRANCH  22  25
ENDBRANCH   2  19
TORSDOF 4
ENDMDL
MODEL 5
REMARK VINA RESULT: -7.770086061      3.190      8.864
REMARK  4 active torsions:
REMARK  status: ('A' for Active; 'I' for Inactive)
REMARK    1  A    between atoms: C2_2  and  C10_19 
REMARK    2  A    between atoms: N1_3  and  N2_5 
REMARK    3  A    between atoms: C12_22  and  N5_23 
REMARK    4  A    between atoms: N5_23  and  C13_25 
ROOT
HETATM    1  C1  UNL     1      19.125  23.411  41.467  1.00  0.00     0.072 C 
HETATM    2  C2  UNL     1      19.311  23.213  42.969  1.00  0.00     0.049 C 
HETATM    3  N1  UNL     1      20.353  23.693  43.414  1.00  0.00    -0.303 N 
ATOM      4  H1  UNL     1      20.927  24.148  42.704  1.00  0.00     0.186 HD
ENDROOT
BRANCH   3   5
HETATM    5  N2  UNL     1      20.886  23.738  44.643  1.00  0.00    -0.302 N 
HETATM    6  C3  UNL     1      22.159  23.688  44.843  1.00  0.00     0.065 C 
HETATM    7  C4  UNL     1      23.077  23.576  43.681  1.00  0.00     0.081 C 
HETATM    8  C9  UNL     1      22.771  23.735  46.169  1.00  0.00     0.151 A 
HETATM    9  C5  UNL     1      24.230  24.525  43.851  1.00  0.00     0.126 C 
HETATM   10  N3  UNL     1      24.815  24.489  45.166  1.00  0.00    -0.386 N 
HETATM   11  C6  UNL     1      24.082  24.131  46.328  1.00  0.00     0.090 A 
ATOM     12  H3  UNL     1      25.800  24.732  45.267  1.00  0.00     0.159 HD
HETATM   13  C7  UNL     1      24.325  24.060  47.681  1.00  0.00     0.058 A 
HETATM   14  C8  UNL     1      25.606  24.393  48.330  1.00  0.00     0.072 C 
HETATM   15  N4  UNL     1      23.185  23.641  48.237  1.00  0.00    -0.263 N 
HETATM   16  O1  UNL     1      22.258  23.446  47.345  1.00  0.00    -0.233 OA
ATOM     17  H4  UNL     1      23.057  23.492  49.237  1.00  0.00     0.194 HD
ATOM     18  H2  UNL     1      20.264  23.814  45.446  1.00  0.00     0.186 HD
ENDBRANCH   3   5
BRANCH   2  19
HETATM   19  C10 UNL     1      18.252  22.487  43.739  1.00  0.00     0.064 A 
HETATM   20  C11 UNL     1      18.298  21.127  43.865  1.00  0.00     0.084 A 
HETATM   21  S1  UNL     1      16.887  20.809  44.812  1.00  0.00    -0.064 SA
HETATM   22  C12 UNL     1      16.352  22.410  44.974  1.00  0.00     0.145 A 
HETATM   23  N6  UNL     1      17.260  23.115  44.307  1.00  0.00    -0.335 N 
ATOM     24  H6  UNL     1      17.182  24.130  44.240  1.00  0.00     0.168 HD
BRANCH  22  25
HETATM   25  N5  UNL     1      15.295  22.888  45.604  1.00  0.00    -0.366 N 
ATOM     26  H5  UNL     1      15.213  22.783  46.615  1.00  0.00     0.162 HD
BRANCH  25  27
HETATM   27  C13 UNL     1      14.256  23.560  44.859  1.00  0.00     0.083 C 
HETATM   28  C14 UNL     1      13.938  22.887  43.574  1.00  0.00     0.025 C 
HETATM   29  C15 UNL     1      12.432  22.898  43.499  1.00  0.00     0.002 C 
HETATM   30  C16 UNL     1      12.016  22.814  44.945  1.00  0.00     0.002 C 
HETATM   31  C17 UNL     1      13.007  23.708  45.678  1.00  0.00     0.025 C 
ENDBRANCH  25  27
ENDBRANCH  22  25
ENDBRANCH   2  19
TORSDOF 4
ENDMDL
