MODEL 1
REMARK VINA RESULT: -9.016047063      0.000      0.000
REMARK  4 active torsions:
REMARK  status: ('A' for Active; 'I' for Inactive)
REMARK    1  A    between atoms: C2_3  and  N2_4 
REMARK    2  A    between atoms: C3_5  and  N3_6 
REMARK    3  A    between atoms: N3_6  and  C4_8 
REMARK    4  A    between atoms: C10_16  and  C11_17 
ROOT
HETATM    1  N1  UNL     1      12.372  20.395  40.262  1.00  0.00    -0.191 NA
HETATM    2  C1  UNL     1      12.549  21.516  40.555  1.00  0.00     0.106 C 
HETATM    3  C2  UNL     1      12.721  22.894  40.874  1.00  0.00     0.210 C 
ENDROOT
BRANCH   3   4
HETATM    4  N2  UNL     1      13.775  23.203  41.795  1.00  0.00    -0.133 N 
HETATM    5  C3  UNL     1      15.097  23.477  41.233  1.00  0.00     0.683 A 
HETATM    6  N4  UNL     1      16.046  23.738  41.999  1.00  0.00    -0.213 N 
HETATM    7  C10 UNL     1      16.065  23.811  43.437  1.00  0.00     0.171 A 
ATOM      8  H4  UNL     1      16.938  23.927  41.541  1.00  0.00     0.178 HD
HETATM    9  C17 UNL     1      14.767  23.591  44.033  1.00  0.00     0.039 A 
HETATM   10  C18 UNL     1      14.568  23.681  45.392  1.00  0.00     0.060 A 
HETATM   11  C21 UNL     1      13.686  23.274  43.194  1.00  0.00     0.139 A 
HETATM   12  N5  UNL     1      15.618  24.042  46.316  1.00  0.00    -0.102 NA
HETATM   13  C19 UNL     1      13.299  23.452  45.883  1.00  0.00     0.044 A 
HETATM   14  C20 UNL     1      12.236  23.141  45.077  1.00  0.00     0.091 A 
HETATM   15  N6  UNL     1      12.487  23.068  43.763  1.00  0.00    -0.351 N 
ATOM     16  H6  UNL     1      11.707  22.837  43.146  1.00  0.00     0.166 HD
BRANCH   5  17
HETATM   17  N3  UNL     1      15.178  23.420  39.809  1.00  0.00    -0.221 N 
ATOM     18  H3  UNL     1      14.541  24.002  39.266  1.00  0.00     0.178 HD
BRANCH  17  19
HETATM   19  C4  UNL     1      16.106  22.588  39.102  1.00  0.00     0.099 C 
HETATM   20  C5  UNL     1      15.503  21.940  37.881  1.00  0.00     0.026 C 
HETATM   21  C6  UNL     1      16.540  21.179  37.125  1.00  0.00     0.002 C 
HETATM   22  C7  UNL     1      17.779  21.954  36.818  1.00  0.00     0.000 C 
HETATM   23  C8  UNL     1      17.588  23.378  37.244  1.00  0.00     0.002 C 
HETATM   24  C9  UNL     1      17.318  23.384  38.730  1.00  0.00     0.026 C 
ENDBRANCH  17  19
ENDBRANCH   5  17
BRANCH   7  25
HETATM   25  C11 UNL     1      17.149  22.894  43.901  1.00  0.00    -0.030 A 
HETATM   26  C12 UNL     1      16.753  21.569  44.070  1.00  0.00     0.009 A 
HETATM   27  C13 UNL     1      17.608  20.587  44.522  1.00  0.00     0.001 A 
HETATM   28  C14 UNL     1      18.908  20.938  44.817  1.00  0.00     0.000 A 
HETATM   29  C15 UNL     1      19.296  22.260  44.647  1.00  0.00     0.001 A 
HETATM   30  C16 UNL     1      18.423  23.236  44.192  1.00  0.00     0.009 A 
ENDBRANCH   7  25
ENDBRANCH   3   4
TORSDOF 4
ENDMDL
MODEL 2
REMARK VINA RESULT: -8.683896432      0.833      1.386
REMARK  4 active torsions:
REMARK  status: ('A' for Active; 'I' for Inactive)
REMARK    1  A    between atoms: C2_3  and  N2_4 
REMARK    2  A    between atoms: C3_5  and  N3_6 
REMARK    3  A    between atoms: N3_6  and  C4_8 
REMARK    4  A    between atoms: C10_16  and  C11_17 
ROOT
HETATM    1  N1  UNL     1      12.192  19.935  40.754  1.00  0.00    -0.191 NA
HETATM    2  C1  UNL     1      12.446  21.073  40.878  1.00  0.00     0.106 C 
HETATM    3  C2  UNL     1      12.712  22.467  40.989  1.00  0.00     0.210 C 
ENDROOT
BRANCH   3   4
HETATM    4  N2  UNL     1      13.783  22.839  41.868  1.00  0.00    -0.133 N 
HETATM    5  C3  UNL     1      15.111  22.997  41.276  1.00  0.00     0.683 A 
HETATM    6  N4  UNL     1      16.074  23.307  42.006  1.00  0.00    -0.213 N 
HETATM    7  C10 UNL     1      16.104  23.542  43.427  1.00  0.00     0.171 A 
ATOM      8  H4  UNL     1      16.969  23.408  41.528  1.00  0.00     0.178 HD
HETATM    9  C17 UNL     1      14.802  23.440  44.046  1.00  0.00     0.039 A 
HETATM   10  C18 UNL     1      14.615  23.692  45.386  1.00  0.00     0.060 A 
HETATM   11  C21 UNL     1      13.705  23.072  43.250  1.00  0.00     0.139 A 
HETATM   12  N5  UNL     1      15.683  24.115  46.261  1.00  0.00    -0.102 NA
HETATM   13  C19 UNL     1      13.341  23.568  45.902  1.00  0.00     0.044 A 
HETATM   14  C20 UNL     1      12.262  23.208  45.138  1.00  0.00     0.091 A 
HETATM   15  N6  UNL     1      12.502  22.977  43.840  1.00  0.00    -0.351 N 
ATOM     16  H6  UNL     1      11.711  22.708  43.255  1.00  0.00     0.166 HD
BRANCH   5  17
HETATM   17  N3  UNL     1      15.181  22.775  39.868  1.00  0.00    -0.221 N 
ATOM     18  H3  UNL     1      14.543  22.095  39.455  1.00  0.00     0.178 HD
BRANCH  17  19
HETATM   19  C4  UNL     1      16.100  23.454  39.004  1.00  0.00     0.099 C 
HETATM   20  C5  UNL     1      16.761  22.535  38.008  1.00  0.00     0.026 C 
HETATM   21  C6  UNL     1      17.618  23.311  37.066  1.00  0.00     0.002 C 
HETATM   22  C7  UNL     1      16.938  24.473  36.420  1.00  0.00     0.000 C 
HETATM   23  C8  UNL     1      15.487  24.467  36.797  1.00  0.00     0.002 C 
HETATM   24  C9  UNL     1      15.399  24.575  38.301  1.00  0.00     0.026 C 
ENDBRANCH  17  19
ENDBRANCH   5  17
BRANCH   7  25
HETATM   25  C11 UNL     1      17.156  22.642  43.990  1.00  0.00    -0.030 A 
HETATM   26  C12 UNL     1      18.420  23.220  44.085  1.00  0.00     0.009 A 
HETATM   27  C13 UNL     1      19.520  22.532  44.551  1.00  0.00     0.001 A 
HETATM   28  C14 UNL     1      19.355  21.219  44.936  1.00  0.00     0.000 A 
HETATM   29  C15 UNL     1      18.092  20.650  44.838  1.00  0.00     0.001 A 
HETATM   30  C16 UNL     1      16.996  21.355  44.367  1.00  0.00     0.009 A 
ENDBRANCH   7  25
ENDBRANCH   3   4
TORSDOF 4
ENDMDL
MODEL 3
REMARK VINA RESULT: -8.614587682      1.794      5.943
REMARK  4 active torsions:
REMARK  status: ('A' for Active; 'I' for Inactive)
REMARK    1  A    between atoms: C2_3  and  N2_4 
REMARK    2  A    between atoms: C3_5  and  N3_6 
REMARK    3  A    between atoms: N3_6  and  C4_8 
REMARK    4  A    between atoms: C10_16  and  C11_17 
ROOT
HETATM    1  N1  UNL     1      14.285  22.462  47.879  1.00  0.00    -0.191 NA
HETATM    2  C1  UNL     1      15.015  22.994  47.132  1.00  0.00     0.106 C 
HETATM    3  C2  UNL     1      15.921  23.674  46.269  1.00  0.00     0.210 C 
ENDROOT
BRANCH   3   4
HETATM    4  N2  UNL     1      15.869  23.311  44.883  1.00  0.00    -0.133 N 
HETATM    5  C3  UNL     1      17.142  23.113  44.194  1.00  0.00     0.683 A 
HETATM    6  N4  UNL     1      17.144  22.810  42.983  1.00  0.00    -0.213 N 
HETATM    7  C10 UNL     1      16.031  22.618  42.090  1.00  0.00     0.171 A 
ATOM      8  H4  UNL     1      18.066  22.679  42.567  1.00  0.00     0.178 HD
HETATM    9  C17 UNL     1      14.749  22.760  42.742  1.00  0.00     0.039 A 
HETATM   10  C18 UNL     1      13.566  22.553  42.068  1.00  0.00     0.060 A 
HETATM   11  C21 UNL     1      14.720  23.123  44.099  1.00  0.00     0.139 A 
HETATM   12  N5  UNL     1      13.513  22.139  40.686  1.00  0.00    -0.102 NA
HETATM   13  C19 UNL     1      12.384  22.714  42.761  1.00  0.00     0.044 A 
HETATM   14  C20 UNL     1      12.341  23.068  44.084  1.00  0.00     0.091 A 
HETATM   15  N6  UNL     1      13.521  23.255  44.689  1.00  0.00    -0.351 N 
ATOM     16  H6  UNL     1      13.509  23.519  45.674  1.00  0.00     0.166 HD
BRANCH   5  17
HETATM   17  N3  UNL     1      18.307  23.291  45.000  1.00  0.00    -0.221 N 
ATOM     18  H3  UNL     1      18.231  23.875  45.833  1.00  0.00     0.178 HD
BRANCH  17  19
HETATM   19  C4  UNL     1      19.575  22.695  44.703  1.00  0.00     0.099 C 
HETATM   20  C5  UNL     1      20.708  23.691  44.701  1.00  0.00     0.026 C 
HETATM   21  C6  UNL     1      22.013  22.999  44.499  1.00  0.00     0.002 C 
HETATM   22  C7  UNL     1      22.256  21.846  45.416  1.00  0.00     0.000 C 
HETATM   23  C8  UNL     1      21.147  21.775  46.422  1.00  0.00     0.002 C 
HETATM   24  C9  UNL     1      19.851  21.585  45.669  1.00  0.00     0.026 C 
ENDBRANCH  17  19
ENDBRANCH   5  17
BRANCH   7  25
HETATM   25  C11 UNL     1      16.260  23.517  40.918  1.00  0.00    -0.030 A 
HETATM   26  C12 UNL     1      16.778  22.878  39.793  1.00  0.00     0.009 A 
HETATM   27  C13 UNL     1      17.083  23.551  38.630  1.00  0.00     0.001 A 
HETATM   28  C14 UNL     1      16.864  24.912  38.584  1.00  0.00     0.000 A 
HETATM   29  C15 UNL     1      16.347  25.540  39.710  1.00  0.00     0.001 A 
HETATM   30  C16 UNL     1      16.046  24.850  40.873  1.00  0.00     0.009 A 
ENDBRANCH   7  25
ENDBRANCH   3   4
TORSDOF 4
ENDMDL
MODEL 4
REMARK VINA RESULT: -8.423395989      0.737      1.384
REMARK  4 active torsions:
REMARK  status: ('A' for Active; 'I' for Inactive)
REMARK    1  A    between atoms: C2_3  and  N2_4 
REMARK    2  A    between atoms: C3_5  and  N3_6 
REMARK    3  A    between atoms: N3_6  and  C4_8 
REMARK    4  A    between atoms: C10_16  and  C11_17 
ROOT
HETATM    1  N1  UNL     1      12.398  20.543  40.295  1.00  0.00    -0.191 NA
HETATM    2  C1  UNL     1      12.669  21.650  40.570  1.00  0.00     0.106 C 
HETATM    3  C2  UNL     1      12.959  23.013  40.861  1.00  0.00     0.210 C 
ENDROOT
BRANCH   3   4
HETATM    4  N2  UNL     1      13.960  23.247  41.861  1.00  0.00    -0.133 N 
HETATM    5  C3  UNL     1      15.321  23.511  41.398  1.00  0.00     0.683 A 
HETATM    6  N4  UNL     1      16.226  23.707  42.234  1.00  0.00    -0.213 N 
HETATM    7  C10 UNL     1      16.155  23.707  43.673  1.00  0.00     0.171 A 
ATOM      8  H4  UNL     1      17.150  23.893  41.842  1.00  0.00     0.178 HD
HETATM    9  C17 UNL     1      14.816  23.495  44.174  1.00  0.00     0.039 A 
HETATM   10  C18 UNL     1      14.534  23.523  45.521  1.00  0.00     0.060 A 
HETATM   11  C21 UNL     1      13.783  23.251  43.253  1.00  0.00     0.139 A 
HETATM   12  N5  UNL     1      15.531  23.808  46.525  1.00  0.00    -0.102 NA
HETATM   13  C19 UNL     1      13.231  23.306  45.919  1.00  0.00     0.044 A 
HETATM   14  C20 UNL     1      12.213  23.066  45.033  1.00  0.00     0.091 A 
HETATM   15  N6  UNL     1      12.546  23.051  43.735  1.00  0.00    -0.351 N 
ATOM     16  H6  UNL     1      11.801  22.873  43.060  1.00  0.00     0.166 HD
BRANCH   5  17
HETATM   17  N3  UNL     1      15.492  23.522  39.981  1.00  0.00    -0.221 N 
ATOM     18  H3  UNL     1      14.680  23.728  39.399  1.00  0.00     0.178 HD
BRANCH  17  19
HETATM   19  C4  UNL     1      16.741  23.258  39.331  1.00  0.00     0.099 C 
HETATM   20  C5  UNL     1      17.576  22.231  40.054  1.00  0.00     0.026 C 
HETATM   21  C6  UNL     1      18.808  21.916  39.276  1.00  0.00     0.002 C 
HETATM   22  C7  UNL     1      18.568  21.564  37.845  1.00  0.00     0.000 C 
HETATM   23  C8  UNL     1      17.093  21.484  37.598  1.00  0.00     0.002 C 
HETATM   24  C9  UNL     1      16.497  22.836  37.916  1.00  0.00     0.026 C 
ENDBRANCH  17  19
ENDBRANCH   5  17
BRANCH   7  25
HETATM   25  C11 UNL     1      17.184  22.738  44.155  1.00  0.00    -0.030 A 
HETATM   26  C12 UNL     1      18.377  23.323  44.574  1.00  0.00     0.009 A 
HETATM   27  C13 UNL     1      19.452  22.584  45.021  1.00  0.00     0.001 A 
HETATM   28  C14 UNL     1      19.334  21.211  45.052  1.00  0.00     0.000 A 
HETATM   29  C15 UNL     1      18.141  20.636  44.633  1.00  0.00     0.001 A 
HETATM   30  C16 UNL     1      17.070  21.392  44.185  1.00  0.00     0.009 A 
ENDBRANCH   7  25
ENDBRANCH   3   4
TORSDOF 4
ENDMDL
MODEL 5
REMARK VINA RESULT: -8.144644820      0.564      1.077
REMARK  4 active torsions:
REMARK  status: ('A' for Active; 'I' for Inactive)
REMARK    1  A    between atoms: C2_3  and  N2_4 
REMARK    2  A    between atoms: C3_5  and  N3_6 
REMARK    3  A    between atoms: N3_6  and  C4_8 
REMARK    4  A    between atoms: C10_16  and  C11_17 
ROOT
HETATM    1  N1  UNL     1      12.709  20.323  40.051  1.00  0.00    -0.191 NA
HETATM    2  C1  UNL     1      12.986  21.444  40.254  1.00  0.00     0.106 C 
HETATM    3  C2  UNL     1      13.288  22.821  40.454  1.00  0.00     0.210 C 
ENDROOT
BRANCH   3   4
HETATM    4  N2  UNL     1      14.218  23.119  41.505  1.00  0.00    -0.133 N 
HETATM    5  C3  UNL     1      15.594  23.420  41.115  1.00  0.00     0.683 A 
HETATM    6  N4  UNL     1      16.440  23.671  41.998  1.00  0.00    -0.213 N 
HETATM    7  C10 UNL     1      16.282  23.708  43.429  1.00  0.00     0.171 A 
ATOM      8  H4  UNL     1      17.378  23.881  41.656  1.00  0.00     0.178 HD
HETATM    9  C17 UNL     1      14.924  23.460  43.856  1.00  0.00     0.039 A 
HETATM   10  C18 UNL     1      14.560  23.514  45.183  1.00  0.00     0.060 A 
HETATM   11  C21 UNL     1      13.958  23.153  42.883  1.00  0.00     0.139 A 
HETATM   12  N5  UNL     1      15.484  23.863  46.235  1.00  0.00    -0.102 NA
HETATM   13  C19 UNL     1      13.244  23.259  45.509  1.00  0.00     0.044 A 
HETATM   14  C20 UNL     1      12.291  22.958  44.572  1.00  0.00     0.091 A 
HETATM   15  N6  UNL     1      12.701  22.920  43.297  1.00  0.00    -0.351 N 
ATOM     16  H6  UNL     1      12.006  22.698  42.584  1.00  0.00     0.166 HD
BRANCH   5  17
HETATM   17  N3  UNL     1      15.849  23.399  39.711  1.00  0.00    -0.221 N 
ATOM     18  H3  UNL     1      15.690  24.254  39.179  1.00  0.00     0.178 HD
BRANCH  17  19
HETATM   19  C4  UNL     1      16.317  22.241  39.008  1.00  0.00     0.099 C 
HETATM   20  C5  UNL     1      15.559  21.983  37.730  1.00  0.00     0.026 C 
HETATM   21  C6  UNL     1      16.159  20.838  36.987  1.00  0.00     0.002 C 
HETATM   22  C7  UNL     1      17.635  20.936  36.777  1.00  0.00     0.000 C 
HETATM   23  C8  UNL     1      18.113  22.270  37.263  1.00  0.00     0.002 C 
HETATM   24  C9  UNL     1      17.783  22.373  38.734  1.00  0.00     0.026 C 
ENDBRANCH  17  19
ENDBRANCH   5  17
BRANCH   7  25
HETATM   25  C11 UNL     1      17.314  22.791  44.000  1.00  0.00    -0.030 A 
HETATM   26  C12 UNL     1      18.582  23.355  44.126  1.00  0.00     0.009 A 
HETATM   27  C13 UNL     1      19.666  22.650  44.603  1.00  0.00     0.001 A 
HETATM   28  C14 UNL     1      19.481  21.333  44.968  1.00  0.00     0.000 A 
HETATM   29  C15 UNL     1      18.214  20.779  44.838  1.00  0.00     0.001 A 
HETATM   30  C16 UNL     1      17.134  21.501  44.356  1.00  0.00     0.009 A 
ENDBRANCH   7  25
ENDBRANCH   3   4
TORSDOF 4
ENDMDL
