MODEL 1
REMARK VINA RESULT: -8.651916097      0.000      0.000
REMARK  3 active torsions:
REMARK  status: ('A' for Active; 'I' for Inactive)
REMARK    1  A    between atoms: C2_2  and  S1_3 
REMARK    2  A    between atoms: S1_3  and  C3_4 
REMARK    3  A    between atoms: C6_12  and  C7_13 
ROOT
HETATM    1  C3  UNL     1      15.718  22.974  43.274  1.00  0.00     0.152 A 
HETATM    2  N1  UNL     1      15.322  22.934  44.581  1.00  0.00    -0.323 N 
ATOM      3  H1  UNL     1      14.326  22.918  44.799  1.00  0.00     0.169 HD
HETATM    4  C4  UNL     1      16.218  22.914  45.591  1.00  0.00     0.149 A 
HETATM    5  N2  UNL     1      15.823  22.871  46.954  1.00  0.00    -0.080 NA
HETATM    6  C5  UNL     1      17.554  22.938  45.208  1.00  0.00     0.120 A 
HETATM    7  N3  UNL     1      18.649  22.929  45.947  1.00  0.00    -0.339 N 
ATOM      8  H3  UNL     1      18.665  22.900  46.967  1.00  0.00     0.167 HD
HETATM    9  C6  UNL     1      19.739  22.962  45.161  1.00  0.00     0.092 A 
HETATM   10  N4  UNL     1      19.326  22.995  43.865  1.00  0.00    -0.329 N 
ATOM     11  H4  UNL     1      19.917  23.024  43.034  1.00  0.00     0.168 HD
HETATM   12  C17 UNL     1      17.971  22.979  43.902  1.00  0.00     0.139 A 
HETATM   13  N5  UNL     1      17.022  22.997  42.931  1.00  0.00    -0.321 N 
ATOM     14  H5  UNL     1      17.294  23.027  41.948  1.00  0.00     0.169 HD
ENDROOT
BRANCH   9  15
HETATM   15  C7  UNL     1      21.121  22.969  45.641  1.00  0.00     0.019 C 
HETATM   16  C8  UNL     1      21.357  21.727  46.474  1.00  0.00     0.022 C 
HETATM   17  C9  UNL     1      22.753  21.773  47.052  1.00  0.00    -0.013 C 
HETATM   18  C10 UNL     1      22.866  22.991  47.918  1.00  0.00     0.009 C 
HETATM   19  C14 UNL     1      23.730  21.780  45.903  1.00  0.00     0.009 C 
HETATM   20  C11 UNL     1      22.746  24.240  47.070  1.00  0.00    -0.013 C 
HETATM   21  C12 UNL     1      23.766  24.215  45.962  1.00  0.00     0.009 C 
HETATM   22  C16 UNL     1      21.368  24.227  46.454  1.00  0.00     0.022 C 
HETATM   23  C13 UNL     1      23.508  23.039  45.079  1.00  0.00    -0.013 C 
HETATM   24  C15 UNL     1      22.127  22.988  44.518  1.00  0.00     0.022 C 
ENDBRANCH   9  15
BRANCH   1  25
HETATM   25  S1  UNL     1      14.485  23.000  41.980  1.00  0.00    -0.021 SA
BRANCH  25  26
HETATM   26  C2  UNL     1      12.933  22.274  42.610  1.00  0.00     0.281 A 
HETATM   27  C1  UNL     1      12.511  20.980  41.925  1.00  0.00     0.098 C 
HETATM   28  O1  UNL     1      12.394  22.620  43.754  1.00  0.00    -0.182 OA
HETATM   29  O2  UNL     1      11.897  23.209  42.685  1.00  0.00    -0.182 OA
ENDBRANCH  25  26
ENDBRANCH   1  25
TORSDOF 3
ENDMDL
MODEL 2
REMARK VINA RESULT: -8.500803776      0.217      1.479
REMARK  3 active torsions:
REMARK  status: ('A' for Active; 'I' for Inactive)
REMARK    1  A    between atoms: C2_2  and  S1_3 
REMARK    2  A    between atoms: S1_3  and  C3_4 
REMARK    3  A    between atoms: C6_12  and  C7_13 
ROOT
HETATM    1  C3  UNL     1      15.634  22.912  43.129  1.00  0.00     0.152 A 
HETATM    2  N1  UNL     1      15.210  22.795  44.422  1.00  0.00    -0.323 N 
ATOM      3  H1  UNL     1      14.210  22.726  44.614  1.00  0.00     0.169 HD
HETATM    4  C4  UNL     1      16.082  22.767  45.453  1.00  0.00     0.149 A 
HETATM    5  N2  UNL     1      15.658  22.645  46.802  1.00  0.00    -0.080 NA
HETATM    6  C5  UNL     1      17.424  22.866  45.105  1.00  0.00     0.120 A 
HETATM    7  N3  UNL     1      18.501  22.870  45.870  1.00  0.00    -0.339 N 
ATOM      8  H3  UNL     1      18.494  22.796  46.888  1.00  0.00     0.167 HD
HETATM    9  C6  UNL     1      19.606  22.986  45.114  1.00  0.00     0.092 A 
HETATM   10  N4  UNL     1      19.223  23.060  43.810  1.00  0.00    -0.329 N 
ATOM     11  H4  UNL     1      19.830  23.153  42.997  1.00  0.00     0.168 HD
HETATM   12  C17 UNL     1      17.869  22.984  43.813  1.00  0.00     0.139 A 
HETATM   13  N5  UNL     1      16.943  23.006  42.820  1.00  0.00    -0.321 N 
ATOM     14  H5  UNL     1      17.236  23.093  41.846  1.00  0.00     0.169 HD
ENDROOT
BRANCH   9  15
HETATM   15  C7  UNL     1      20.975  23.030  45.628  1.00  0.00     0.019 C 
HETATM   16  C8  UNL     1      21.938  23.009  44.459  1.00  0.00     0.022 C 
HETATM   17  C9  UNL     1      23.355  22.958  44.983  1.00  0.00    -0.013 C 
HETATM   18  C10 UNL     1      23.515  21.706  45.792  1.00  0.00     0.009 C 
HETATM   19  C14 UNL     1      23.597  24.210  45.790  1.00  0.00     0.009 C 
HETATM   20  C11 UNL     1      22.639  21.773  47.025  1.00  0.00    -0.013 C 
HETATM   21  C12 UNL     1      22.944  23.020  47.812  1.00  0.00     0.009 C 
HETATM   22  C16 UNL     1      21.208  21.846  46.549  1.00  0.00     0.022 C 
HETATM   23  C13 UNL     1      22.645  24.220  46.976  1.00  0.00    -0.013 C 
HETATM   24  C15 UNL     1      21.249  24.264  46.450  1.00  0.00     0.022 C 
ENDBRANCH   9  15
BRANCH   1  25
HETATM   25  S1  UNL     1      14.431  22.944  41.806  1.00  0.00    -0.021 SA
BRANCH  25  26
HETATM   26  C2  UNL     1      12.828  22.335  42.434  1.00  0.00     0.281 A 
HETATM   27  C1  UNL     1      12.441  20.944  41.948  1.00  0.00     0.098 C 
HETATM   28  O1  UNL     1      12.211  22.871  43.459  1.00  0.00    -0.182 OA
HETATM   29  O2  UNL     1      11.802  23.270  42.272  1.00  0.00    -0.182 OA
ENDBRANCH  25  26
ENDBRANCH   1  25
TORSDOF 3
ENDMDL
MODEL 3
REMARK VINA RESULT: -8.430045024      0.133      1.484
REMARK  3 active torsions:
REMARK  status: ('A' for Active; 'I' for Inactive)
REMARK    1  A    between atoms: C2_2  and  S1_3 
REMARK    2  A    between atoms: S1_3  and  C3_4 
REMARK    3  A    between atoms: C6_12  and  C7_13 
ROOT
HETATM    1  C3  UNL     1      15.676  22.976  43.213  1.00  0.00     0.152 A 
HETATM    2  N1  UNL     1      15.256  22.929  44.512  1.00  0.00    -0.323 N 
ATOM      3  H1  UNL     1      14.256  22.912  44.712  1.00  0.00     0.169 HD
HETATM    4  C4  UNL     1      16.134  22.905  45.538  1.00  0.00     0.149 A 
HETATM    5  N2  UNL     1      15.715  22.856  46.893  1.00  0.00    -0.080 NA
HETATM    6  C5  UNL     1      17.477  22.931  45.178  1.00  0.00     0.120 A 
HETATM    7  N3  UNL     1      18.559  22.919  45.937  1.00  0.00    -0.339 N 
ATOM      8  H3  UNL     1      18.556  22.886  46.957  1.00  0.00     0.167 HD
HETATM    9  C6  UNL     1      19.662  22.956  45.171  1.00  0.00     0.092 A 
HETATM   10  N4  UNL     1      19.273  22.994  43.867  1.00  0.00    -0.329 N 
ATOM     11  H4  UNL     1      19.878  23.027  43.047  1.00  0.00     0.168 HD
HETATM   12  C17 UNL     1      17.917  22.978  43.881  1.00  0.00     0.139 A 
HETATM   13  N5  UNL     1      16.985  22.999  42.892  1.00  0.00    -0.321 N 
ATOM     14  H5  UNL     1      17.275  23.034  41.915  1.00  0.00     0.169 HD
ENDROOT
BRANCH   9  15
HETATM   15  C7  UNL     1      21.035  22.961  45.675  1.00  0.00     0.019 C 
HETATM   16  C8  UNL     1      21.245  24.204  46.514  1.00  0.00     0.022 C 
HETATM   17  C9  UNL     1      22.689  24.265  46.959  1.00  0.00    -0.013 C 
HETATM   18  C10 UNL     1      23.558  24.326  45.740  1.00  0.00     0.009 C 
HETATM   19  C14 UNL     1      22.963  23.051  47.812  1.00  0.00     0.009 C 
HETATM   20  C11 UNL     1      23.439  23.036  44.957  1.00  0.00    -0.013 C 
HETATM   21  C12 UNL     1      23.758  21.860  45.842  1.00  0.00     0.009 C 
HETATM   22  C16 UNL     1      22.003  22.921  44.505  1.00  0.00     0.022 C 
HETATM   23  C13 UNL     1      22.773  21.803  46.963  1.00  0.00    -0.013 C 
HETATM   24  C15 UNL     1      21.349  21.754  46.523  1.00  0.00     0.022 C 
ENDBRANCH   9  15
BRANCH   1  25
HETATM   25  S1  UNL     1      14.465  23.006  41.896  1.00  0.00    -0.021 SA
BRANCH  25  26
HETATM   26  C2  UNL     1      12.889  22.321  42.510  1.00  0.00     0.281 A 
HETATM   27  C1  UNL     1      12.508  20.970  41.917  1.00  0.00     0.098 C 
HETATM   28  O1  UNL     1      12.292  22.757  43.593  1.00  0.00    -0.182 OA
HETATM   29  O2  UNL     1      11.845  23.249  42.455  1.00  0.00    -0.182 OA
ENDBRANCH  25  26
ENDBRANCH   1  25
TORSDOF 3
ENDMDL
MODEL 4
REMARK VINA RESULT: -8.237859653      2.408      3.694
REMARK  3 active torsions:
REMARK  status: ('A' for Active; 'I' for Inactive)
REMARK    1  A    between atoms: C2_2  and  S1_3 
REMARK    2  A    between atoms: S1_3  and  C3_4 
REMARK    3  A    between atoms: C6_12  and  C7_13 
ROOT
HETATM    1  C3  UNL     1      17.229  22.475  44.542  1.00  0.00     0.152 A 
HETATM    2  N1  UNL     1      17.929  23.015  43.500  1.00  0.00    -0.323 N 
ATOM      3  H1  UNL     1      17.419  23.387  42.698  1.00  0.00     0.169 HD
HETATM    4  C4  UNL     1      19.278  23.066  43.506  1.00  0.00     0.149 A 
HETATM    5  N2  UNL     1      20.019  23.624  42.432  1.00  0.00    -0.080 NA
HETATM    6  C5  UNL     1      19.893  22.537  44.634  1.00  0.00     0.120 A 
HETATM    7  N3  UNL     1      21.176  22.440  44.934  1.00  0.00    -0.339 N 
ATOM      8  H3  UNL     1      21.941  22.762  44.341  1.00  0.00     0.167 HD
HETATM    9  C6  UNL     1      21.328  21.856  46.135  1.00  0.00     0.092 A 
HETATM   10  N4  UNL     1      20.092  21.566  46.626  1.00  0.00    -0.329 N 
ATOM     11  H4  UNL     1      19.875  21.119  47.516  1.00  0.00     0.168 HD
HETATM   12  C17 UNL     1      19.208  21.991  45.689  1.00  0.00     0.139 A 
HETATM   13  N5  UNL     1      17.852  21.969  45.625  1.00  0.00    -0.321 N 
ATOM     14  H5  UNL     1      17.308  21.571  46.391  1.00  0.00     0.169 HD
ENDROOT
BRANCH   9  15
HETATM   15  C7  UNL     1      22.612  21.584  46.781  1.00  0.00     0.019 C 
HETATM   16  C8  UNL     1      23.622  22.612  46.317  1.00  0.00     0.022 C 
HETATM   17  C9  UNL     1      24.975  22.281  46.905  1.00  0.00    -0.013 C 
HETATM   18  C10 UNL     1      25.381  20.921  46.422  1.00  0.00     0.009 C 
HETATM   19  C14 UNL     1      24.859  22.357  48.407  1.00  0.00     0.009 C 
HETATM   20  C11 UNL     1      24.439  19.874  46.979  1.00  0.00    -0.013 C 
HETATM   21  C12 UNL     1      24.388  19.969  48.481  1.00  0.00     0.009 C 
HETATM   22  C16 UNL     1      23.065  20.177  46.432  1.00  0.00     0.022 C 
HETATM   23  C13 UNL     1      23.861  21.309  48.875  1.00  0.00    -0.013 C 
HETATM   24  C15 UNL     1      22.531  21.640  48.285  1.00  0.00     0.022 C 
ENDBRANCH   9  15
BRANCH   1  25
HETATM   25  S1  UNL     1      15.442  22.434  44.476  1.00  0.00    -0.021 SA
BRANCH  25  26
HETATM   26  C2  UNL     1      14.766  23.145  46.015  1.00  0.00     0.281 A 
HETATM   27  C1  UNL     1      13.297  23.545  45.941  1.00  0.00     0.098 C 
HETATM   28  O1  UNL     1      15.358  23.027  47.179  1.00  0.00    -0.182 OA
HETATM   29  O2  UNL     1      15.576  24.158  46.537  1.00  0.00    -0.182 OA
ENDBRANCH  25  26
ENDBRANCH   1  25
TORSDOF 3
ENDMDL
MODEL 5
REMARK VINA RESULT: -8.192284126      3.577      8.449
REMARK  3 active torsions:
REMARK  status: ('A' for Active; 'I' for Inactive)
REMARK    1  A    between atoms: C2_2  and  S1_3 
REMARK    2  A    between atoms: S1_3  and  C3_4 
REMARK    3  A    between atoms: C6_12  and  C7_13 
ROOT
HETATM    1  C3  UNL     1      19.594  23.153  45.058  1.00  0.00     0.152 A 
HETATM    2  N1  UNL     1      18.842  23.188  46.198  1.00  0.00    -0.323 N 
ATOM      3  H1  UNL     1      19.308  23.302  47.098  1.00  0.00     0.169 HD
HETATM    4  C4  UNL     1      17.497  23.077  46.161  1.00  0.00     0.149 A 
HETATM    5  N2  UNL     1      16.701  23.113  47.336  1.00  0.00    -0.080 NA
HETATM    6  C5  UNL     1      16.943  22.925  44.895  1.00  0.00     0.120 A 
HETATM    7  N3  UNL     1      15.679  22.791  44.533  1.00  0.00    -0.339 N 
ATOM      8  H3  UNL     1      14.886  22.781  45.175  1.00  0.00     0.167 HD
HETATM    9  C6  UNL     1      15.590  22.671  43.198  1.00  0.00     0.092 A 
HETATM   10  N4  UNL     1      16.848  22.729  42.681  1.00  0.00    -0.329 N 
ATOM     11  H4  UNL     1      17.111  22.667  41.698  1.00  0.00     0.168 HD
HETATM   12  C17 UNL     1      17.681  22.887  43.740  1.00  0.00     0.139 A 
HETATM   13  N5  UNL     1      19.030  23.005  43.842  1.00  0.00    -0.321 N 
ATOM     14  H5  UNL     1      19.612  22.981  43.005  1.00  0.00     0.169 HD
ENDROOT
BRANCH   9  15
HETATM   15  C7  UNL     1      14.344  22.500  42.450  1.00  0.00     0.019 C 
HETATM   16  C8  UNL     1      13.264  23.338  43.101  1.00  0.00     0.022 C 
HETATM   17  C9  UNL     1      11.951  23.093  42.393  1.00  0.00    -0.013 C 
HETATM   18  C10 UNL     1      11.608  21.640  42.519  1.00  0.00     0.009 C 
HETATM   19  C14 UNL     1      12.109  23.534  40.959  1.00  0.00     0.009 C 
HETATM   20  C11 UNL     1      12.625  20.804  41.770  1.00  0.00    -0.013 C 
HETATM   21  C12 UNL     1      12.717  21.259  40.338  1.00  0.00     0.009 C 
HETATM   22  C16 UNL     1      13.961  21.031  42.433  1.00  0.00     0.022 C 
HETATM   23  C13 UNL     1      13.179  22.678  40.298  1.00  0.00    -0.013 C 
HETATM   24  C15 UNL     1      14.469  22.920  41.007  1.00  0.00     0.022 C 
ENDBRANCH   9  15
BRANCH   1  25
HETATM   25  S1  UNL     1      21.373  23.305  45.170  1.00  0.00    -0.021 SA
BRANCH  25  26
HETATM   26  C2  UNL     1      22.044  21.872  46.079  1.00  0.00     0.281 A 
HETATM   27  C1  UNL     1      22.144  22.065  47.588  1.00  0.00     0.098 C 
HETATM   28  O1  UNL     1      22.127  20.670  45.561  1.00  0.00    -0.182 OA
HETATM   29  O2  UNL     1      23.230  21.390  45.516  1.00  0.00    -0.182 OA
ENDBRANCH  25  26
ENDBRANCH   1  25
TORSDOF 3
ENDMDL
