MODEL 1
REMARK VINA RESULT: -4.787665683      0.000      0.000
REMARK  5 active torsions:
REMARK  status: ('A' for Active; 'I' for Inactive)
REMARK    1  A    between atoms: O1_2  and  C2_3 
REMARK       I    between atoms: C2_3  and  N1_5 
REMARK    2  A    between atoms: N1_5  and  C3_7 
REMARK    3  A    between atoms: C5_9  and  C6_10 
REMARK    4  A    between atoms: C19_25  and  O4_26 
REMARK    5  A    between atoms: C20_28  and  O5_29 
ROOT
HETATM    1  C3  UNL     1      39.004  12.352 -16.000  1.00  0.00     0.094 C 
HETATM    2  C4  UNL     1      38.529  11.278 -15.012  1.00  0.00     0.031 C 
HETATM    3  C5  UNL     1      38.906  11.878 -13.647  1.00  0.00    -0.002 C 
HETATM    4  C9  UNL     1      37.886  12.905 -13.352  1.00  0.00     0.033 C 
HETATM    5  C10 UNL     1      38.309  14.224 -12.806  1.00  0.00     0.094 C 
HETATM    6 CL1  UNL     1      39.982  14.389 -12.304  1.00  0.00    -0.111 Cl
HETATM    7  C11 UNL     1      37.354  14.712 -11.774  1.00  0.00     0.013 C 
HETATM    8  C12 UNL     1      36.028  14.919 -11.750  1.00  0.00    -0.018 C 
HETATM    9  C13 UNL     1      35.524  15.430 -10.447  1.00  0.00     0.052 C 
HETATM   10  C14 UNL     1      35.011  14.729 -12.776  1.00  0.00     0.155 C 
HETATM   11  O3  UNL     1      33.868  14.855 -12.279  1.00  0.00    -0.293 OA
HETATM   12  C15 UNL     1      34.943  14.433 -14.219  1.00  0.00     0.084 C 
HETATM   13  C16 UNL     1      35.907  13.380 -14.662  1.00  0.00     0.021 C 
HETATM   14  C17 UNL     1      37.330  13.608 -14.558  1.00  0.00     0.010 C 
HETATM   15  C18 UNL     1      38.188  13.564 -15.767  1.00  0.00     0.052 C 
HETATM   16  C19 UNL     1      39.038  14.685 -15.196  1.00  0.00     0.162 C 
HETATM   17  C20 UNL     1      37.972  14.836 -14.136  1.00  0.00     0.117 C 
ENDROOT
BRANCH   1  18
HETATM   18  N1  UNL     1      39.002  11.873 -17.345  1.00  0.00    -0.332 N 
HETATM   19  C2  UNL     1      39.985  12.226 -18.304  1.00  0.00     0.360 C 
HETATM   20  O2  UNL     1      40.903  13.000 -17.943  1.00  0.00    -0.239 OA
ATOM     21  H1  UNL     1      38.252  11.243 -17.631  1.00  0.00     0.165 HD
BRANCH  19  22
HETATM   22  O1  UNL     1      39.998  11.772 -19.609  1.00  0.00    -0.309 OA
HETATM   23  C1  UNL     1      40.215  12.680 -20.655  1.00  0.00     0.215 C 
ENDBRANCH  19  22
ENDBRANCH   1  18
BRANCH   3  24
HETATM   24  C6  UNL     1      38.860  10.700 -12.675  1.00  0.00    -0.018 C 
HETATM   25  C7  UNL     1      37.600  10.671 -11.871  1.00  0.00     0.010 C 
HETATM   26  C8  UNL     1      40.096  10.647 -11.820  1.00  0.00     0.010 C 
ENDBRANCH   3  24
BRANCH  16  27
HETATM   27  O4  UNL     1      39.172  15.773 -16.052  1.00  0.00    -0.392 OA
ATOM     28  H4  UNL     1      39.637  15.569 -16.855  1.00  0.00     0.210 HD
ENDBRANCH  16  27
BRANCH  17  29
HETATM   29  O5  UNL     1      37.411  16.055 -14.186  1.00  0.00    -0.384 OA
ATOM     30  H5  UNL     1      36.515  16.174 -13.895  1.00  0.00     0.210 HD
ENDBRANCH  17  29
TORSDOF 5
ENDMDL
MODEL 2
REMARK VINA RESULT: -4.652529904      2.376      6.262
REMARK  5 active torsions:
REMARK  status: ('A' for Active; 'I' for Inactive)
REMARK    1  A    between atoms: O1_2  and  C2_3 
REMARK       I    between atoms: C2_3  and  N1_5 
REMARK    2  A    between atoms: N1_5  and  C3_7 
REMARK    3  A    between atoms: C5_9  and  C6_10 
REMARK    4  A    between atoms: C19_25  and  O4_26 
REMARK    5  A    between atoms: C20_28  and  O5_29 
ROOT
HETATM    1  C3  UNL     1      36.552  14.608 -12.799  1.00  0.00     0.094 C 
HETATM    2  C4  UNL     1      37.984  14.388 -12.292  1.00  0.00     0.031 C 
HETATM    3  C5  UNL     1      38.278  12.939 -12.717  1.00  0.00    -0.002 C 
HETATM    4  C9  UNL     1      38.568  12.984 -14.165  1.00  0.00     0.033 C 
HETATM    5  C10 UNL     1      37.975  11.957 -15.064  1.00  0.00     0.094 C 
HETATM    6 CL1  UNL     1      37.166  10.595 -14.310  1.00  0.00    -0.111 Cl
HETATM    7  C11 UNL     1      38.943  11.535 -16.113  1.00  0.00     0.013 C 
HETATM    8  C12 UNL     1      39.670  12.188 -17.032  1.00  0.00    -0.018 C 
HETATM    9  C13 UNL     1      40.513  11.297 -17.875  1.00  0.00     0.052 C 
HETATM   10  C14 UNL     1      39.770  13.609 -17.341  1.00  0.00     0.155 C 
HETATM   11  O3  UNL     1      40.712  13.811 -18.142  1.00  0.00    -0.293 OA
HETATM   12  C15 UNL     1      39.085  14.865 -16.982  1.00  0.00     0.084 C 
HETATM   13  C16 UNL     1      38.753  14.974 -15.530  1.00  0.00     0.021 C 
HETATM   14  C17 UNL     1      37.825  14.046 -14.925  1.00  0.00     0.010 C 
HETATM   15  C18 UNL     1      36.586  14.539 -14.276  1.00  0.00     0.052 C 
HETATM   16  C19 UNL     1      35.845  13.312 -14.775  1.00  0.00     0.162 C 
HETATM   17  C20 UNL     1      37.068  13.022 -15.613  1.00  0.00     0.117 C 
ENDROOT
BRANCH   1  18
HETATM   18  N1  UNL     1      35.979  15.802 -12.264  1.00  0.00    -0.332 N 
HETATM   19  C2  UNL     1      35.256  15.846 -11.045  1.00  0.00     0.360 C 
HETATM   20  O2  UNL     1      35.117  14.775 -10.408  1.00  0.00    -0.239 OA
ATOM     21  H1  UNL     1      36.096  16.670 -12.787  1.00  0.00     0.165 HD
BRANCH  19  22
HETATM   22  O1  UNL     1      34.694  16.991 -10.513  1.00  0.00    -0.309 OA
HETATM   23  C1  UNL     1      35.017  17.376  -9.205  1.00  0.00     0.215 C 
ENDBRANCH  19  22
ENDBRANCH   1  18
BRANCH   3  24
HETATM   24  C6  UNL     1      39.488  12.524 -11.881  1.00  0.00    -0.018 C 
HETATM   25  C7  UNL     1      40.594  13.528 -11.939  1.00  0.00     0.010 C 
HETATM   26  C8  UNL     1      39.945  11.135 -12.232  1.00  0.00     0.010 C 
ENDBRANCH   3  24
BRANCH  16  27
HETATM   27  O4  UNL     1      34.696  13.612 -15.499  1.00  0.00    -0.392 OA
ATOM     28  H4  UNL     1      33.892  13.464 -15.015  1.00  0.00     0.210 HD
ENDBRANCH  16  27
BRANCH  17  29
HETATM   29  O5  UNL     1      36.770  13.032 -16.922  1.00  0.00    -0.384 OA
ATOM     30  H5  UNL     1      36.761  12.217 -17.410  1.00  0.00     0.210 HD
ENDBRANCH  17  29
TORSDOF 5
ENDMDL
MODEL 3
REMARK VINA RESULT: -4.615463614      3.100      4.756
REMARK  5 active torsions:
REMARK  status: ('A' for Active; 'I' for Inactive)
REMARK    1  A    between atoms: O1_2  and  C2_3 
REMARK       I    between atoms: C2_3  and  N1_5 
REMARK    2  A    between atoms: N1_5  and  C3_7 
REMARK    3  A    between atoms: C5_9  and  C6_10 
REMARK    4  A    between atoms: C19_25  and  O4_26 
REMARK    5  A    between atoms: C20_28  and  O5_29 
ROOT
HETATM    1  C3  UNL     1      39.117  11.053 -12.547  1.00  0.00     0.094 C 
HETATM    2  C4  UNL     1      37.761  10.723 -13.187  1.00  0.00     0.031 C 
HETATM    3  C5  UNL     1      36.876  11.899 -12.737  1.00  0.00    -0.002 C 
HETATM    4  C9  UNL     1      37.244  13.045 -13.593  1.00  0.00     0.033 C 
HETATM    5  C10 UNL     1      37.425  14.390 -12.981  1.00  0.00     0.094 C 
HETATM    6 CL1  UNL     1      36.938  14.586 -11.307  1.00  0.00    -0.111 Cl
HETATM    7  C11 UNL     1      36.881  15.460 -13.861  1.00  0.00     0.013 C 
HETATM    8  C12 UNL     1      37.082  15.810 -15.141  1.00  0.00    -0.018 C 
HETATM    9  C13 UNL     1      36.281  16.986 -15.574  1.00  0.00     0.052 C 
HETATM   10  C14 UNL     1      37.946  15.238 -16.166  1.00  0.00     0.155 C 
HETATM   11  O3  UNL     1      37.686  15.746 -17.282  1.00  0.00    -0.293 OA
HETATM   12  C15 UNL     1      39.027  14.240 -16.264  1.00  0.00     0.084 C 
HETATM   13  C16 UNL     1      38.776  13.003 -15.466  1.00  0.00     0.021 C 
HETATM   14  C17 UNL     1      38.683  13.074 -14.025  1.00  0.00     0.010 C 
HETATM   15  C18 UNL     1      39.615  12.296 -13.174  1.00  0.00     0.052 C 
HETATM   16  C19 UNL     1      39.635  13.436 -12.169  1.00  0.00     0.162 C 
HETATM   17  C20 UNL     1      38.903  14.250 -13.211  1.00  0.00     0.117 C 
ENDROOT
BRANCH   1  18
HETATM   18  N1  UNL     1      40.015   9.944 -12.609  1.00  0.00    -0.332 N 
HETATM   19  C2  UNL     1      40.547   9.301 -11.463  1.00  0.00     0.360 C 
HETATM   20  O2  UNL     1      40.204   9.735 -10.337  1.00  0.00    -0.239 OA
ATOM     21  H1  UNL     1      40.289   9.596 -13.529  1.00  0.00     0.165 HD
BRANCH  19  22
HETATM   22  O1  UNL     1      41.416   8.228 -11.504  1.00  0.00    -0.309 OA
HETATM   23  C1  UNL     1      42.350   8.134 -12.545  1.00  0.00     0.215 C 
ENDBRANCH  19  22
ENDBRANCH   1  18
BRANCH   3  24
HETATM   24  C6  UNL     1      35.444  11.421 -12.967  1.00  0.00    -0.018 C 
HETATM   25  C7  UNL     1      34.894  11.876 -14.282  1.00  0.00     0.010 C 
HETATM   26  C8  UNL     1      34.553  11.779 -11.810  1.00  0.00     0.010 C 
ENDBRANCH   3  24
BRANCH  16  27
HETATM   27  O4  UNL     1      40.915  13.887 -11.866  1.00  0.00    -0.392 OA
ATOM     28  H4  UNL     1      41.604  13.311 -12.175  1.00  0.00     0.210 HD
ENDBRANCH  16  27
BRANCH  17  29
HETATM   29  O5  UNL     1      39.624  15.320 -13.581  1.00  0.00    -0.384 OA
ATOM     30  H5  UNL     1      40.460  15.198 -14.016  1.00  0.00     0.210 HD
ENDBRANCH  17  29
TORSDOF 5
ENDMDL
MODEL 4
REMARK VINA RESULT: -4.429287788      7.594      9.838
REMARK  5 active torsions:
REMARK  status: ('A' for Active; 'I' for Inactive)
REMARK    1  A    between atoms: O1_2  and  C2_3 
REMARK       I    between atoms: C2_3  and  N1_5 
REMARK    2  A    between atoms: N1_5  and  C3_7 
REMARK    3  A    between atoms: C5_9  and  C6_10 
REMARK    4  A    between atoms: C19_25  and  O4_26 
REMARK    5  A    between atoms: C20_28  and  O5_29 
ROOT
HETATM    1  C3  UNL     1      42.457   4.935  -9.621  1.00  0.00     0.094 C 
HETATM    2  C4  UNL     1      41.455   4.445 -10.675  1.00  0.00     0.031 C 
HETATM    3  C5  UNL     1      40.101   4.610  -9.962  1.00  0.00    -0.002 C 
HETATM    4  C9  UNL     1      39.780   6.051 -10.015  1.00  0.00     0.033 C 
HETATM    5  C10 UNL     1      39.248   6.729  -8.800  1.00  0.00     0.094 C 
HETATM    6 CL1  UNL     1      38.793   5.713  -7.444  1.00  0.00    -0.111 Cl
HETATM    7  C11 UNL     1      38.191   7.716  -9.153  1.00  0.00     0.013 C 
HETATM    8  C12 UNL     1      38.131   8.762  -9.991  1.00  0.00    -0.018 C 
HETATM    9  C13 UNL     1      36.815   9.457  -9.989  1.00  0.00     0.052 C 
HETATM   10  C14 UNL     1      39.128   9.326 -10.892  1.00  0.00     0.155 C 
HETATM   11  O3  UNL     1      38.599  10.181 -11.639  1.00  0.00    -0.293 OA
HETATM   12  C15 UNL     1      40.568   9.178 -11.173  1.00  0.00     0.084 C 
HETATM   13  C16 UNL     1      41.035   7.759 -11.182  1.00  0.00     0.021 C 
HETATM   14  C17 UNL     1      40.971   6.965  -9.976  1.00  0.00     0.010 C 
HETATM   15  C18 UNL     1      42.204   6.375  -9.400  1.00  0.00     0.052 C 
HETATM   16  C19 UNL     1      41.659   6.619  -8.003  1.00  0.00     0.162 C 
HETATM   17  C20 UNL     1      40.570   7.431  -8.665  1.00  0.00     0.117 C 
ENDROOT
BRANCH   1  18
HETATM   18  N1  UNL     1      43.801   4.606  -9.975  1.00  0.00    -0.332 N 
HETATM   19  C2  UNL     1      44.535   3.553  -9.373  1.00  0.00     0.360 C 
HETATM   20  O2  UNL     1      43.966   2.878  -8.482  1.00  0.00    -0.239 OA
ATOM     21  H1  UNL     1      44.257   5.159 -10.701  1.00  0.00     0.165 HD
BRANCH  19  22
HETATM   22  O1  UNL     1      45.835   3.221  -9.702  1.00  0.00    -0.309 OA
HETATM   23  C1  UNL     1      46.137   2.825 -11.012  1.00  0.00     0.215 C 
ENDBRANCH  19  22
ENDBRANCH   1  18
BRANCH   3  24
HETATM   24  C6  UNL     1      39.127   3.754 -10.769  1.00  0.00    -0.018 C 
HETATM   25  C7  UNL     1      38.372   4.551 -11.785  1.00  0.00     0.010 C 
HETATM   26  C8  UNL     1      38.224   2.955  -9.871  1.00  0.00     0.010 C 
ENDBRANCH   3  24
BRANCH  16  27
HETATM   27  O4  UNL     1      42.520   7.346  -7.189  1.00  0.00    -0.392 OA
ATOM     28  H4  UNL     1      43.095   6.803  -6.664  1.00  0.00     0.210 HD
ENDBRANCH  16  27
BRANCH  17  29
HETATM   29  O5  UNL     1      40.606   8.709  -8.257  1.00  0.00    -0.384 OA
ATOM     30  H5  UNL     1      41.423   9.083  -7.948  1.00  0.00     0.210 HD
ENDBRANCH  17  29
TORSDOF 5
ENDMDL
MODEL 5
REMARK VINA RESULT: -4.359525453      6.800      9.368
REMARK  5 active torsions:
REMARK  status: ('A' for Active; 'I' for Inactive)
REMARK    1  A    between atoms: O1_2  and  C2_3 
REMARK       I    between atoms: C2_3  and  N1_5 
REMARK    2  A    between atoms: N1_5  and  C3_7 
REMARK    3  A    between atoms: C5_9  and  C6_10 
REMARK    4  A    between atoms: C19_25  and  O4_26 
REMARK    5  A    between atoms: C20_28  and  O5_29 
ROOT
HETATM    1  C3  UNL     1      43.131   5.635 -11.086  1.00  0.00     0.094 C 
HETATM    2  C4  UNL     1      44.018   6.816 -11.503  1.00  0.00     0.031 C 
HETATM    3  C5  UNL     1      43.550   7.105 -12.940  1.00  0.00    -0.002 C 
HETATM    4  C9  UNL     1      42.270   7.832 -12.819  1.00  0.00     0.033 C 
HETATM    5  C10 UNL     1      41.130   7.462 -13.703  1.00  0.00     0.094 C 
HETATM    6 CL1  UNL     1      41.457   6.349 -15.018  1.00  0.00    -0.111 Cl
HETATM    7  C11 UNL     1      40.382   8.669 -14.151  1.00  0.00     0.013 C 
HETATM    8  C12 UNL     1      39.799   9.697 -13.516  1.00  0.00    -0.018 C 
HETATM    9  C13 UNL     1      39.159  10.682 -14.429  1.00  0.00     0.052 C 
HETATM   10  C14 UNL     1      39.687  10.006 -12.096  1.00  0.00     0.155 C 
HETATM   11  O3  UNL     1      39.232  11.164 -11.941  1.00  0.00    -0.293 OA
HETATM   12  C15 UNL     1      39.954   9.352 -10.801  1.00  0.00     0.084 C 
HETATM   13  C16 UNL     1      41.243   8.597 -10.765  1.00  0.00     0.021 C 
HETATM   14  C17 UNL     1      41.438   7.452 -11.626  1.00  0.00     0.010 C 
HETATM   15  C18 UNL     1      41.734   6.120 -11.047  1.00  0.00     0.052 C 
HETATM   16  C19 UNL     1      40.907   5.469 -12.143  1.00  0.00     0.162 C 
HETATM   17  C20 UNL     1      40.449   6.863 -12.504  1.00  0.00     0.117 C 
ENDROOT
BRANCH   1  18
HETATM   18  N1  UNL     1      43.592   5.027  -9.880  1.00  0.00    -0.332 N 
HETATM   19  C2  UNL     1      43.623   3.625  -9.671  1.00  0.00     0.360 C 
HETATM   20  O2  UNL     1      43.222   2.886 -10.602  1.00  0.00    -0.239 OA
ATOM     21  H1  UNL     1      43.917   5.634  -9.127  1.00  0.00     0.165 HD
BRANCH  19  22
HETATM   22  O1  UNL     1      44.065   3.019  -8.511  1.00  0.00    -0.309 OA
HETATM   23  C1  UNL     1      43.137   2.635  -7.534  1.00  0.00     0.215 C 
ENDBRANCH  19  22
ENDBRANCH   1  18
BRANCH   3  24
HETATM   24  C6  UNL     1      44.661   7.957 -13.551  1.00  0.00    -0.018 C 
HETATM   25  C7  UNL     1      44.262   9.389 -13.709  1.00  0.00     0.010 C 
HETATM   26  C8  UNL     1      45.177   7.353 -14.827  1.00  0.00     0.010 C 
ENDBRANCH   3  24
BRANCH  16  27
HETATM   27  O4  UNL     1      39.907   4.630 -11.662  1.00  0.00    -0.392 OA
ATOM     28  H4  UNL     1      40.065   4.319 -10.778  1.00  0.00     0.210 HD
ENDBRANCH  16  27
BRANCH  17  29
HETATM   29  O5  UNL     1      39.120   6.987 -12.362  1.00  0.00    -0.384 OA
ATOM     30  H5  UNL     1      38.564   7.017 -13.132  1.00  0.00     0.210 HD
ENDBRANCH  17  29
TORSDOF 5
ENDMDL
