MODEL 1
REMARK VINA RESULT: -5.241195272      0.000      0.000
REMARK  7 active torsions:
REMARK  status: ('A' for Active; 'I' for Inactive)
REMARK    1  A    between atoms: C5_5  and  O1_6 
REMARK    2  A    between atoms: C6_8  and  O2_9 
REMARK    3  A    between atoms: C6_8  and  C7_11 
REMARK    4  A    between atoms: C8_12  and  C9_13 
REMARK    5  A    between atoms: N1_15  and  C11_16 
REMARK    6  A    between atoms: C14_19  and  N2_20 
REMARK    7  A    between atoms: N2_20  and  C15_22 
ROOT
HETATM    1  C9  UNL     1      40.114  10.218 -11.940  1.00  0.00     0.073 A 
HETATM    2  C10 UNL     1      40.151   9.562 -10.737  1.00  0.00     0.114 A 
HETATM    3  N1  UNL     1      40.869   8.413 -10.815  1.00  0.00    -0.357 N 
HETATM    4  C20 UNL     1      41.309   8.305 -12.076  1.00  0.00     0.134 A 
HETATM    5  C21 UNL     1      40.854   9.415 -12.799  1.00  0.00     0.151 A 
HETATM    6  F1  UNL     1      41.084   9.676 -14.108  1.00  0.00    -0.203 F 
ENDROOT
BRANCH   1   7
HETATM    7  C8  UNL     1      39.445  11.467 -12.221  1.00  0.00    -0.059 C 
HETATM    8  C7  UNL     1      38.889  12.500 -12.479  1.00  0.00    -0.060 C 
BRANCH   8   9
HETATM    9  C6  UNL     1      38.216  13.722 -12.820  1.00  0.00     0.147 C 
HETATM   10  C5  UNL     1      38.949  14.522 -13.890  1.00  0.00     0.165 C 
HETATM   11  C4  UNL     1      37.912  15.580 -14.201  1.00  0.00     0.044 C 
HETATM   12  C2  UNL     1      36.574  14.896 -13.991  1.00  0.00    -0.042 C 
HETATM   13  C1  UNL     1      35.830  15.591 -12.869  1.00  0.00     0.015 C 
HETATM   14  C3  UNL     1      35.749  14.883 -15.236  1.00  0.00     0.015 C 
HETATM   15  C22 UNL     1      36.907  13.462 -13.537  1.00  0.00     0.063 C 
BRANCH  10  16
HETATM   16  O1  UNL     1      40.158  15.015 -13.479  1.00  0.00    -0.392 OA
ATOM     17  H1  UNL     1      40.460  14.675 -12.645  1.00  0.00     0.210 HD
ENDBRANCH  10  16
BRANCH   9  18
HETATM   18  O2  UNL     1      37.940  14.519 -11.705  1.00  0.00    -0.375 OA
ATOM     19  H2  UNL     1      37.093  14.941 -11.793  1.00  0.00     0.212 HD
ENDBRANCH   9  18
ENDBRANCH   8   9
ENDBRANCH   1   7
BRANCH   3  20
HETATM   20  C11 UNL     1      41.076   7.508  -9.711  1.00  0.00     0.089 C 
HETATM   21  C12 UNL     1      42.251   6.584  -9.960  1.00  0.00     0.028 C 
HETATM   22  C13 UNL     1      42.045   5.370  -9.067  1.00  0.00     0.027 C 
HETATM   23  C14 UNL     1      41.402   5.749  -7.766  1.00  0.00     0.077 C 
HETATM   24  C18 UNL     1      41.811   7.179  -7.419  1.00  0.00     0.027 C 
HETATM   25  C19 UNL     1      41.253   8.192  -8.402  1.00  0.00     0.028 C 
BRANCH  23  26
HETATM   26  N2  UNL     1      41.678   4.922  -6.669  1.00  0.00    -0.409 N 
ATOM     27  H2  UNL     1      41.984   3.968  -6.857  1.00  0.00     0.154 HD
BRANCH  26  28
HETATM   28  C15 UNL     1      41.560   5.318  -5.348  1.00  0.00     0.124 C 
HETATM   29  C16 UNL     1      40.103   5.132  -4.827  1.00  0.00     0.194 C 
HETATM   30  O3  UNL     1      40.721   5.138  -3.546  1.00  0.00    -0.387 OA
HETATM   31  C17 UNL     1      41.751   4.354  -4.207  1.00  0.00     0.194 C 
ENDBRANCH  26  28
ENDBRANCH  23  26
ENDBRANCH   3  20
TORSDOF 7
ENDMDL
MODEL 2
REMARK VINA RESULT: -5.214023713      1.501      1.856
REMARK  7 active torsions:
REMARK  status: ('A' for Active; 'I' for Inactive)
REMARK    1  A    between atoms: C5_5  and  O1_6 
REMARK    2  A    between atoms: C6_8  and  O2_9 
REMARK    3  A    between atoms: C6_8  and  C7_11 
REMARK    4  A    between atoms: C8_12  and  C9_13 
REMARK    5  A    between atoms: N1_15  and  C11_16 
REMARK    6  A    between atoms: C14_19  and  N2_20 
REMARK    7  A    between atoms: N2_20  and  C15_22 
ROOT
HETATM    1  C9  UNL     1      40.158  10.164 -12.043  1.00  0.00     0.073 A 
HETATM    2  C10 UNL     1      40.206   9.461 -10.868  1.00  0.00     0.114 A 
HETATM    3  N1  UNL     1      40.946   8.332 -10.989  1.00  0.00    -0.357 N 
HETATM    4  C20 UNL     1      41.392   8.283 -12.252  1.00  0.00     0.134 A 
HETATM    5  C21 UNL     1      40.916   9.412 -12.932  1.00  0.00     0.151 A 
HETATM    6  F1  UNL     1      41.145   9.731 -14.228  1.00  0.00    -0.203 F 
ENDROOT
BRANCH   1   7
HETATM    7  C8  UNL     1      39.465  11.410 -12.275  1.00  0.00    -0.059 C 
HETATM    8  C7  UNL     1      38.891  12.444 -12.494  1.00  0.00    -0.060 C 
BRANCH   8   9
HETATM    9  C6  UNL     1      38.201  13.668 -12.789  1.00  0.00     0.147 C 
HETATM   10  C5  UNL     1      38.892  14.491 -13.869  1.00  0.00     0.165 C 
HETATM   11  C4  UNL     1      37.839  15.549 -14.124  1.00  0.00     0.044 C 
HETATM   12  C2  UNL     1      36.513  14.854 -13.880  1.00  0.00    -0.042 C 
HETATM   13  C1  UNL     1      35.806  15.524 -12.720  1.00  0.00     0.015 C 
HETATM   14  C3  UNL     1      35.645  14.859 -15.096  1.00  0.00     0.015 C 
HETATM   15  C22 UNL     1      36.870  13.413 -13.464  1.00  0.00     0.063 C 
BRANCH  10  16
HETATM   16  O1  UNL     1      40.112  14.983 -13.491  1.00  0.00    -0.392 OA
ATOM     17  H1  UNL     1      40.770  14.319 -13.320  1.00  0.00     0.210 HD
ENDBRANCH  10  16
BRANCH   9  18
HETATM   18  O2  UNL     1      37.961  14.443 -11.651  1.00  0.00    -0.375 OA
ATOM     19  H2  UNL     1      38.778  14.700 -11.239  1.00  0.00     0.212 HD
ENDBRANCH   9  18
ENDBRANCH   8   9
ENDBRANCH   1   7
BRANCH   3  20
HETATM   20  C11 UNL     1      41.169   7.387  -9.923  1.00  0.00     0.089 C 
HETATM   21  C12 UNL     1      41.099   8.052  -8.563  1.00  0.00     0.028 C 
HETATM   22  C13 UNL     1      41.867   7.157  -7.602  1.00  0.00     0.027 C 
HETATM   23  C14 UNL     1      41.702   5.708  -7.952  1.00  0.00     0.077 C 
HETATM   24  C18 UNL     1      40.338   5.518  -8.610  1.00  0.00     0.027 C 
HETATM   25  C19 UNL     1      40.243   6.223  -9.952  1.00  0.00     0.028 C 
BRANCH  23  26
HETATM   26  N2  UNL     1      41.827   4.793  -6.899  1.00  0.00    -0.409 N 
ATOM     27  H2  UNL     1      41.770   5.153  -5.946  1.00  0.00     0.154 HD
BRANCH  26  28
HETATM   28  C15 UNL     1      42.021   3.434  -7.068  1.00  0.00     0.124 C 
HETATM   29  C16 UNL     1      43.147   3.146  -8.106  1.00  0.00     0.194 C 
HETATM   30  O3  UNL     1      43.214   1.882  -7.459  1.00  0.00    -0.387 OA
HETATM   31  C17 UNL     1      43.020   2.662  -6.248  1.00  0.00     0.194 C 
ENDBRANCH  26  28
ENDBRANCH  23  26
ENDBRANCH   3  20
TORSDOF 7
ENDMDL
MODEL 3
REMARK VINA RESULT: -5.188426982      3.799      5.054
REMARK  7 active torsions:
REMARK  status: ('A' for Active; 'I' for Inactive)
REMARK    1  A    between atoms: C5_5  and  O1_6 
REMARK    2  A    between atoms: C6_8  and  O2_9 
REMARK    3  A    between atoms: C6_8  and  C7_11 
REMARK    4  A    between atoms: C8_12  and  C9_13 
REMARK    5  A    between atoms: N1_15  and  C11_16 
REMARK    6  A    between atoms: C14_19  and  N2_20 
REMARK    7  A    between atoms: N2_20  and  C15_22 
ROOT
HETATM    1  C9  UNL     1      40.853   8.538 -10.269  1.00  0.00     0.073 A 
HETATM    2  C10 UNL     1      41.687   7.535 -10.691  1.00  0.00     0.114 A 
HETATM    3  N1  UNL     1      42.123   6.777  -9.654  1.00  0.00    -0.357 N 
HETATM    4  C20 UNL     1      41.576   7.279  -8.538  1.00  0.00     0.134 A 
HETATM    5  C21 UNL     1      40.781   8.376  -8.890  1.00  0.00     0.151 A 
HETATM    6  F1  UNL     1      40.061   9.155  -8.049  1.00  0.00    -0.203 F 
ENDROOT
BRANCH   1   7
HETATM    7  C8  UNL     1      40.206   9.527 -11.098  1.00  0.00    -0.059 C 
HETATM    8  C7  UNL     1      39.649  10.354 -11.770  1.00  0.00    -0.060 C 
BRANCH   8   9
HETATM    9  C6  UNL     1      38.966  11.352 -12.544  1.00  0.00     0.147 C 
HETATM   10  C5  UNL     1      37.467  11.387 -12.274  1.00  0.00     0.165 C 
HETATM   11  C4  UNL     1      37.082  12.650 -13.015  1.00  0.00     0.044 C 
HETATM   12  C2  UNL     1      38.293  13.558 -12.902  1.00  0.00    -0.042 C 
HETATM   13  C1  UNL     1      38.843  13.829 -14.287  1.00  0.00     0.015 C 
HETATM   14  C3  UNL     1      37.969  14.840 -12.208  1.00  0.00     0.015 C 
HETATM   15  C22 UNL     1      39.343  12.754 -12.111  1.00  0.00     0.063 C 
BRANCH  10  16
HETATM   16  O1  UNL     1      36.806  10.261 -12.687  1.00  0.00    -0.392 OA
ATOM     17  H1  UNL     1      36.565   9.665 -11.988  1.00  0.00     0.210 HD
ENDBRANCH  10  16
BRANCH   9  18
HETATM   18  O2  UNL     1      39.221  11.246 -13.914  1.00  0.00    -0.375 OA
ATOM     19  H2  UNL     1      39.424  12.096 -14.287  1.00  0.00     0.212 HD
ENDBRANCH   9  18
ENDBRANCH   8   9
ENDBRANCH   1   7
BRANCH   3  20
HETATM   20  C11 UNL     1      43.020   5.655  -9.788  1.00  0.00     0.089 C 
HETATM   21  C12 UNL     1      42.297   4.336  -9.599  1.00  0.00     0.028 C 
HETATM   22  C13 UNL     1      43.354   3.314  -9.209  1.00  0.00     0.027 C 
HETATM   23  C14 UNL     1      44.658   3.585  -9.898  1.00  0.00     0.077 C 
HETATM   24  C18 UNL     1      44.371   4.252 -11.241  1.00  0.00     0.027 C 
HETATM   25  C19 UNL     1      43.760   5.633 -11.078  1.00  0.00     0.028 C 
BRANCH  23  26
HETATM   26  N2  UNL     1      45.491   2.479 -10.113  1.00  0.00    -0.409 N 
ATOM     27  H2  UNL     1      46.366   2.433  -9.590  1.00  0.00     0.154 HD
BRANCH  26  28
HETATM   28  C15 UNL     1      45.203   1.446 -10.988  1.00  0.00     0.124 C 
HETATM   29  C16 UNL     1      46.250   1.370 -12.141  1.00  0.00     0.194 C 
HETATM   30  O3  UNL     1      45.796   0.028 -12.261  1.00  0.00    -0.387 OA
HETATM   31  C17 UNL     1      45.775   0.065 -10.808  1.00  0.00     0.194 C 
ENDBRANCH  26  28
ENDBRANCH  23  26
ENDBRANCH   3  20
TORSDOF 7
ENDMDL
MODEL 4
REMARK VINA RESULT: -5.005724259      2.019      2.556
REMARK  7 active torsions:
REMARK  status: ('A' for Active; 'I' for Inactive)
REMARK    1  A    between atoms: C5_5  and  O1_6 
REMARK    2  A    between atoms: C6_8  and  O2_9 
REMARK    3  A    between atoms: C6_8  and  C7_11 
REMARK    4  A    between atoms: C8_12  and  C9_13 
REMARK    5  A    between atoms: N1_15  and  C11_16 
REMARK    6  A    between atoms: C14_19  and  N2_20 
REMARK    7  A    between atoms: N2_20  and  C15_22 
ROOT
HETATM    1  C9  UNL     1      40.858   9.250 -12.113  1.00  0.00     0.073 A 
HETATM    2  C10 UNL     1      40.666   8.437 -11.026  1.00  0.00     0.114 A 
HETATM    3  N1  UNL     1      41.607   7.464 -10.955  1.00  0.00    -0.357 N 
HETATM    4  C20 UNL     1      42.429   7.630 -12.001  1.00  0.00     0.134 A 
HETATM    5  C21 UNL     1      41.986   8.735 -12.739  1.00  0.00     0.151 A 
HETATM    6  F1  UNL     1      42.547   9.229 -13.869  1.00  0.00    -0.203 F 
ENDROOT
BRANCH   1   7
HETATM    7  C8  UNL     1      40.051  10.385 -12.495  1.00  0.00    -0.059 C 
HETATM    8  C7  UNL     1      39.357  11.314 -12.814  1.00  0.00    -0.060 C 
BRANCH   8   9
HETATM    9  C6  UNL     1      38.501  12.404 -13.187  1.00  0.00     0.147 C 
HETATM   10  C5  UNL     1      37.023  12.036 -13.146  1.00  0.00     0.165 C 
HETATM   11  C4  UNL     1      36.394  13.400 -13.335  1.00  0.00     0.044 C 
HETATM   12  C2  UNL     1      37.356  14.373 -12.680  1.00  0.00    -0.042 C 
HETATM   13  C1  UNL     1      37.895  15.324 -13.728  1.00  0.00     0.015 C 
HETATM   14  C3  UNL     1      36.712  15.133 -11.566  1.00  0.00     0.015 C 
HETATM   15  C22 UNL     1      38.524  13.514 -12.157  1.00  0.00     0.063 C 
BRANCH  10  16
HETATM   16  O1  UNL     1      36.660  11.107 -14.084  1.00  0.00    -0.392 OA
ATOM     17  H1  UNL     1      36.957  11.299 -14.965  1.00  0.00     0.210 HD
ENDBRANCH  10  16
BRANCH   9  18
HETATM   18  O2  UNL     1      38.840  12.962 -14.423  1.00  0.00    -0.375 OA
ATOM     19  H2  UNL     1      39.736  13.278 -14.416  1.00  0.00     0.212 HD
ENDBRANCH   9  18
ENDBRANCH   8   9
ENDBRANCH   1   7
BRANCH   3  20
HETATM   20  C11 UNL     1      41.658   6.455  -9.926  1.00  0.00     0.089 C 
HETATM   21  C12 UNL     1      43.009   5.771  -9.880  1.00  0.00     0.028 C 
HETATM   22  C13 UNL     1      42.792   4.425  -9.205  1.00  0.00     0.027 C 
HETATM   23  C14 UNL     1      41.741   4.511  -8.138  1.00  0.00     0.077 C 
HETATM   24  C18 UNL     1      41.751   5.923  -7.557  1.00  0.00     0.027 C 
HETATM   25  C19 UNL     1      41.316   6.965  -8.571  1.00  0.00     0.028 C 
BRANCH  23  26
HETATM   26  N2  UNL     1      41.842   3.590  -7.087  1.00  0.00    -0.409 N 
ATOM     27  H2  UNL     1      41.068   3.535  -6.425  1.00  0.00     0.154 HD
BRANCH  26  28
HETATM   28  C15 UNL     1      42.925   2.750  -6.890  1.00  0.00     0.124 C 
HETATM   29  C16 UNL     1      43.306   2.659  -5.382  1.00  0.00     0.194 C 
HETATM   30  O3  UNL     1      43.930   1.442  -5.767  1.00  0.00    -0.387 OA
HETATM   31  C17 UNL     1      42.754   1.282  -6.606  1.00  0.00     0.194 C 
ENDBRANCH  26  28
ENDBRANCH  23  26
ENDBRANCH   3  20
TORSDOF 7
ENDMDL
MODEL 5
REMARK VINA RESULT: -4.973226365      3.461      4.527
REMARK  7 active torsions:
REMARK  status: ('A' for Active; 'I' for Inactive)
REMARK    1  A    between atoms: C5_5  and  O1_6 
REMARK    2  A    between atoms: C6_8  and  O2_9 
REMARK    3  A    between atoms: C6_8  and  C7_11 
REMARK    4  A    between atoms: C8_12  and  C9_13 
REMARK    5  A    between atoms: N1_15  and  C11_16 
REMARK    6  A    between atoms: C14_19  and  N2_20 
REMARK    7  A    between atoms: N2_20  and  C15_22 
ROOT
HETATM    1  C9  UNL     1      40.507   9.089 -10.911  1.00  0.00     0.073 A 
HETATM    2  C10 UNL     1      41.314   8.137 -11.478  1.00  0.00     0.114 A 
HETATM    3  N1  UNL     1      41.785   7.264 -10.553  1.00  0.00    -0.357 N 
HETATM    4  C20 UNL     1      41.289   7.638  -9.365  1.00  0.00     0.134 A 
HETATM    5  C21 UNL     1      40.491   8.772  -9.558  1.00  0.00     0.151 A 
HETATM    6  F1  UNL     1      39.813   9.455  -8.604  1.00  0.00    -0.203 F 
ENDROOT
BRANCH   1   7
HETATM    7  C8  UNL     1      39.835  10.169 -11.595  1.00  0.00    -0.059 C 
HETATM    8  C7  UNL     1      39.255  11.063 -12.150  1.00  0.00    -0.060 C 
BRANCH   8   9
HETATM    9  C6  UNL     1      38.538  12.132 -12.787  1.00  0.00     0.147 C 
HETATM   10  C5  UNL     1      37.036  11.884 -12.845  1.00  0.00     0.165 C 
HETATM   11  C4  UNL     1      36.552  13.237 -13.322  1.00  0.00     0.044 C 
HETATM   12  C2  UNL     1      37.532  14.237 -12.737  1.00  0.00    -0.042 C 
HETATM   13  C1  UNL     1      38.249  14.950 -13.864  1.00  0.00     0.015 C 
HETATM   14  C3  UNL     1      36.858  15.222 -11.839  1.00  0.00     0.015 C 
HETATM   15  C22 UNL     1      38.564  13.399 -11.958  1.00  0.00     0.063 C 
BRANCH  10  16
HETATM   16  O1  UNL     1      36.680  10.836 -13.650  1.00  0.00    -0.392 OA
ATOM     17  H1  UNL     1      35.987  10.288 -13.301  1.00  0.00     0.210 HD
ENDBRANCH  10  16
BRANCH   9  18
HETATM   18  O2  UNL     1      39.039  12.442 -14.055  1.00  0.00    -0.375 OA
ATOM     19  H2  UNL     1      38.432  12.169 -14.734  1.00  0.00     0.212 HD
ENDBRANCH   9  18
ENDBRANCH   8   9
ENDBRANCH   1   7
BRANCH   3  20
HETATM   20  C11 UNL     1      42.664   6.160 -10.851  1.00  0.00     0.089 C 
HETATM   21  C12 UNL     1      43.720   6.544 -11.868  1.00  0.00     0.028 C 
HETATM   22  C13 UNL     1      44.200   5.250 -12.505  1.00  0.00     0.027 C 
HETATM   23  C14 UNL     1      44.211   4.123 -11.516  1.00  0.00     0.077 C 
HETATM   24  C18 UNL     1      44.464   4.698 -10.124  1.00  0.00     0.027 C 
HETATM   25  C19 UNL     1      43.322   5.579  -9.650  1.00  0.00     0.028 C 
BRANCH  23  26
HETATM   26  N2  UNL     1      45.130   3.092 -11.753  1.00  0.00    -0.409 N 
ATOM     27  H2  UNL     1      45.606   3.076 -12.654  1.00  0.00     0.154 HD
BRANCH  26  28
HETATM   28  C15 UNL     1      45.433   2.096 -10.841  1.00  0.00     0.124 C 
HETATM   29  C16 UNL     1      44.231   1.124 -10.641  1.00  0.00     0.194 C 
HETATM   30  O3  UNL     1      45.230   0.225 -10.177  1.00  0.00    -0.387 OA
HETATM   31  C17 UNL     1      46.017   0.775 -11.268  1.00  0.00     0.194 C 
ENDBRANCH  26  28
ENDBRANCH  23  26
ENDBRANCH   3  20
TORSDOF 7
ENDMDL
