MODEL 1
REMARK VINA RESULT: -5.000212113      0.000      0.000
REMARK  7 active torsions:
REMARK  status: ('A' for Active; 'I' for Inactive)
REMARK    1  A    between atoms: O1_2  and  C2_3 
REMARK    2  A    between atoms: C2_3  and  C3_5 
REMARK    3  A    between atoms: C5_9  and  N2_10 
REMARK    4  A    between atoms: N2_10  and  C6_12 
REMARK    5  A    between atoms: C13_22  and  N4_23 
REMARK    6  A    between atoms: N4_23  and  C14_25 
REMARK    7  A    between atoms: C19_30  and  N5_31 
ROOT
HETATM    1  C3  UNL     1      40.165   8.303 -10.316  1.00  0.00     0.099 A 
HETATM    2  C4  UNL     1      38.907   8.819 -10.201  1.00  0.00     0.127 A 
HETATM    3  N1  UNL     1      38.401   9.673 -11.108  1.00  0.00    -0.201 N 
ATOM      4  H1  UNL     1      37.455  10.029 -10.974  1.00  0.00     0.183 HD
HETATM    5  C5  UNL     1      39.094  10.073 -12.183  1.00  0.00     0.679 A 
HETATM    6  N3  UNL     1      40.358   9.563 -12.313  1.00  0.00    -0.176 N 
ATOM      7  H3  UNL     1      40.909   9.850 -13.122  1.00  0.00     0.186 HD
HETATM    8  C13 UNL     1      40.915   8.710 -11.443  1.00  0.00     0.135 A 
ENDROOT
BRANCH   8   9
HETATM    9  N4  UNL     1      42.064   8.215 -11.514  1.00  0.00    -0.368 N 
ATOM     10  H4  UNL     1      42.507   8.075 -10.607  1.00  0.00     0.161 HD
BRANCH   9  11
HETATM   11  C14 UNL     1      42.854   7.818 -12.591  1.00  0.00     0.113 C 
HETATM   12  C15 UNL     1      43.440   8.881 -13.466  1.00  0.00     0.027 C 
HETATM   13  C16 UNL     1      44.819   8.454 -13.941  1.00  0.00     0.002 C 
HETATM   14  C17 UNL     1      44.790   7.020 -14.445  1.00  0.00     0.002 C 
HETATM   15  C18 UNL     1      44.360   6.058 -13.366  1.00  0.00     0.035 C 
HETATM   16  C19 UNL     1      43.954   6.878 -12.136  1.00  0.00     0.206 C 
BRANCH  16  17
HETATM   17  N5  UNL     1      43.450   5.980 -11.111  1.00  0.00    -0.073 N 
ATOM     18  H53 UNL     1      42.964   6.483 -10.368  1.00  0.00     0.274 HD
ATOM     19  H52 UNL     1      42.669   5.418 -11.446  1.00  0.00     0.274 HD
ATOM     20  H51 UNL     1      44.208   5.402 -10.748  1.00  0.00     0.274 HD
ENDBRANCH  16  17
ENDBRANCH   9  11
ENDBRANCH   8   9
BRANCH   1  21
HETATM   21  C2  UNL     1      40.744   7.373  -9.353  1.00  0.00     0.298 C 
HETATM   22  O2  UNL     1      40.620   6.127  -9.593  1.00  0.00    -0.259 OA
BRANCH  21  23
HETATM   23  O1  UNL     1      41.406   7.755  -8.219  1.00  0.00    -0.322 OA
HETATM   24  C1  UNL     1      41.758   6.753  -7.260  1.00  0.00     0.213 C 
ENDBRANCH  21  23
ENDBRANCH   1  21
BRANCH   5  25
HETATM   25  N2  UNL     1      38.681  10.870 -13.071  1.00  0.00    -0.220 N 
ATOM     26  H2  UNL     1      37.942  10.492 -13.664  1.00  0.00     0.178 HD
BRANCH  25  27
HETATM   27  C6  UNL     1      39.063  12.198 -13.390  1.00  0.00     0.118 C 
HETATM   28  C7  UNL     1      39.228  13.137 -12.253  1.00  0.00     0.027 C 
HETATM   29  C8  UNL     1      38.698  14.532 -12.504  1.00  0.00     0.002 C 
HETATM   30  C9  UNL     1      39.178  14.949 -13.873  1.00  0.00     0.006 C 
HETATM   31  C10 UNL     1      38.423  14.142 -14.879  1.00  0.00     0.002 C 
HETATM   32  C11 UNL     1      39.080  14.347 -16.238  1.00  0.00     0.011 C 
HETATM   33  C12 UNL     1      38.218  12.710 -14.533  1.00  0.00     0.109 C 
HETATM   34 CL1  UNL     1      38.732  11.760 -15.975  1.00  0.00    -0.122 Cl
ENDBRANCH  25  27
ENDBRANCH   5  25
TORSDOF 7
ENDMDL
MODEL 2
REMARK VINA RESULT: -4.693464715      1.092      1.353
REMARK  7 active torsions:
REMARK  status: ('A' for Active; 'I' for Inactive)
REMARK    1  A    between atoms: O1_2  and  C2_3 
REMARK    2  A    between atoms: C2_3  and  C3_5 
REMARK    3  A    between atoms: C5_9  and  N2_10 
REMARK    4  A    between atoms: N2_10  and  C6_12 
REMARK    5  A    between atoms: C13_22  and  N4_23 
REMARK    6  A    between atoms: N4_23  and  C14_25 
REMARK    7  A    between atoms: C19_30  and  N5_31 
ROOT
HETATM    1  C3  UNL     1      40.753   8.210 -10.835  1.00  0.00     0.099 A 
HETATM    2  C4  UNL     1      39.554   8.711 -10.419  1.00  0.00     0.127 A 
HETATM    3  N1  UNL     1      38.874   9.622 -11.136  1.00  0.00    -0.201 N 
ATOM      4  H1  UNL     1      37.982   9.963 -10.778  1.00  0.00     0.183 HD
HETATM    5  C5  UNL     1      39.325  10.100 -12.304  1.00  0.00     0.679 A 
HETATM    6  N3  UNL     1      40.527   9.606 -12.736  1.00  0.00    -0.176 N 
ATOM      7  H3  UNL     1      40.896   9.951 -13.622  1.00  0.00     0.186 HD
HETATM    8  C13 UNL     1      41.248   8.698 -12.066  1.00  0.00     0.135 A 
ENDROOT
BRANCH   8   9
HETATM    9  N4  UNL     1      42.351   8.215 -12.415  1.00  0.00    -0.368 N 
ATOM     10  H4  UNL     1      42.830   7.707 -11.672  1.00  0.00     0.161 HD
BRANCH   9  11
HETATM   11  C14 UNL     1      43.051   8.236 -13.620  1.00  0.00     0.113 C 
HETATM   12  C15 UNL     1      44.138   9.250 -13.787  1.00  0.00     0.027 C 
HETATM   13  C16 UNL     1      45.271   8.658 -14.610  1.00  0.00     0.002 C 
HETATM   14  C17 UNL     1      44.725   7.955 -15.842  1.00  0.00     0.002 C 
HETATM   15  C18 UNL     1      43.791   6.830 -15.475  1.00  0.00     0.035 C 
HETATM   16  C19 UNL     1      43.590   6.859 -13.955  1.00  0.00     0.206 C 
BRANCH  16  17
HETATM   17  N5  UNL     1      42.623   5.840 -13.583  1.00  0.00    -0.073 N 
ATOM     18  H53 UNL     1      43.075   4.966 -13.314  1.00  0.00     0.274 HD
ATOM     19  H52 UNL     1      42.167   6.052 -12.697  1.00  0.00     0.274 HD
ATOM     20  H51 UNL     1      41.949   5.705 -14.337  1.00  0.00     0.274 HD
ENDBRANCH  16  17
ENDBRANCH   9  11
ENDBRANCH   8   9
BRANCH   1  21
HETATM   21  C2  UNL     1      41.515   7.218 -10.084  1.00  0.00     0.298 C 
HETATM   22  O2  UNL     1      41.689   7.433  -8.839  1.00  0.00    -0.259 OA
BRANCH  21  23
HETATM   23  O1  UNL     1      42.049   6.084 -10.631  1.00  0.00    -0.322 OA
HETATM   24  C1  UNL     1      43.256   5.556 -10.072  1.00  0.00     0.213 C 
ENDBRANCH  21  23
ENDBRANCH   1  21
BRANCH   5  25
HETATM   25  N2  UNL     1      38.740  10.954 -13.026  1.00  0.00    -0.220 N 
ATOM     26  H2  UNL     1      37.865  10.629 -13.435  1.00  0.00     0.178 HD
BRANCH  25  27
HETATM   27  C6  UNL     1      39.085  12.286 -13.369  1.00  0.00     0.118 C 
HETATM   28  C7  UNL     1      39.186  13.258 -12.252  1.00  0.00     0.027 C 
HETATM   29  C8  UNL     1      38.616  14.627 -12.552  1.00  0.00     0.002 C 
HETATM   30  C9  UNL     1      39.119  15.027 -13.918  1.00  0.00     0.006 C 
HETATM   31  C10 UNL     1      38.419  14.169 -14.923  1.00  0.00     0.002 C 
HETATM   32  C11 UNL     1      39.106  14.364 -16.268  1.00  0.00     0.011 C 
HETATM   33  C12 UNL     1      38.254  12.740 -14.546  1.00  0.00     0.109 C 
HETATM   34 CL1  UNL     1      38.839  11.774 -15.950  1.00  0.00    -0.122 Cl
ENDBRANCH  25  27
ENDBRANCH   5  25
TORSDOF 7
ENDMDL
MODEL 3
REMARK VINA RESULT: -4.656337592      1.692      2.111
REMARK  7 active torsions:
REMARK  status: ('A' for Active; 'I' for Inactive)
REMARK    1  A    between atoms: O1_2  and  C2_3 
REMARK    2  A    between atoms: C2_3  and  C3_5 
REMARK    3  A    between atoms: C5_9  and  N2_10 
REMARK    4  A    between atoms: N2_10  and  C6_12 
REMARK    5  A    between atoms: C13_22  and  N4_23 
REMARK    6  A    between atoms: N4_23  and  C14_25 
REMARK    7  A    between atoms: C19_30  and  N5_31 
ROOT
HETATM    1  C3  UNL     1      41.328   7.663 -11.488  1.00  0.00     0.099 A 
HETATM    2  C4  UNL     1      40.129   7.830 -10.859  1.00  0.00     0.127 A 
HETATM    3  N1  UNL     1      39.328   8.879 -11.116  1.00  0.00    -0.201 N 
ATOM      4  H1  UNL     1      38.442   8.955 -10.618  1.00  0.00     0.183 HD
HETATM    5  C5  UNL     1      39.653   9.830 -12.004  1.00  0.00     0.679 A 
HETATM    6  N3  UNL     1      40.854   9.677 -12.643  1.00  0.00    -0.176 N 
ATOM      7  H3  UNL     1      41.128  10.385 -13.324  1.00  0.00     0.186 HD
HETATM    8  C13 UNL     1      41.692   8.654 -12.429  1.00  0.00     0.135 A 
ENDROOT
BRANCH   8   9
HETATM    9  N4  UNL     1      42.800   8.467 -12.985  1.00  0.00    -0.368 N 
ATOM     10  H4  UNL     1      43.400   7.808 -12.490  1.00  0.00     0.161 HD
BRANCH   9  11
HETATM   11  C14 UNL     1      43.370   8.983 -14.147  1.00  0.00     0.113 C 
HETATM   12  C15 UNL     1      44.585   9.846 -14.014  1.00  0.00     0.027 C 
HETATM   13  C16 UNL     1      45.520   9.603 -15.186  1.00  0.00     0.002 C 
HETATM   14  C17 UNL     1      44.749   9.615 -16.496  1.00  0.00     0.002 C 
HETATM   15  C18 UNL     1      43.687   8.546 -16.529  1.00  0.00     0.035 C 
HETATM   16  C19 UNL     1      43.645   7.878 -15.149  1.00  0.00     0.206 C 
BRANCH  16  17
HETATM   17  N5  UNL     1      42.569   6.902 -15.125  1.00  0.00    -0.073 N 
ATOM     18  H53 UNL     1      42.673   6.202 -15.859  1.00  0.00     0.274 HD
ATOM     19  H52 UNL     1      42.633   6.284 -14.318  1.00  0.00     0.274 HD
ATOM     20  H51 UNL     1      41.666   7.375 -15.173  1.00  0.00     0.274 HD
ENDBRANCH  16  17
ENDBRANCH   9  11
ENDBRANCH   8   9
BRANCH   1  21
HETATM   21  C2  UNL     1      42.220   6.536 -11.235  1.00  0.00     0.298 C 
HETATM   22  O2  UNL     1      42.473   5.759 -12.214  1.00  0.00    -0.259 OA
BRANCH  21  23
HETATM   23  O1  UNL     1      42.793   6.267 -10.024  1.00  0.00    -0.322 OA
HETATM   24  C1  UNL     1      43.992   5.486  -9.991  1.00  0.00     0.213 C 
ENDBRANCH  21  23
ENDBRANCH   1  21
BRANCH   5  25
HETATM   25  N2  UNL     1      38.952  10.839 -12.292  1.00  0.00    -0.220 N 
ATOM     26  H2  UNL     1      37.974  10.765 -12.009  1.00  0.00     0.178 HD
BRANCH  25  27
HETATM   27  C6  UNL     1      39.281  12.057 -12.939  1.00  0.00     0.118 C 
HETATM   28  C7  UNL     1      39.439  13.252 -12.073  1.00  0.00     0.027 C 
HETATM   29  C8  UNL     1      38.858  14.527 -12.642  1.00  0.00     0.002 C 
HETATM   30  C9  UNL     1      39.293  14.606 -14.086  1.00  0.00     0.006 C 
HETATM   31  C10 UNL     1      38.542  13.556 -14.840  1.00  0.00     0.002 C 
HETATM   32  C11 UNL     1      39.162  13.438 -16.226  1.00  0.00     0.011 C 
HETATM   33  C12 UNL     1      38.393  12.249 -14.147  1.00  0.00     0.109 C 
HETATM   34 CL1  UNL     1      38.907  10.987 -15.326  1.00  0.00    -0.122 Cl
ENDBRANCH  25  27
ENDBRANCH   5  25
TORSDOF 7
ENDMDL
MODEL 4
REMARK VINA RESULT: -4.566480021      1.427      1.778
REMARK  7 active torsions:
REMARK  status: ('A' for Active; 'I' for Inactive)
REMARK    1  A    between atoms: O1_2  and  C2_3 
REMARK    2  A    between atoms: C2_3  and  C3_5 
REMARK    3  A    between atoms: C5_9  and  N2_10 
REMARK    4  A    between atoms: N2_10  and  C6_12 
REMARK    5  A    between atoms: C13_22  and  N4_23 
REMARK    6  A    between atoms: N4_23  and  C14_25 
REMARK    7  A    between atoms: C19_30  and  N5_31 
ROOT
HETATM    1  C3  UNL     1      40.176   8.061 -10.137  1.00  0.00     0.099 A 
HETATM    2  C4  UNL     1      38.872   8.413  -9.947  1.00  0.00     0.127 A 
HETATM    3  N1  UNL     1      38.214   9.207 -10.810  1.00  0.00    -0.201 N 
ATOM      4  H1  UNL     1      37.239   9.439 -10.620  1.00  0.00     0.183 HD
HETATM    5  C5  UNL     1      38.792   9.706 -11.911  1.00  0.00     0.679 A 
HETATM    6  N3  UNL     1      40.102   9.362 -12.116  1.00  0.00    -0.176 N 
ATOM      7  H3  UNL     1      40.569   9.728 -12.946  1.00  0.00     0.186 HD
HETATM    8  C13 UNL     1      40.808   8.576 -11.293  1.00  0.00     0.135 A 
ENDROOT
BRANCH   8   9
HETATM    9  N4  UNL     1      42.005   8.231 -11.433  1.00  0.00    -0.368 N 
ATOM     10  H4  UNL     1      42.525   8.190 -10.556  1.00  0.00     0.161 HD
BRANCH   9  11
HETATM   11  C14 UNL     1      42.764   7.894 -12.552  1.00  0.00     0.113 C 
HETATM   12  C15 UNL     1      43.268   9.001 -13.422  1.00  0.00     0.027 C 
HETATM   13  C16 UNL     1      44.642   8.643 -13.965  1.00  0.00     0.002 C 
HETATM   14  C17 UNL     1      44.649   7.221 -14.504  1.00  0.00     0.002 C 
HETATM   15  C18 UNL     1      44.305   6.217 -13.434  1.00  0.00     0.035 C 
HETATM   16  C19 UNL     1      43.919   6.989 -12.167  1.00  0.00     0.206 C 
BRANCH  16  17
HETATM   17  N5  UNL     1      43.496   6.046 -11.145  1.00  0.00    -0.073 N 
ATOM     18  H53 UNL     1      42.523   5.765 -11.265  1.00  0.00     0.274 HD
ATOM     19  H52 UNL     1      43.931   5.132 -11.266  1.00  0.00     0.274 HD
ATOM     20  H51 UNL     1      43.671   6.433 -10.218  1.00  0.00     0.274 HD
ENDBRANCH  16  17
ENDBRANCH   9  11
ENDBRANCH   8   9
BRANCH   1  21
HETATM   21  C2  UNL     1      40.919   7.200  -9.223  1.00  0.00     0.298 C 
HETATM   22  O2  UNL     1      40.927   5.949  -9.473  1.00  0.00    -0.259 OA
BRANCH  21  23
HETATM   23  O1  UNL     1      41.600   7.649  -8.127  1.00  0.00    -0.322 OA
HETATM   24  C1  UNL     1      41.670   6.810  -6.970  1.00  0.00     0.213 C 
ENDBRANCH  21  23
ENDBRANCH   1  21
BRANCH   5  25
HETATM   25  N2  UNL     1      38.236  10.457 -12.760  1.00  0.00    -0.220 N 
ATOM     26  H2  UNL     1      37.782   9.959 -13.525  1.00  0.00     0.178 HD
BRANCH  25  27
HETATM   27  C6  UNL     1      38.131  11.869 -12.838  1.00  0.00     0.118 C 
HETATM   28  C7  UNL     1      39.385  12.619 -13.093  1.00  0.00     0.027 C 
HETATM   29  C8  UNL     1      39.528  13.899 -12.300  1.00  0.00     0.002 C 
HETATM   30  C9  UNL     1      38.209  14.627 -12.392  1.00  0.00     0.006 C 
HETATM   31  C10 UNL     1      37.216  13.862 -11.576  1.00  0.00     0.002 C 
HETATM   32  C11 UNL     1      35.831  14.420 -11.875  1.00  0.00     0.011 C 
HETATM   33  C12 UNL     1      37.293  12.382 -11.690  1.00  0.00     0.109 C 
HETATM   34 CL1  UNL     1      35.617  11.810 -12.022  1.00  0.00    -0.122 Cl
ENDBRANCH  25  27
ENDBRANCH   5  25
TORSDOF 7
ENDMDL
MODEL 5
REMARK VINA RESULT: -4.512773311      1.862      4.126
REMARK  7 active torsions:
REMARK  status: ('A' for Active; 'I' for Inactive)
REMARK    1  A    between atoms: O1_2  and  C2_3 
REMARK    2  A    between atoms: C2_3  and  C3_5 
REMARK    3  A    between atoms: C5_9  and  N2_10 
REMARK    4  A    between atoms: N2_10  and  C6_12 
REMARK    5  A    between atoms: C13_22  and  N4_23 
REMARK    6  A    between atoms: N4_23  and  C14_25 
REMARK    7  A    between atoms: C19_30  and  N5_31 
ROOT
HETATM    1  C3  UNL     1      41.479   7.993 -11.661  1.00  0.00     0.099 A 
HETATM    2  C4  UNL     1      41.306   8.318 -12.974  1.00  0.00     0.127 A 
HETATM    3  N1  UNL     1      40.487   9.312 -13.362  1.00  0.00    -0.201 N 
ATOM      4  H1  UNL     1      40.395   9.513 -14.357  1.00  0.00     0.183 HD
HETATM    5  C5  UNL     1      39.788  10.048 -12.487  1.00  0.00     0.679 A 
HETATM    6  N3  UNL     1      39.951   9.734 -11.164  1.00  0.00    -0.176 N 
ATOM      7  H3  UNL     1      39.431  10.278 -10.475  1.00  0.00     0.186 HD
HETATM    8  C13 UNL     1      40.751   8.757 -10.720  1.00  0.00     0.135 A 
ENDROOT
BRANCH   8   9
HETATM    9  N4  UNL     1      40.936   8.428  -9.524  1.00  0.00    -0.368 N 
ATOM     10  H4  UNL     1      41.920   8.370  -9.262  1.00  0.00     0.161 HD
BRANCH   9  11
HETATM   11  C14 UNL     1      40.060   8.128  -8.483  1.00  0.00     0.113 C 
HETATM   12  C15 UNL     1      38.636   7.821  -8.825  1.00  0.00     0.027 C 
HETATM   13  C16 UNL     1      38.099   6.756  -7.883  1.00  0.00     0.002 C 
HETATM   14  C17 UNL     1      38.454   7.089  -6.443  1.00  0.00     0.002 C 
HETATM   15  C18 UNL     1      39.946   7.168  -6.240  1.00  0.00     0.035 C 
HETATM   16  C19 UNL     1      40.618   7.021  -7.610  1.00  0.00     0.206 C 
BRANCH  16  17
HETATM   17  N5  UNL     1      42.054   7.183  -7.455  1.00  0.00    -0.073 N 
ATOM     18  H53 UNL     1      42.290   7.703  -6.610  1.00  0.00     0.274 HD
ATOM     19  H52 UNL     1      42.515   6.304  -7.222  1.00  0.00     0.274 HD
ATOM     20  H51 UNL     1      42.450   7.611  -8.291  1.00  0.00     0.274 HD
ENDBRANCH  16  17
ENDBRANCH   9  11
ENDBRANCH   8   9
BRANCH   1  21
HETATM   21  C2  UNL     1      42.361   6.923 -11.206  1.00  0.00     0.298 C 
HETATM   22  O2  UNL     1      43.578   6.966 -11.585  1.00  0.00    -0.259 OA
BRANCH  21  23
HETATM   23  O1  UNL     1      41.964   5.889 -10.405  1.00  0.00    -0.322 OA
HETATM   24  C1  UNL     1      40.903   5.041 -10.855  1.00  0.00     0.213 C 
ENDBRANCH  21  23
ENDBRANCH   1  21
BRANCH   5  25
HETATM   25  N2  UNL     1      39.003  10.992 -12.781  1.00  0.00    -0.220 N 
ATOM     26  H2  UNL     1      38.014  10.760 -12.686  1.00  0.00     0.178 HD
BRANCH  25  27
HETATM   27  C6  UNL     1      39.251  12.318 -13.219  1.00  0.00     0.118 C 
HETATM   28  C7  UNL     1      39.266  13.374 -12.177  1.00  0.00     0.027 C 
HETATM   29  C8  UNL     1      38.599  14.670 -12.582  1.00  0.00     0.002 C 
HETATM   30  C9  UNL     1      39.088  15.005 -13.970  1.00  0.00     0.006 C 
HETATM   31  C10 UNL     1      38.467  14.026 -14.914  1.00  0.00     0.002 C 
HETATM   32  C11 UNL     1      39.154  14.172 -16.265  1.00  0.00     0.011 C 
HETATM   33  C12 UNL     1      38.404  12.620 -14.433  1.00  0.00     0.109 C 
HETATM   34 CL1  UNL     1      39.078  11.600 -15.757  1.00  0.00    -0.122 Cl
ENDBRANCH  25  27
ENDBRANCH   5  25
TORSDOF 7
ENDMDL
