MODEL 1
REMARK VINA RESULT: -4.128647393      0.000      0.000
REMARK  6 active torsions:
REMARK  status: ('A' for Active; 'I' for Inactive)
REMARK    1  A    between atoms: C4_8  and  C5_9 
REMARK       I    between atoms: N3_12  and  C8_13 
REMARK       I    between atoms: C8_13  and  N4_15 
REMARK    2  A    between atoms: N4_15  and  C9_17 
REMARK    3  A    between atoms: C9_17  and  C10_18 
REMARK    4  A    between atoms: C9_17  and  C11_21 
REMARK    5  A    between atoms: C10_18  and  O2_19 
REMARK    6  A    between atoms: C11_21  and  O3_24 
ROOT
HETATM    1  C5  UNL     1      40.441   8.274 -10.494  1.00  0.00     0.045 C 
HETATM    2  C6  UNL     1      39.231   7.661 -11.202  1.00  0.00     0.056 C 
HETATM    3  C7  UNL     1      38.410   8.664 -11.903  1.00  0.00     0.069 C 
HETATM    4  N3  UNL     1      39.094   9.787 -12.394  1.00  0.00    -0.314 N 
HETATM    5  C8  UNL     1      38.378  10.978 -12.858  1.00  0.00     0.322 C 
HETATM    6  O1  UNL     1      37.135  10.929 -12.588  1.00  0.00    -0.247 OA
HETATM    7  N4  UNL     1      39.007  11.995 -13.511  1.00  0.00    -0.333 N 
ATOM      8  H4  UNL     1      40.005  11.856 -13.667  1.00  0.00     0.164 HD
HETATM    9  C14 UNL     1      40.518   9.856 -12.415  1.00  0.00     0.133 C 
HETATM   10  C15 UNL     1      41.288   8.885 -11.610  1.00  0.00     0.031 C 
ENDROOT
BRANCH   7  11
HETATM   11  C9  UNL     1      38.482  13.224 -14.009  1.00  0.00     0.143 C 
BRANCH  11  12
HETATM   12  C10 UNL     1      39.036  13.532 -15.433  1.00  0.00     0.192 C 
BRANCH  12  13
HETATM   13  O2  UNL     1      38.075  14.181 -16.192  1.00  0.00    -0.399 OA
ATOM     14  H2  UNL     1      38.077  13.847 -17.080  1.00  0.00     0.209 HD
ENDBRANCH  12  13
ENDBRANCH  11  12
BRANCH  11  15
HETATM   15  C11 UNL     1      38.865  14.373 -13.144  1.00  0.00     0.073 C 
HETATM   16  C12 UNL     1      40.034  13.823 -12.253  1.00  0.00     0.047 C 
HETATM   17  C13 UNL     1      37.811  14.936 -12.253  1.00  0.00     0.047 C 
BRANCH  15  18
HETATM   18  O3  UNL     1      39.412  15.401 -13.932  1.00  0.00    -0.388 OA
ATOM     19  H3  UNL     1      40.309  15.565 -13.669  1.00  0.00     0.210 HD
ENDBRANCH  15  18
ENDBRANCH  11  15
ENDBRANCH   7  11
BRANCH   1  20
HETATM   20  C4  UNL     1      41.117   7.229  -9.728  1.00  0.00     0.051 A 
HETATM   21  N1  UNL     1      42.119   6.387  -9.996  1.00  0.00    -0.299 N 
HETATM   22  C1  UNL     1      42.911   6.269 -11.192  1.00  0.00     0.177 C 
HETATM   23  N2  UNL     1      42.448   5.694  -8.880  1.00  0.00    -0.309 N 
HETATM   24  C2  UNL     1      41.661   6.084  -7.872  1.00  0.00     0.128 A 
ATOM     25  H2  UNL     1      43.181   4.987  -8.818  1.00  0.00     0.186 HD
HETATM   26  C3  UNL     1      40.820   7.036  -8.350  1.00  0.00     0.052 A 
HETATM   27 BR1  UNL     1      39.409   7.944  -7.369  1.00  0.00    -0.047 Br
ENDBRANCH   1  20
TORSDOF 6
ENDMDL
MODEL 2
REMARK VINA RESULT: -4.107517438      6.094      6.934
REMARK  6 active torsions:
REMARK  status: ('A' for Active; 'I' for Inactive)
REMARK    1  A    between atoms: C4_8  and  C5_9 
REMARK       I    between atoms: N3_12  and  C8_13 
REMARK       I    between atoms: C8_13  and  N4_15 
REMARK    2  A    between atoms: N4_15  and  C9_17 
REMARK    3  A    between atoms: C9_17  and  C10_18 
REMARK    4  A    between atoms: C9_17  and  C11_21 
REMARK    5  A    between atoms: C10_18  and  O2_19 
REMARK    6  A    between atoms: C11_21  and  O3_24 
ROOT
HETATM    1  C5  UNL     1      42.752   8.578 -12.999  1.00  0.00     0.045 C 
HETATM    2  C6  UNL     1      42.265   7.891 -14.276  1.00  0.00     0.056 C 
HETATM    3  C7  UNL     1      42.860   8.463 -15.495  1.00  0.00     0.069 C 
HETATM    4  N3  UNL     1      44.151   8.997 -15.360  1.00  0.00    -0.314 N 
HETATM    5  C8  UNL     1      44.747   9.836 -16.403  1.00  0.00     0.322 C 
HETATM    6  O1  UNL     1      43.906  10.154 -17.304  1.00  0.00    -0.247 OA
HETATM    7  N4  UNL     1      46.058  10.203 -16.379  1.00  0.00    -0.333 N 
ATOM      8  H4  UNL     1      46.596   9.836 -15.594  1.00  0.00     0.164 HD
HETATM    9  C14 UNL     1      44.931   8.802 -14.182  1.00  0.00     0.133 C 
HETATM   10  C15 UNL     1      44.258   8.322 -12.958  1.00  0.00     0.031 C 
ENDROOT
BRANCH   7  11
HETATM   11  C9  UNL     1      46.794  11.023 -17.285  1.00  0.00     0.143 C 
BRANCH  11  12
HETATM   12  C10 UNL     1      47.061  10.274 -18.626  1.00  0.00     0.192 C 
BRANCH  12  13
HETATM   13  O2  UNL     1      46.039  10.528 -19.527  1.00  0.00    -0.399 OA
ATOM     14  H2  UNL     1      45.762  11.434 -19.463  1.00  0.00     0.209 HD
ENDBRANCH  12  13
ENDBRANCH  11  12
BRANCH  11  15
HETATM   15  C11 UNL     1      48.126  11.393 -16.731  1.00  0.00     0.073 C 
HETATM   16  C12 UNL     1      48.897  12.022 -17.946  1.00  0.00     0.047 C 
HETATM   17  C13 UNL     1      48.955  10.293 -16.159  1.00  0.00     0.047 C 
BRANCH  15  18
HETATM   18  O3  UNL     1      47.978  12.415 -15.777  1.00  0.00    -0.388 OA
ATOM     19  H3  UNL     1      48.830  12.772 -15.554  1.00  0.00     0.210 HD
ENDBRANCH  15  18
ENDBRANCH  11  15
ENDBRANCH   7  11
BRANCH   1  20
HETATM   20  C4  UNL     1      42.017   8.031 -11.860  1.00  0.00     0.051 A 
HETATM   21  N1  UNL     1      42.199   6.975 -11.063  1.00  0.00    -0.299 N 
HETATM   22  C1  UNL     1      43.265   6.008 -11.064  1.00  0.00     0.177 C 
HETATM   23  N2  UNL     1      41.281   6.987 -10.066  1.00  0.00    -0.309 N 
HETATM   24  C2  UNL     1      40.495   8.059 -10.206  1.00  0.00     0.128 A 
ATOM     25  H2  UNL     1      41.204   6.290  -9.325  1.00  0.00     0.186 HD
HETATM   26  C3  UNL     1      40.914   8.737 -11.305  1.00  0.00     0.052 A 
HETATM   27 BR1  UNL     1      40.127  10.352 -12.048  1.00  0.00    -0.047 Br
ENDBRANCH   1  20
TORSDOF 6
ENDMDL
MODEL 3
REMARK VINA RESULT: -4.038285723      5.755      6.672
REMARK  6 active torsions:
REMARK  status: ('A' for Active; 'I' for Inactive)
REMARK    1  A    between atoms: C4_8  and  C5_9 
REMARK       I    between atoms: N3_12  and  C8_13 
REMARK       I    between atoms: C8_13  and  N4_15 
REMARK    2  A    between atoms: N4_15  and  C9_17 
REMARK    3  A    between atoms: C9_17  and  C10_18 
REMARK    4  A    between atoms: C9_17  and  C11_21 
REMARK    5  A    between atoms: C10_18  and  O2_19 
REMARK    6  A    between atoms: C11_21  and  O3_24 
ROOT
HETATM    1  C5  UNL     1      42.882   8.769 -13.844  1.00  0.00     0.045 C 
HETATM    2  C6  UNL     1      43.012   7.637 -14.864  1.00  0.00     0.056 C 
HETATM    3  C7  UNL     1      43.488   8.104 -16.178  1.00  0.00     0.069 C 
HETATM    4  N3  UNL     1      44.335   9.223 -16.166  1.00  0.00    -0.314 N 
HETATM    5  C8  UNL     1      44.654   9.955 -17.394  1.00  0.00     0.322 C 
HETATM    6  O1  UNL     1      43.943   9.577 -18.379  1.00  0.00    -0.247 OA
HETATM    7  N4  UNL     1      45.616  10.919 -17.436  1.00  0.00    -0.333 N 
ATOM      8  H4  UNL     1      46.108  11.077 -16.556  1.00  0.00     0.164 HD
HETATM    9  C14 UNL     1      44.884   9.743 -14.957  1.00  0.00     0.133 C 
HETATM   10  C15 UNL     1      44.299   9.315 -13.670  1.00  0.00     0.031 C 
ENDROOT
BRANCH   7  11
HETATM   11  C9  UNL     1      46.041  11.740 -18.522  1.00  0.00     0.143 C 
BRANCH  11  12
HETATM   12  C10 UNL     1      47.412  12.414 -18.209  1.00  0.00     0.192 C 
BRANCH  12  13
HETATM   13  O2  UNL     1      47.676  12.353 -16.849  1.00  0.00    -0.399 OA
ATOM     14  H2  UNL     1      48.525  11.956 -16.698  1.00  0.00     0.209 HD
ENDBRANCH  12  13
ENDBRANCH  11  12
BRANCH  11  15
HETATM   15  C11 UNL     1      45.075  12.840 -18.787  1.00  0.00     0.073 C 
HETATM   16  C12 UNL     1      44.450  12.487 -20.184  1.00  0.00     0.047 C 
HETATM   17  C13 UNL     1      45.620  14.226 -18.846  1.00  0.00     0.047 C 
BRANCH  15  18
HETATM   18  O3  UNL     1      44.025  12.788 -17.854  1.00  0.00    -0.388 OA
ATOM     19  H3  UNL     1      43.260  13.228 -18.205  1.00  0.00     0.210 HD
ENDBRANCH  15  18
ENDBRANCH  11  15
ENDBRANCH   7  11
BRANCH   1  20
HETATM   20  C4  UNL     1      42.289   8.234 -12.620  1.00  0.00     0.051 A 
HETATM   21  N1  UNL     1      42.669   7.308 -11.735  1.00  0.00    -0.299 N 
HETATM   22  C1  UNL     1      43.878   6.527 -11.701  1.00  0.00     0.177 C 
HETATM   23  N2  UNL     1      41.800   7.279 -10.697  1.00  0.00    -0.309 N 
HETATM   24  C2  UNL     1      40.845   8.192 -10.897  1.00  0.00     0.128 A 
ATOM     25  H2  UNL     1      41.865   6.659  -9.890  1.00  0.00     0.186 HD
HETATM   26  C3  UNL     1      41.106   8.811 -12.077  1.00  0.00     0.052 A 
HETATM   27 BR1  UNL     1      40.041  10.195 -12.929  1.00  0.00    -0.047 Br
ENDBRANCH   1  20
TORSDOF 6
ENDMDL
MODEL 4
REMARK VINA RESULT: -3.992161155      2.654      4.496
REMARK  6 active torsions:
REMARK  status: ('A' for Active; 'I' for Inactive)
REMARK    1  A    between atoms: C4_8  and  C5_9 
REMARK       I    between atoms: N3_12  and  C8_13 
REMARK       I    between atoms: C8_13  and  N4_15 
REMARK    2  A    between atoms: N4_15  and  C9_17 
REMARK    3  A    between atoms: C9_17  and  C10_18 
REMARK    4  A    between atoms: C9_17  and  C11_21 
REMARK    5  A    between atoms: C10_18  and  O2_19 
REMARK    6  A    between atoms: C11_21  and  O3_24 
ROOT
HETATM    1  C5  UNL     1      39.949  10.490 -12.754  1.00  0.00     0.045 C 
HETATM    2  C6  UNL     1      39.204  11.550 -11.941  1.00  0.00     0.056 C 
HETATM    3  C7  UNL     1      39.033  12.816 -12.675  1.00  0.00     0.069 C 
HETATM    4  N3  UNL     1      38.930  12.712 -14.071  1.00  0.00    -0.314 N 
HETATM    5  C8  UNL     1      39.036  13.889 -14.937  1.00  0.00     0.322 C 
HETATM    6  O1  UNL     1      39.406  14.925 -14.298  1.00  0.00    -0.247 OA
HETATM    7  N4  UNL     1      38.750  13.838 -16.268  1.00  0.00    -0.333 N 
ATOM      8  H4  UNL     1      38.441  12.929 -16.610  1.00  0.00     0.164 HD
HETATM    9  C14 UNL     1      38.776  11.455 -14.726  1.00  0.00     0.133 C 
HETATM   10  C15 UNL     1      39.060  10.220 -13.967  1.00  0.00     0.031 C 
ENDROOT
BRANCH   7  11
HETATM   11  C9  UNL     1      38.818  14.864 -17.256  1.00  0.00     0.143 C 
BRANCH  11  12
HETATM   12  C10 UNL     1      37.415  15.499 -17.499  1.00  0.00     0.192 C 
BRANCH  12  13
HETATM   13  O2  UNL     1      37.550  16.807 -17.939  1.00  0.00    -0.399 OA
ATOM     14  H2  UNL     1      37.276  17.411 -17.259  1.00  0.00     0.209 HD
ENDBRANCH  12  13
ENDBRANCH  11  12
BRANCH  11  15
HETATM   15  C11 UNL     1      39.279  14.332 -18.568  1.00  0.00     0.073 C 
HETATM   16  C12 UNL     1      38.249  13.199 -18.916  1.00  0.00     0.047 C 
HETATM   17  C13 UNL     1      40.654  13.759 -18.626  1.00  0.00     0.047 C 
BRANCH  15  18
HETATM   18  O3  UNL     1      39.139  15.319 -19.559  1.00  0.00    -0.388 OA
ATOM     19  H3  UNL     1      39.141  14.915 -20.418  1.00  0.00     0.210 HD
ENDBRANCH  15  18
ENDBRANCH  11  15
ENDBRANCH   7  11
BRANCH   1  20
HETATM   20  C4  UNL     1      40.181   9.323 -11.905  1.00  0.00     0.051 A 
HETATM   21  N1  UNL     1      39.468   8.716 -10.952  1.00  0.00    -0.299 N 
HETATM   22  C1  UNL     1      38.151   9.031 -10.463  1.00  0.00     0.177 C 
HETATM   23  N2  UNL     1      40.097   7.582 -10.560  1.00  0.00    -0.309 N 
HETATM   24  C2  UNL     1      41.226   7.440 -11.259  1.00  0.00     0.128 A 
ATOM     25  H2  UNL     1      39.760   6.938  -9.844  1.00  0.00     0.186 HD
HETATM   26  C3  UNL     1      41.321   8.496 -12.108  1.00  0.00     0.052 A 
HETATM   27 BR1  UNL     1      42.773   8.871 -13.344  1.00  0.00    -0.047 Br
ENDBRANCH   1  20
TORSDOF 6
ENDMDL
MODEL 5
REMARK VINA RESULT: -3.982686956      2.656      4.080
REMARK  6 active torsions:
REMARK  status: ('A' for Active; 'I' for Inactive)
REMARK    1  A    between atoms: C4_8  and  C5_9 
REMARK       I    between atoms: N3_12  and  C8_13 
REMARK       I    between atoms: C8_13  and  N4_15 
REMARK    2  A    between atoms: N4_15  and  C9_17 
REMARK    3  A    between atoms: C9_17  and  C10_18 
REMARK    4  A    between atoms: C9_17  and  C11_21 
REMARK    5  A    between atoms: C10_18  and  O2_19 
REMARK    6  A    between atoms: C11_21  and  O3_24 
ROOT
HETATM    1  C5  UNL     1      40.439  10.054 -12.780  1.00  0.00     0.045 C 
HETATM    2  C6  UNL     1      39.837  10.925 -11.675  1.00  0.00     0.056 C 
HETATM    3  C7  UNL     1      39.526  12.291 -12.130  1.00  0.00     0.069 C 
HETATM    4  N3  UNL     1      39.182  12.428 -13.484  1.00  0.00    -0.314 N 
HETATM    5  C8  UNL     1      39.122  13.741 -14.130  1.00  0.00     0.322 C 
HETATM    6  O1  UNL     1      39.588  14.665 -13.389  1.00  0.00    -0.247 OA
HETATM    7  N4  UNL     1      38.608  13.913 -15.381  1.00  0.00    -0.333 N 
ATOM      8  H4  UNL     1      38.253  13.064 -15.822  1.00  0.00     0.164 HD
HETATM    9  C14 UNL     1      38.928  11.299 -14.318  1.00  0.00     0.133 C 
HETATM   10  C15 UNL     1      39.354   9.963 -13.852  1.00  0.00     0.031 C 
ENDROOT
BRANCH   7  11
HETATM   11  C9  UNL     1      38.491  15.097 -16.166  1.00  0.00     0.143 C 
BRANCH  11  12
HETATM   12  C10 UNL     1      37.155  15.840 -15.860  1.00  0.00     0.192 C 
BRANCH  12  13
HETATM   13  O2  UNL     1      37.171  16.343 -14.568  1.00  0.00    -0.399 OA
ATOM     14  H2  UNL     1      37.989  16.797 -14.403  1.00  0.00     0.209 HD
ENDBRANCH  12  13
ENDBRANCH  11  12
BRANCH  11  15
HETATM   15  C11 UNL     1      38.485  14.791 -17.622  1.00  0.00     0.073 C 
HETATM   16  C12 UNL     1      37.319  13.754 -17.801  1.00  0.00     0.047 C 
HETATM   17  C13 UNL     1      39.730  14.211 -18.202  1.00  0.00     0.047 C 
BRANCH  15  18
HETATM   18  O3  UNL     1      38.117  15.936 -18.349  1.00  0.00    -0.388 OA
ATOM     19  H3  UNL     1      37.360  15.745 -18.891  1.00  0.00     0.210 HD
ENDBRANCH  15  18
ENDBRANCH  11  15
ENDBRANCH   7  11
BRANCH   1  20
HETATM   20  C4  UNL     1      40.828   8.767 -12.207  1.00  0.00     0.051 A 
HETATM   21  N1  UNL     1      40.206   7.874 -11.432  1.00  0.00    -0.299 N 
HETATM   22  C1  UNL     1      38.861   7.896 -10.920  1.00  0.00     0.177 C 
HETATM   23  N2  UNL     1      40.982   6.774 -11.285  1.00  0.00    -0.309 N 
HETATM   24  C2  UNL     1      42.118   6.942 -11.968  1.00  0.00     0.128 A 
ATOM     25  H2  UNL     1      40.738   5.947 -10.739  1.00  0.00     0.186 HD
HETATM   26  C3  UNL     1      42.068   8.164 -12.558  1.00  0.00     0.052 A 
HETATM   27 BR1  UNL     1      43.451   8.994 -13.641  1.00  0.00    -0.047 Br
ENDBRANCH   1  20
TORSDOF 6
ENDMDL
