MODEL 1
REMARK VINA RESULT: -4.406284550      0.000      0.000
REMARK  6 active torsions:
REMARK  status: ('A' for Active; 'I' for Inactive)
REMARK    1  A    between atoms: C2_2  and  N1_4 
REMARK    2  A    between atoms: N1_4  and  C4_6 
REMARK       I    between atoms: N3_13  and  C8_14 
REMARK       I    between atoms: C8_14  and  N4_16 
REMARK    3  A    between atoms: N4_16  and  C9_18 
REMARK    4  A    between atoms: C9_18  and  C10_19 
REMARK    5  A    between atoms: C9_18  and  C11_22 
REMARK    6  A    between atoms: C10_19  and  O2_20 
ROOT
HETATM    1  C4  UNL     1      45.767   8.141 -15.178  1.00  0.00     0.116 A 
HETATM    2  N2  UNL     1      45.667   6.847 -15.460  1.00  0.00    -0.312 N 
ATOM      3  H2  UNL     1      45.093   6.144 -14.994  1.00  0.00     0.176 HD
HETATM    4  S1  UNL     1      46.708   6.638 -16.767  1.00  0.00    -0.014 SA
HETATM    5  C5  UNL     1      47.270   8.234 -16.941  1.00  0.00     0.049 A 
HETATM    6  C6  UNL     1      46.608   8.888 -15.949  1.00  0.00     0.022 A 
HETATM    7  C7  UNL     1      47.063  10.340 -16.036  1.00  0.00     0.173 C 
HETATM    8  N3  UNL     1      47.481  10.421 -17.404  1.00  0.00    -0.307 N 
HETATM    9  C8  UNL     1      47.266  11.503 -18.273  1.00  0.00     0.320 C 
HETATM   10  O1  UNL     1      47.722  11.377 -19.466  1.00  0.00    -0.247 OA
HETATM   11  N4  UNL     1      46.583  12.688 -17.886  1.00  0.00    -0.336 N 
ATOM     12  H4  UNL     1      46.217  12.795 -16.940  1.00  0.00     0.164 HD
HETATM   13  C16 UNL     1      48.152   9.195 -17.706  1.00  0.00     0.228 C 
HETATM   14 CL1  UNL     1      49.790   9.146 -17.054  1.00  0.00    -0.096 Cl
ENDROOT
BRANCH  11  15
HETATM   15  C9  UNL     1      46.421  13.752 -18.879  1.00  0.00     0.113 C 
BRANCH  15  16
HETATM   16  C10 UNL     1      44.965  13.657 -19.285  1.00  0.00     0.189 C 
BRANCH  16  17
HETATM   17  O2  UNL     1      44.174  13.517 -18.166  1.00  0.00    -0.399 OA
ATOM     18  H2  UNL     1      44.658  13.784 -17.393  1.00  0.00     0.209 HD
ENDBRANCH  16  17
ENDBRANCH  15  16
BRANCH  15  19
HETATM   19  C11 UNL     1      46.826  15.052 -18.283  1.00  0.00     0.014 C 
HETATM   20  C12 UNL     1      47.167  16.145 -19.229  1.00  0.00     0.033 C 
HETATM   21  C13 UNL     1      48.350  15.738 -20.099  1.00  0.00     0.168 C 
HETATM   22  O3  UNL     1      49.454  15.535 -19.312  1.00  0.00    -0.391 OA
HETATM   23  C14 UNL     1      49.240  15.619 -17.965  1.00  0.00     0.168 C 
HETATM   24  C15 UNL     1      48.081  14.793 -17.451  1.00  0.00     0.033 C 
ENDBRANCH  15  19
ENDBRANCH  11  15
BRANCH   1  25
HETATM   25  N1  UNL     1      45.069   8.662 -14.186  1.00  0.00    -0.371 N 
ATOM     26  H1  UNL     1      45.372   9.548 -13.780  1.00  0.00     0.161 HD
BRANCH  25  27
HETATM   27  C2  UNL     1      43.913   8.027 -13.666  1.00  0.00     0.075 C 
HETATM   28  C1  UNL     1      44.083   7.476 -12.281  1.00  0.00     0.031 C 
HETATM   29  C3  UNL     1      42.743   8.986 -13.646  1.00  0.00     0.031 C 
ENDBRANCH  25  27
ENDBRANCH   1  25
TORSDOF 6
ENDMDL
MODEL 2
REMARK VINA RESULT: -4.205973193      7.547      8.632
REMARK  6 active torsions:
REMARK  status: ('A' for Active; 'I' for Inactive)
REMARK    1  A    between atoms: C2_2  and  N1_4 
REMARK    2  A    between atoms: N1_4  and  C4_6 
REMARK       I    between atoms: N3_13  and  C8_14 
REMARK       I    between atoms: C8_14  and  N4_16 
REMARK    3  A    between atoms: N4_16  and  C9_18 
REMARK    4  A    between atoms: C9_18  and  C10_19 
REMARK    5  A    between atoms: C9_18  and  C11_22 
REMARK    6  A    between atoms: C10_19  and  O2_20 
ROOT
HETATM    1  C4  UNL     1      41.678   5.488 -10.361  1.00  0.00     0.116 A 
HETATM    2  N2  UNL     1      42.081   4.306 -10.812  1.00  0.00    -0.312 N 
ATOM      3  H2  UNL     1      41.997   3.397 -10.356  1.00  0.00     0.176 HD
HETATM    4  S1  UNL     1      42.764   4.657 -12.311  1.00  0.00    -0.014 SA
HETATM    5  C5  UNL     1      42.523   6.340 -12.345  1.00  0.00     0.049 A 
HETATM    6  C6  UNL     1      41.903   6.573 -11.157  1.00  0.00     0.022 A 
HETATM    7  C7  UNL     1      41.652   8.075 -11.108  1.00  0.00     0.173 C 
HETATM    8  N3  UNL     1      41.652   8.405 -12.502  1.00  0.00    -0.307 N 
HETATM    9  C8  UNL     1      40.791   9.313 -13.139  1.00  0.00     0.320 C 
HETATM   10  O1  UNL     1      40.956   9.467 -14.402  1.00  0.00    -0.247 OA
HETATM   11  N4  UNL     1      39.779  10.038 -12.452  1.00  0.00    -0.336 N 
ATOM     12  H4  UNL     1      39.641   9.919 -11.448  1.00  0.00     0.164 HD
HETATM   13  C16 UNL     1      42.693   7.634 -13.110  1.00  0.00     0.228 C 
HETATM   14 CL1  UNL     1      44.295   8.302 -12.799  1.00  0.00    -0.096 Cl
ENDROOT
BRANCH  11  15
HETATM   15  C9  UNL     1      38.942  10.959 -13.222  1.00  0.00     0.113 C 
BRANCH  15  16
HETATM   16  C10 UNL     1      37.768  10.109 -13.662  1.00  0.00     0.189 C 
BRANCH  16  17
HETATM   17  O2  UNL     1      37.870   9.829 -15.007  1.00  0.00    -0.399 OA
ATOM     18  H2  UNL     1      37.160  10.248 -15.479  1.00  0.00     0.209 HD
ENDBRANCH  16  17
ENDBRANCH  15  16
BRANCH  15  19
HETATM   19  C11 UNL     1      38.590  12.131 -12.378  1.00  0.00     0.014 C 
HETATM   20  C12 UNL     1      37.638  13.113 -12.958  1.00  0.00     0.033 C 
HETATM   21  C13 UNL     1      38.217  13.717 -14.232  1.00  0.00     0.168 C 
HETATM   22  O3  UNL     1      39.365  14.405 -13.937  1.00  0.00    -0.391 OA
HETATM   23  C14 UNL     1      39.793  14.306 -12.642  1.00  0.00     0.168 C 
HETATM   24  C15 UNL     1      39.885  12.894 -12.107  1.00  0.00     0.033 C 
ENDBRANCH  15  19
ENDBRANCH  11  15
BRANCH   1  25
HETATM   25  N1  UNL     1      41.085   5.585  -9.186  1.00  0.00    -0.371 N 
ATOM     26  H1  UNL     1      40.065   5.574  -9.144  1.00  0.00     0.161 HD
BRANCH  25  27
HETATM   27  C2  UNL     1      41.821   5.705  -7.980  1.00  0.00     0.075 C 
HETATM   28  C1  UNL     1      41.845   7.093  -7.409  1.00  0.00     0.031 C 
HETATM   29  C3  UNL     1      41.267   4.775  -6.923  1.00  0.00     0.031 C 
ENDBRANCH  25  27
ENDBRANCH   1  25
TORSDOF 6
ENDMDL
MODEL 3
REMARK VINA RESULT: -4.157293657      8.209      9.332
REMARK  6 active torsions:
REMARK  status: ('A' for Active; 'I' for Inactive)
REMARK    1  A    between atoms: C2_2  and  N1_4 
REMARK    2  A    between atoms: N1_4  and  C4_6 
REMARK       I    between atoms: N3_13  and  C8_14 
REMARK       I    between atoms: C8_14  and  N4_16 
REMARK    3  A    between atoms: N4_16  and  C9_18 
REMARK    4  A    between atoms: C9_18  and  C10_19 
REMARK    5  A    between atoms: C9_18  and  C11_22 
REMARK    6  A    between atoms: C10_19  and  O2_20 
ROOT
HETATM    1  C4  UNL     1      41.113   7.530 -11.495  1.00  0.00     0.116 A 
HETATM    2  N2  UNL     1      41.032   6.249 -11.833  1.00  0.00    -0.312 N 
ATOM      3  H2  UNL     1      41.354   5.437 -11.306  1.00  0.00     0.176 HD
HETATM    4  S1  UNL     1      40.273   6.277 -13.336  1.00  0.00    -0.014 SA
HETATM    5  C5  UNL     1      40.064   7.955 -13.518  1.00  0.00     0.049 A 
HETATM    6  C6  UNL     1      40.608   8.445 -12.371  1.00  0.00     0.022 A 
HETATM    7  C7  UNL     1      40.462   9.959 -12.457  1.00  0.00     0.173 C 
HETATM    8  N3  UNL     1      39.362  10.083 -13.367  1.00  0.00    -0.307 N 
HETATM    9  C8  UNL     1      38.311  11.010 -13.275  1.00  0.00     0.320 C 
HETATM   10  O1  UNL     1      37.420  10.956 -14.196  1.00  0.00    -0.247 OA
HETATM   11  N4  UNL     1      38.209  11.969 -12.231  1.00  0.00    -0.336 N 
ATOM     12  H4  UNL     1      38.913  12.016 -11.494  1.00  0.00     0.164 HD
HETATM   13  C16 UNL     1      39.545   9.087 -14.377  1.00  0.00     0.228 C 
HETATM   14 CL1  UNL     1      40.769   9.544 -15.561  1.00  0.00    -0.096 Cl
ENDROOT
BRANCH  11  15
HETATM   15  C9  UNL     1      37.069  12.886 -12.240  1.00  0.00     0.113 C 
BRANCH  15  16
HETATM   16  C10 UNL     1      36.248  12.465 -11.038  1.00  0.00     0.189 C 
BRANCH  16  17
HETATM   17  O2  UNL     1      36.048  13.544 -10.205  1.00  0.00    -0.399 OA
ATOM     18  H2  UNL     1      35.811  13.242  -9.336  1.00  0.00     0.209 HD
ENDBRANCH  16  17
ENDBRANCH  15  16
BRANCH  15  19
HETATM   19  C11 UNL     1      37.560  14.289 -12.207  1.00  0.00     0.014 C 
HETATM   20  C12 UNL     1      37.008  15.216 -13.228  1.00  0.00     0.033 C 
HETATM   21  C13 UNL     1      37.352  14.722 -14.628  1.00  0.00     0.168 C 
HETATM   22  O3  UNL     1      38.713  14.713 -14.794  1.00  0.00    -0.391 OA
HETATM   23  C14 UNL     1      39.443  15.020 -13.680  1.00  0.00     0.168 C 
HETATM   24  C15 UNL     1      39.069  14.241 -12.438  1.00  0.00     0.033 C 
ENDBRANCH  15  19
ENDBRANCH  11  15
BRANCH   1  25
HETATM   25  N1  UNL     1      41.666   7.882 -10.348  1.00  0.00    -0.371 N 
ATOM     26  H1  UNL     1      42.594   8.306 -10.355  1.00  0.00     0.161 HD
BRANCH  25  27
HETATM   27  C2  UNL     1      41.008   7.687  -9.106  1.00  0.00     0.075 C 
HETATM   28  C1  UNL     1      41.843   6.993  -8.071  1.00  0.00     0.031 C 
HETATM   29  C3  UNL     1      40.556   9.011  -8.530  1.00  0.00     0.031 C 
ENDBRANCH  25  27
ENDBRANCH   1  25
TORSDOF 6
ENDMDL
MODEL 4
REMARK VINA RESULT: -4.134497010      8.314      9.220
REMARK  6 active torsions:
REMARK  status: ('A' for Active; 'I' for Inactive)
REMARK    1  A    between atoms: C2_2  and  N1_4 
REMARK    2  A    between atoms: N1_4  and  C4_6 
REMARK       I    between atoms: N3_13  and  C8_14 
REMARK       I    between atoms: C8_14  and  N4_16 
REMARK    3  A    between atoms: N4_16  and  C9_18 
REMARK    4  A    between atoms: C9_18  and  C10_19 
REMARK    5  A    between atoms: C9_18  and  C11_22 
REMARK    6  A    between atoms: C10_19  and  O2_20 
ROOT
HETATM    1  C4  UNL     1      41.379   6.991 -11.014  1.00  0.00     0.116 A 
HETATM    2  N2  UNL     1      41.232   5.694 -11.259  1.00  0.00    -0.312 N 
ATOM      3  H2  UNL     1      41.456   4.909 -10.648  1.00  0.00     0.176 HD
HETATM    4  S1  UNL     1      40.591   5.650 -12.816  1.00  0.00    -0.014 SA
HETATM    5  C5  UNL     1      40.517   7.318 -13.140  1.00  0.00     0.049 A 
HETATM    6  C6  UNL     1      41.007   7.862 -11.994  1.00  0.00     0.022 A 
HETATM    7  C7  UNL     1      40.977   9.371 -12.207  1.00  0.00     0.173 C 
HETATM    8  N3  UNL     1      39.959   9.492 -13.208  1.00  0.00    -0.307 N 
HETATM    9  C8  UNL     1      38.973  10.490 -13.271  1.00  0.00     0.320 C 
HETATM   10  O1  UNL     1      38.151  10.420 -14.253  1.00  0.00    -0.247 OA
HETATM   11  N4  UNL     1      38.862  11.535 -12.314  1.00  0.00    -0.336 N 
ATOM     12  H4  UNL     1      39.511  11.597 -11.529  1.00  0.00     0.164 HD
HETATM   13  C16 UNL     1      40.145   8.407 -14.122  1.00  0.00     0.228 C 
HETATM   14 CL1  UNL     1      41.483   8.686 -15.235  1.00  0.00    -0.096 Cl
ENDROOT
BRANCH  11  15
HETATM   15  C9  UNL     1      37.794  12.521 -12.483  1.00  0.00     0.113 C 
BRANCH  15  16
HETATM   16  C10 UNL     1      36.691  12.030 -11.569  1.00  0.00     0.189 C 
BRANCH  16  17
HETATM   17  O2  UNL     1      35.775  11.298 -12.292  1.00  0.00    -0.399 OA
ATOM     18  H2  UNL     1      34.894  11.495 -11.992  1.00  0.00     0.209 HD
ENDBRANCH  16  17
ENDBRANCH  15  16
BRANCH  15  19
HETATM   19  C11 UNL     1      38.317  13.877 -12.169  1.00  0.00     0.014 C 
HETATM   20  C12 UNL     1      37.330  14.987 -12.146  1.00  0.00     0.033 C 
HETATM   21  C13 UNL     1      36.675  15.137 -13.514  1.00  0.00     0.168 C 
HETATM   22  O3  UNL     1      37.624  15.468 -14.446  1.00  0.00    -0.391 OA
HETATM   23  C14 UNL     1      38.914  15.475 -13.995  1.00  0.00     0.168 C 
HETATM   24  C15 UNL     1      39.336  14.228 -13.251  1.00  0.00     0.033 C 
ENDBRANCH  15  19
ENDBRANCH  11  15
BRANCH   1  25
HETATM   25  N1  UNL     1      41.869   7.398  -9.856  1.00  0.00    -0.371 N 
ATOM     26  H1  UNL     1      42.854   7.657  -9.800  1.00  0.00     0.161 HD
BRANCH  25  27
HETATM   27  C2  UNL     1      41.067   7.484  -8.690  1.00  0.00     0.075 C 
HETATM   28  C1  UNL     1      41.760   7.046  -7.433  1.00  0.00     0.031 C 
HETATM   29  C3  UNL     1      40.578   8.901  -8.484  1.00  0.00     0.031 C 
ENDBRANCH  25  27
ENDBRANCH   1  25
TORSDOF 6
ENDMDL
MODEL 5
REMARK VINA RESULT: -3.952316390      6.215      9.222
REMARK  6 active torsions:
REMARK  status: ('A' for Active; 'I' for Inactive)
REMARK    1  A    between atoms: C2_2  and  N1_4 
REMARK    2  A    between atoms: N1_4  and  C4_6 
REMARK       I    between atoms: N3_13  and  C8_14 
REMARK       I    between atoms: C8_14  and  N4_16 
REMARK    3  A    between atoms: N4_16  and  C9_18 
REMARK    4  A    between atoms: C9_18  and  C10_19 
REMARK    5  A    between atoms: C9_18  and  C11_22 
REMARK    6  A    between atoms: C10_19  and  O2_20 
ROOT
HETATM    1  C4  UNL     1      38.309  12.343 -14.659  1.00  0.00     0.116 A 
HETATM    2  N2  UNL     1      37.821  13.111 -15.626  1.00  0.00    -0.312 N 
ATOM      3  H2  UNL     1      37.326  13.999 -15.536  1.00  0.00     0.176 HD
HETATM    4  S1  UNL     1      38.209  12.276 -17.037  1.00  0.00    -0.014 SA
HETATM    5  C5  UNL     1      39.004  10.933 -16.362  1.00  0.00     0.049 A 
HETATM    6  C6  UNL     1      38.937  11.191 -15.028  1.00  0.00     0.022 A 
HETATM    7  C7  UNL     1      39.632  10.019 -14.345  1.00  0.00     0.173 C 
HETATM    8  N3  UNL     1      40.484   9.548 -15.395  1.00  0.00    -0.307 N 
HETATM    9  C8  UNL     1      41.806   9.095 -15.250  1.00  0.00     0.320 C 
HETATM   10  O1  UNL     1      42.400   8.714 -16.321  1.00  0.00    -0.247 OA
HETATM   11  N4  UNL     1      42.479   9.050 -13.999  1.00  0.00    -0.336 N 
ATOM     12  H4  UNL     1      42.014   9.353 -13.143  1.00  0.00     0.164 HD
HETATM   13  C16 UNL     1      39.731   9.630 -16.609  1.00  0.00     0.228 C 
HETATM   14 CL1  UNL     1      38.564   8.318 -16.766  1.00  0.00    -0.096 Cl
ENDROOT
BRANCH  11  15
HETATM   15  C9  UNL     1      43.857   8.556 -13.970  1.00  0.00     0.113 C 
BRANCH  15  16
HETATM   16  C10 UNL     1      44.699   9.815 -13.946  1.00  0.00     0.189 C 
BRANCH  16  17
HETATM   17  O2  UNL     1      45.000  10.202 -15.233  1.00  0.00    -0.399 OA
ATOM     18  H2  UNL     1      44.313  10.764 -15.571  1.00  0.00     0.209 HD
ENDBRANCH  16  17
ENDBRANCH  15  16
BRANCH  15  19
HETATM   19  C11 UNL     1      44.035   7.655 -12.801  1.00  0.00     0.014 C 
HETATM   20  C12 UNL     1      44.383   6.240 -13.092  1.00  0.00     0.033 C 
HETATM   21  C13 UNL     1      43.280   5.586 -13.915  1.00  0.00     0.168 C 
HETATM   22  O3  UNL     1      42.114   5.568 -13.193  1.00  0.00    -0.391 OA
HETATM   23  C14 UNL     1      42.157   6.219 -11.991  1.00  0.00     0.168 C 
HETATM   24  C15 UNL     1      42.707   7.627 -12.048  1.00  0.00     0.033 C 
ENDBRANCH  15  19
ENDBRANCH  11  15
BRANCH   1  25
HETATM   25  N1  UNL     1      38.180  12.704 -13.395  1.00  0.00    -0.371 N 
ATOM     26  H1  UNL     1      37.924  11.998 -12.703  1.00  0.00     0.161 HD
BRANCH  25  27
HETATM   27  C2  UNL     1      38.387  14.041 -12.970  1.00  0.00     0.075 C 
HETATM   28  C1  UNL     1      37.493  14.473 -11.845  1.00  0.00     0.031 C 
HETATM   29  C3  UNL     1      39.821  14.244 -12.531  1.00  0.00     0.031 C 
ENDBRANCH  25  27
ENDBRANCH   1  25
TORSDOF 6
ENDMDL
