MODEL 1
REMARK VINA RESULT: -4.152408291      0.000      0.000
REMARK  10 active torsions:
REMARK  status: ('A' for Active; 'I' for Inactive)
REMARK       I    between atoms: C1_2  and  N1_3 
REMARK    1  A    between atoms: C1_2  and  O2_8 
REMARK    2  A    between atoms: N1_3  and  C2_5 
REMARK    3  A    between atoms: O2_8  and  C5_9 
REMARK    4  A    between atoms: C5_9  and  C6_10 
REMARK    5  A    between atoms: C7_11  and  C8_12 
REMARK    6  A    between atoms: C9_13  and  C10_14 
REMARK    7  A    between atoms: C11_15  and  C12_16 
REMARK    8  A    between atoms: C14_18  and  C15_20 
REMARK    9  A    between atoms: C15_20  and  O3_21 
REMARK   10  A    between atoms: N2_23  and  O4_25 
ROOT
HETATM    1  C10 UNL     1      42.442   7.799 -12.475  1.00  0.00    -0.077 C 
HETATM    2  C11 UNL     1      43.114   6.891 -12.043  1.00  0.00    -0.089 C 
ENDROOT
BRANCH   1   3
HETATM    3  C9  UNL     1      41.639   8.863 -13.006  1.00  0.00     0.073 C 
HETATM    4  C8  UNL     1      40.743   9.512 -12.291  1.00  0.00     0.073 C 
BRANCH   4   5
HETATM    5  C7  UNL     1      40.534   9.166 -10.913  1.00  0.00    -0.076 C 
HETATM    6  C6  UNL     1      40.367   8.890  -9.744  1.00  0.00    -0.075 C 
BRANCH   6   7
HETATM    7  C5  UNL     1      40.174   8.576  -8.318  1.00  0.00     0.274 C 
BRANCH   7   8
HETATM    8  O2  UNL     1      40.505   7.207  -8.166  1.00  0.00    -0.292 OA
BRANCH   8   9
HETATM    9  C1  UNL     1      41.310   6.769  -7.127  1.00  0.00     0.361 C 
HETATM   10  O1  UNL     1      42.439   7.309  -7.014  1.00  0.00    -0.238 OA
HETATM   11  N1  UNL     1      40.876   5.742  -6.220  1.00  0.00    -0.332 N 
ATOM     12  H1  UNL     1      39.953   5.327  -6.345  1.00  0.00     0.165 HD
BRANCH  11  13
HETATM   13  C2  UNL     1      41.713   5.284  -5.136  1.00  0.00     0.086 A 
HETATM   14  C3  UNL     1      41.198   4.425  -4.064  1.00  0.00     0.027 A 
HETATM   15  C4  UNL     1      41.992   3.794  -5.175  1.00  0.00     0.027 A 
ENDBRANCH  11  13
ENDBRANCH   8   9
ENDBRANCH   7   8
ENDBRANCH   6   7
ENDBRANCH   4   5
ENDBRANCH   1   3
BRANCH   2  16
HETATM   16  C12 UNL     1      43.928   5.772 -11.537  1.00  0.00     0.139 C 
HETATM   17  C13 UNL     1      44.019   5.798  -9.994  1.00  0.00     0.062 C 
HETATM   18  C14 UNL     1      43.889   4.314 -10.083  1.00  0.00     0.147 C 
HETATM   19 BR1  UNL     1      45.612   3.434 -10.359  1.00  0.00    -0.068 Br
HETATM   20  C16 UNL     1      43.154   4.519 -11.371  1.00  0.00     0.170 C 
HETATM   21  O5  UNL     1      42.311   3.905 -11.969  1.00  0.00    -0.294 OA
BRANCH  18  22
HETATM   22  C15 UNL     1      43.168   3.603  -9.025  1.00  0.00     0.163 C 
HETATM   23  N2  UNL     1      41.942   3.648  -8.731  1.00  0.00    -0.249 N 
ATOM     24  H2  UNL     1      41.659   3.061  -7.947  1.00  0.00     0.196 HD
BRANCH  22  25
HETATM   25  O3  UNL     1      43.963   2.744  -8.219  1.00  0.00    -0.347 OA
ATOM     26  H3  UNL     1      44.470   3.176  -7.542  1.00  0.00     0.219 HD
ENDBRANCH  22  25
BRANCH  23  27
HETATM   27  O4  UNL     1      40.957   4.359  -9.302  1.00  0.00    -0.288 OA
ATOM     28  H4  UNL     1      40.397   5.025  -8.921  1.00  0.00     0.244 HD
ENDBRANCH  23  27
ENDBRANCH  18  22
ENDBRANCH   2  16
TORSDOF 10
ENDMDL
MODEL 2
REMARK VINA RESULT: -4.076053019      5.780      7.868
REMARK  10 active torsions:
REMARK  status: ('A' for Active; 'I' for Inactive)
REMARK       I    between atoms: C1_2  and  N1_3 
REMARK    1  A    between atoms: C1_2  and  O2_8 
REMARK    2  A    between atoms: N1_3  and  C2_5 
REMARK    3  A    between atoms: O2_8  and  C5_9 
REMARK    4  A    between atoms: C5_9  and  C6_10 
REMARK    5  A    between atoms: C7_11  and  C8_12 
REMARK    6  A    between atoms: C9_13  and  C10_14 
REMARK    7  A    between atoms: C11_15  and  C12_16 
REMARK    8  A    between atoms: C14_18  and  C15_20 
REMARK    9  A    between atoms: C15_20  and  O3_21 
REMARK   10  A    between atoms: N2_23  and  O4_25 
ROOT
HETATM    1  C10 UNL     1      40.522  10.146 -12.597  1.00  0.00    -0.077 C 
HETATM    2  C11 UNL     1      39.774  11.081 -12.428  1.00  0.00    -0.089 C 
ENDROOT
BRANCH   1   3
HETATM    3  C9  UNL     1      41.401   9.034 -12.819  1.00  0.00     0.073 C 
HETATM    4  C8  UNL     1      41.707   8.161 -11.882  1.00  0.00     0.073 C 
BRANCH   4   5
HETATM    5  C7  UNL     1      41.153   8.298 -10.564  1.00  0.00    -0.076 C 
HETATM    6  C6  UNL     1      40.677   8.394  -9.453  1.00  0.00    -0.075 C 
BRANCH   6   7
HETATM    7  C5  UNL     1      40.090   8.490  -8.105  1.00  0.00     0.274 C 
BRANCH   7   8
HETATM    8  O2  UNL     1      40.067   7.171  -7.589  1.00  0.00    -0.292 OA
BRANCH   8   9
HETATM    9  C1  UNL     1      40.789   6.824  -6.459  1.00  0.00     0.361 C 
HETATM   10  O1  UNL     1      42.042   6.879  -6.544  1.00  0.00    -0.238 OA
HETATM   11  N1  UNL     1      40.138   6.418  -5.245  1.00  0.00    -0.332 N 
ATOM     12  H1  UNL     1      39.118   6.385  -5.214  1.00  0.00     0.165 HD
BRANCH  11  13
HETATM   13  C2  UNL     1      40.888   6.056  -4.065  1.00  0.00     0.086 A 
HETATM   14  C3  UNL     1      40.777   6.807  -2.809  1.00  0.00     0.027 A 
HETATM   15  C4  UNL     1      40.027   5.510  -2.943  1.00  0.00     0.027 A 
ENDBRANCH  11  13
ENDBRANCH   8   9
ENDBRANCH   7   8
ENDBRANCH   6   7
ENDBRANCH   4   5
ENDBRANCH   1   3
BRANCH   2  16
HETATM   16  C12 UNL     1      38.855  12.218 -12.246  1.00  0.00     0.139 C 
HETATM   17  C13 UNL     1      39.572  13.565 -12.496  1.00  0.00     0.062 C 
HETATM   18  C14 UNL     1      38.305  13.976 -13.167  1.00  0.00     0.147 C 
HETATM   19 BR1  UNL     1      36.996  14.692 -11.905  1.00  0.00    -0.068 Br
HETATM   20  C16 UNL     1      38.064  12.529 -13.460  1.00  0.00     0.170 C 
HETATM   21  O5  UNL     1      37.478  11.927 -14.320  1.00  0.00    -0.294 OA
BRANCH  18  22
HETATM   22  C15 UNL     1      38.376  14.874 -14.322  1.00  0.00     0.163 C 
HETATM   23  N2  UNL     1      38.940  14.692 -15.436  1.00  0.00    -0.249 N 
ATOM     24  H2  UNL     1      38.859  15.463 -16.098  1.00  0.00     0.196 HD
BRANCH  22  25
HETATM   25  O3  UNL     1      37.717  16.122 -14.163  1.00  0.00    -0.347 OA
ATOM     26  H3  UNL     1      36.820  16.072 -13.856  1.00  0.00     0.219 HD
ENDBRANCH  22  25
BRANCH  23  27
HETATM   27  O4  UNL     1      39.633  13.628 -15.873  1.00  0.00    -0.288 OA
ATOM     28  H4  UNL     1      39.327  12.868 -16.354  1.00  0.00     0.244 HD
ENDBRANCH  23  27
ENDBRANCH  18  22
ENDBRANCH   2  16
TORSDOF 10
ENDMDL
MODEL 3
REMARK VINA RESULT: -4.059852667      1.118      1.293
REMARK  10 active torsions:
REMARK  status: ('A' for Active; 'I' for Inactive)
REMARK       I    between atoms: C1_2  and  N1_3 
REMARK    1  A    between atoms: C1_2  and  O2_8 
REMARK    2  A    between atoms: N1_3  and  C2_5 
REMARK    3  A    between atoms: O2_8  and  C5_9 
REMARK    4  A    between atoms: C5_9  and  C6_10 
REMARK    5  A    between atoms: C7_11  and  C8_12 
REMARK    6  A    between atoms: C9_13  and  C10_14 
REMARK    7  A    between atoms: C11_15  and  C12_16 
REMARK    8  A    between atoms: C14_18  and  C15_20 
REMARK    9  A    between atoms: C15_20  and  O3_21 
REMARK   10  A    between atoms: N2_23  and  O4_25 
ROOT
HETATM    1  C10 UNL     1      42.402   7.790 -12.332  1.00  0.00    -0.077 C 
HETATM    2  C11 UNL     1      43.072   6.867 -11.929  1.00  0.00    -0.089 C 
ENDROOT
BRANCH   1   3
HETATM    3  C9  UNL     1      41.596   8.871 -12.823  1.00  0.00     0.073 C 
HETATM    4  C8  UNL     1      40.703   9.495 -12.084  1.00  0.00     0.073 C 
BRANCH   4   5
HETATM    5  C7  UNL     1      40.500   9.102 -10.718  1.00  0.00    -0.076 C 
HETATM    6  C6  UNL     1      40.335   8.789  -9.557  1.00  0.00    -0.075 C 
BRANCH   6   7
HETATM    7  C5  UNL     1      40.141   8.430  -8.142  1.00  0.00     0.274 C 
BRANCH   7   8
HETATM    8  O2  UNL     1      41.061   7.387  -7.869  1.00  0.00    -0.292 OA
BRANCH   8   9
HETATM    9  C1  UNL     1      41.101   6.764  -6.633  1.00  0.00     0.361 C 
HETATM   10  O1  UNL     1      42.044   5.956  -6.432  1.00  0.00    -0.238 OA
HETATM   11  N1  UNL     1      40.112   7.026  -5.625  1.00  0.00    -0.332 N 
ATOM     12  H1  UNL     1      39.361   7.687  -5.825  1.00  0.00     0.165 HD
BRANCH  11  13
HETATM   13  C2  UNL     1      40.152   6.378  -4.335  1.00  0.00     0.086 A 
HETATM   14  C3  UNL     1      40.456   7.113  -3.102  1.00  0.00     0.027 A 
HETATM   15  C4  UNL     1      39.020   6.791  -3.414  1.00  0.00     0.027 A 
ENDBRANCH  11  13
ENDBRANCH   8   9
ENDBRANCH   7   8
ENDBRANCH   6   7
ENDBRANCH   4   5
ENDBRANCH   1   3
BRANCH   2  16
HETATM   16  C12 UNL     1      43.877   5.728 -11.456  1.00  0.00     0.139 C 
HETATM   17  C13 UNL     1      44.057   5.768  -9.921  1.00  0.00     0.062 C 
HETATM   18  C14 UNL     1      43.875   4.288  -9.982  1.00  0.00     0.147 C 
HETATM   19 BR1  UNL     1      45.550   3.349 -10.344  1.00  0.00    -0.068 Br
HETATM   20  C16 UNL     1      43.075   4.502 -11.228  1.00  0.00     0.170 C 
HETATM   21  O5  UNL     1      42.179   3.910 -11.770  1.00  0.00    -0.294 OA
BRANCH  18  22
HETATM   22  C15 UNL     1      43.194   3.614  -8.876  1.00  0.00     0.163 C 
HETATM   23  N2  UNL     1      41.997   3.728  -8.492  1.00  0.00    -0.249 N 
ATOM     24  H2  UNL     1      41.738   3.152  -7.691  1.00  0.00     0.196 HD
BRANCH  22  25
HETATM   25  O3  UNL     1      43.994   2.705  -8.132  1.00  0.00    -0.347 OA
ATOM     26  H3  UNL     1      44.048   1.826  -8.488  1.00  0.00     0.219 HD
ENDBRANCH  22  25
BRANCH  23  27
HETATM   27  O4  UNL     1      41.016   4.498  -8.988  1.00  0.00    -0.288 OA
ATOM     28  H4  UNL     1      40.931   5.444  -8.978  1.00  0.00     0.244 HD
ENDBRANCH  23  27
ENDBRANCH  18  22
ENDBRANCH   2  16
TORSDOF 10
ENDMDL
MODEL 4
REMARK VINA RESULT: -4.050048827      5.770      7.963
REMARK  10 active torsions:
REMARK  status: ('A' for Active; 'I' for Inactive)
REMARK       I    between atoms: C1_2  and  N1_3 
REMARK    1  A    between atoms: C1_2  and  O2_8 
REMARK    2  A    between atoms: N1_3  and  C2_5 
REMARK    3  A    between atoms: O2_8  and  C5_9 
REMARK    4  A    between atoms: C5_9  and  C6_10 
REMARK    5  A    between atoms: C7_11  and  C8_12 
REMARK    6  A    between atoms: C9_13  and  C10_14 
REMARK    7  A    between atoms: C11_15  and  C12_16 
REMARK    8  A    between atoms: C14_18  and  C15_20 
REMARK    9  A    between atoms: C15_20  and  O3_21 
REMARK   10  A    between atoms: N2_23  and  O4_25 
ROOT
HETATM    1  C10 UNL     1      40.451  10.143 -12.594  1.00  0.00    -0.077 C 
HETATM    2  C11 UNL     1      39.716  11.088 -12.426  1.00  0.00    -0.089 C 
ENDROOT
BRANCH   1   3
HETATM    3  C9  UNL     1      41.327   9.027 -12.815  1.00  0.00     0.073 C 
HETATM    4  C8  UNL     1      41.667   8.182 -11.864  1.00  0.00     0.073 C 
BRANCH   4   5
HETATM    5  C7  UNL     1      41.156   8.353 -10.533  1.00  0.00    -0.076 C 
HETATM    6  C6  UNL     1      40.715   8.515  -9.415  1.00  0.00    -0.075 C 
BRANCH   6   7
HETATM    7  C5  UNL     1      40.167   8.728  -8.065  1.00  0.00     0.274 C 
BRANCH   7   8
HETATM    8  O2  UNL     1      39.979   7.440  -7.505  1.00  0.00    -0.292 OA
BRANCH   8   9
HETATM    9  C1  UNL     1      41.033   6.553  -7.362  1.00  0.00     0.361 C 
HETATM   10  O1  UNL     1      41.954   6.885  -6.572  1.00  0.00    -0.238 OA
HETATM   11  N1  UNL     1      41.075   5.311  -8.082  1.00  0.00    -0.332 N 
ATOM     12  H1  UNL     1      40.310   5.077  -8.714  1.00  0.00     0.165 HD
BRANCH  11  13
HETATM   13  C2  UNL     1      42.173   4.385  -7.934  1.00  0.00     0.086 A 
HETATM   14  C3  UNL     1      42.168   3.062  -8.570  1.00  0.00     0.027 A 
HETATM   15  C4  UNL     1      42.960   4.168  -9.212  1.00  0.00     0.027 A 
ENDBRANCH  11  13
ENDBRANCH   8   9
ENDBRANCH   7   8
ENDBRANCH   6   7
ENDBRANCH   4   5
ENDBRANCH   1   3
BRANCH   2  16
HETATM   16  C12 UNL     1      38.825  12.247 -12.245  1.00  0.00     0.139 C 
HETATM   17  C13 UNL     1      39.573  13.576 -12.499  1.00  0.00     0.062 C 
HETATM   18  C14 UNL     1      38.315  14.016 -13.170  1.00  0.00     0.147 C 
HETATM   19 BR1  UNL     1      37.024  14.765 -11.908  1.00  0.00    -0.068 Br
HETATM   20  C16 UNL     1      38.040  12.574 -13.460  1.00  0.00     0.170 C 
HETATM   21  O5  UNL     1      37.439  11.984 -14.318  1.00  0.00    -0.294 OA
BRANCH  18  22
HETATM   22  C15 UNL     1      38.407  14.909 -14.327  1.00  0.00     0.163 C 
HETATM   23  N2  UNL     1      38.965  14.711 -15.441  1.00  0.00    -0.249 N 
ATOM     24  H2  UNL     1      38.902  15.483 -16.105  1.00  0.00     0.196 HD
BRANCH  22  25
HETATM   25  O3  UNL     1      37.779  16.173 -14.170  1.00  0.00    -0.347 OA
ATOM     26  H3  UNL     1      36.841  16.182 -14.320  1.00  0.00     0.219 HD
ENDBRANCH  22  25
BRANCH  23  27
HETATM   27  O4  UNL     1      39.632  13.630 -15.877  1.00  0.00    -0.288 OA
ATOM     28  H4  UNL     1      39.472  13.096 -16.646  1.00  0.00     0.244 HD
ENDBRANCH  23  27
ENDBRANCH  18  22
ENDBRANCH   2  16
TORSDOF 10
ENDMDL
MODEL 5
REMARK VINA RESULT: -3.971381255      3.822      6.768
REMARK  10 active torsions:
REMARK  status: ('A' for Active; 'I' for Inactive)
REMARK       I    between atoms: C1_2  and  N1_3 
REMARK    1  A    between atoms: C1_2  and  O2_8 
REMARK    2  A    between atoms: N1_3  and  C2_5 
REMARK    3  A    between atoms: O2_8  and  C5_9 
REMARK    4  A    between atoms: C5_9  and  C6_10 
REMARK    5  A    between atoms: C7_11  and  C8_12 
REMARK    6  A    between atoms: C9_13  and  C10_14 
REMARK    7  A    between atoms: C11_15  and  C12_16 
REMARK    8  A    between atoms: C14_18  and  C15_20 
REMARK    9  A    between atoms: C15_20  and  O3_21 
REMARK   10  A    between atoms: N2_23  and  O4_25 
ROOT
HETATM    1  C10 UNL     1      43.141   5.616  -9.857  1.00  0.00    -0.077 C 
HETATM    2  C11 UNL     1      42.346   5.368  -8.981  1.00  0.00    -0.089 C 
ENDROOT
BRANCH   1   3
HETATM    3  C9  UNL     1      44.068   5.913 -10.912  1.00  0.00     0.073 C 
HETATM    4  C8  UNL     1      43.813   6.782 -11.868  1.00  0.00     0.073 C 
BRANCH   4   5
HETATM    5  C7  UNL     1      42.560   7.484 -11.886  1.00  0.00    -0.076 C 
HETATM    6  C6  UNL     1      41.492   8.059 -11.897  1.00  0.00    -0.075 C 
BRANCH   6   7
HETATM    7  C5  UNL     1      40.185   8.738 -11.902  1.00  0.00     0.274 C 
BRANCH   7   8
HETATM    8  O2  UNL     1      40.462  10.128 -11.899  1.00  0.00    -0.292 OA
BRANCH   8   9
HETATM    9  C1  UNL     1      39.633  11.032 -12.544  1.00  0.00     0.361 C 
HETATM   10  O1  UNL     1      38.915  10.583 -13.473  1.00  0.00    -0.238 OA
HETATM   11  N1  UNL     1      39.596  12.418 -12.170  1.00  0.00    -0.332 N 
ATOM     12  H1  UNL     1      40.194  12.745 -11.411  1.00  0.00     0.165 HD
BRANCH  11  13
HETATM   13  C2  UNL     1      38.732  13.362 -12.840  1.00  0.00     0.086 A 
HETATM   14  C3  UNL     1      38.282  14.601 -12.195  1.00  0.00     0.027 A 
HETATM   15  C4  UNL     1      39.416  14.672 -13.181  1.00  0.00     0.027 A 
ENDBRANCH  11  13
ENDBRANCH   8   9
ENDBRANCH   7   8
ENDBRANCH   6   7
ENDBRANCH   4   5
ENDBRANCH   1   3
BRANCH   2  16
HETATM   16  C12 UNL     1      41.358   5.067  -7.930  1.00  0.00     0.139 C 
HETATM   17  C13 UNL     1      41.716   3.763  -7.181  1.00  0.00     0.062 C 
HETATM   18  C14 UNL     1      41.270   4.487  -5.955  1.00  0.00     0.147 C 
HETATM   19 BR1  UNL     1      39.342   4.346  -5.669  1.00  0.00    -0.068 Br
HETATM   20  C16 UNL     1      41.640   5.760  -6.650  1.00  0.00     0.170 C 
HETATM   21  O5  UNL     1      42.002   6.847  -6.286  1.00  0.00    -0.294 OA
BRANCH  18  22
HETATM   22  C15 UNL     1      41.950   4.214  -4.687  1.00  0.00     0.163 C 
HETATM   23  N2  UNL     1      42.091   4.966  -3.683  1.00  0.00    -0.249 N 
ATOM     24  H2  UNL     1      42.606   4.560  -2.902  1.00  0.00     0.196 HD
BRANCH  22  25
HETATM   25  O3  UNL     1      42.530   2.922  -4.574  1.00  0.00    -0.347 OA
ATOM     26  H3  UNL     1      43.386   2.825  -4.974  1.00  0.00     0.219 HD
ENDBRANCH  22  25
BRANCH  23  27
HETATM   27  O4  UNL     1      41.661   6.224  -3.497  1.00  0.00    -0.288 OA
ATOM     28  H4  UNL     1      41.757   6.982  -4.062  1.00  0.00     0.244 HD
ENDBRANCH  23  27
ENDBRANCH  18  22
ENDBRANCH   2  16
TORSDOF 10
ENDMDL
