MODEL 1
REMARK VINA RESULT: -7.771625053      0.000      0.000
REMARK  9 active torsions:
REMARK  status: ('A' for Active; 'I' for Inactive)
REMARK    1  A    between atoms: N1_1  and  C1_4 
REMARK    2  A    between atoms: C2_7  and  N3_8 
REMARK    3  A    between atoms: C3_12  and  C4_13 
REMARK    4  A    between atoms: C7_21  and  N9_22 
REMARK    5  A    between atoms: C8_27  and  C9_28 
REMARK    6  A    between atoms: C9_28  and  O1_29 
REMARK    7  A    between atoms: C9_28  and  C10_31 
REMARK    8  A    between atoms: C10_31  and  O2_32 
REMARK    9  A    between atoms: C10_31  and  N11_34 
ROOT
HETATM    1  C1  UNL     1      19.963   2.421  17.217  1.00  0.00     0.144 A 
HETATM    2  N2  UNL     1      18.933   2.568  16.395  1.00  0.00    -0.320 N 
ATOM      3  H2  UNL     1      18.656   1.813  15.768  1.00  0.00     0.169 HD
HETATM    4  C2  UNL     1      18.276   3.711  16.404  1.00  0.00     0.161 A 
HETATM    5  C8  UNL     1      18.708   4.673  17.271  1.00  0.00     0.066 A 
HETATM    6  S1  UNL     1      20.029   3.910  18.035  1.00  0.00    -0.052 SA
ENDROOT
BRANCH   4   7
HETATM    7  N3  UNL     1      17.123   3.943  15.532  1.00  0.00    -0.161 N 
HETATM    8  N4  UNL     1      17.130   4.523  14.344  1.00  0.00     0.004 NA
HETATM    9  N5  UNL     1      15.900   4.564  13.860  1.00  0.00    -0.266 N 
HETATM   10  C3  UNL     1      15.056   3.993  14.761  1.00  0.00     0.152 A 
ATOM     11  H5  UNL     1      15.628   4.959  12.959  1.00  0.00     0.186 HD
HETATM   12  N10 UNL     1      15.871   3.626  15.779  1.00  0.00    -0.262 N 
ATOM     13  H10 UNL     1      15.554   3.163  16.631  1.00  0.00     0.190 HD
BRANCH  10  14
HETATM   14  C4  UNL     1      13.613   3.843  14.620  1.00  0.00     0.095 A 
HETATM   15  C5  UNL     1      12.814   4.989  14.538  1.00  0.00     0.135 A 
HETATM   16  N6  UNL     1      13.462   6.244  14.592  1.00  0.00    -0.082 NA
HETATM   17  N7  UNL     1      11.479   4.868  14.411  1.00  0.00    -0.340 N 
HETATM   18  C6  UNL     1      10.849   3.679  14.355  1.00  0.00     0.183 A 
ATOM     19  H7  UNL     1      10.918   5.718  14.355  1.00  0.00     0.167 HD
HETATM   20  N8  UNL     1      11.599   2.573  14.430  1.00  0.00    -0.338 N 
HETATM   21  C7  UNL     1      12.960   2.637  14.560  1.00  0.00     0.117 A 
ATOM     22  H8  UNL     1      11.145   1.660  14.389  1.00  0.00     0.168 HD
BRANCH  21  23
HETATM   23  N9  UNL     1      13.660   1.561  14.629  1.00  0.00    -0.385 N 
ATOM     24  H92 UNL     1      13.660   0.997  15.479  1.00  0.00     0.157 HD
ATOM     25  H91 UNL     1      14.211   1.290  13.815  1.00  0.00     0.157 HD
ENDBRANCH  21  23
ENDBRANCH  10  14
ENDBRANCH   4   7
BRANCH   5  26
HETATM   26  C9  UNL     1      18.154   6.060  17.485  1.00  0.00     0.211 C 
BRANCH  26  27
HETATM   27  O1  UNL     1      16.812   5.997  17.152  1.00  0.00    -0.386 OA
ATOM     28  H1  UNL     1      16.361   6.577  17.755  1.00  0.00     0.210 HD
ENDBRANCH  26  27
BRANCH  26  29
HETATM   29  C10 UNL     1      18.862   7.054  16.632  1.00  0.00     0.263 C 
BRANCH  29  30
HETATM   30  O2  UNL     1      18.523   7.034  15.299  1.00  0.00    -0.373 OA
ATOM     31  H2  UNL     1      18.995   6.404  14.767  1.00  0.00     0.212 HD
ENDBRANCH  29  30
BRANCH  29  32
HETATM   32  N11 UNL     1      18.859   8.364  17.207  1.00  0.00    -0.278 N 
HETATM   33  C11 UNL     1      17.854   8.920  17.888  1.00  0.00     0.130 A 
HETATM   34  C12 UNL     1      17.926  10.206  18.423  1.00  0.00     0.130 A 
HETATM   35  N12 UNL     1      16.839  10.760  19.142  1.00  0.00    -0.095 NA
HETATM   36  C13 UNL     1      19.067  10.946  18.254  1.00  0.00     0.275 A 
HETATM   37  O3  UNL     1      19.187  12.114  18.716  1.00  0.00    -0.266 OA
HETATM   38  N13 UNL     1      20.081  10.374  17.564  1.00  0.00    -0.274 N 
HETATM   39  C14 UNL     1      19.976   9.138  17.065  1.00  0.00     0.331 A 
ATOM     40  H13 UNL     1      20.944  10.898  17.421  1.00  0.00     0.173 HD
HETATM   41  O4  UNL     1      20.941   8.619  16.419  1.00  0.00    -0.246 OA
ENDBRANCH  29  32
ENDBRANCH  26  29
ENDBRANCH   5  26
BRANCH   1  42
HETATM   42  N1  UNL     1      20.729   1.360  17.347  1.00  0.00    -0.380 N 
ATOM     43  H12 UNL     1      20.520   0.456  17.770  1.00  0.00     0.158 HD
ATOM     44  H11 UNL     1      21.694   1.256  17.033  1.00  0.00     0.158 HD
ENDBRANCH   1  42
TORSDOF 9
ENDMDL
MODEL 2
REMARK VINA RESULT: -7.639541415      1.498      1.699
REMARK  9 active torsions:
REMARK  status: ('A' for Active; 'I' for Inactive)
REMARK    1  A    between atoms: N1_1  and  C1_4 
REMARK    2  A    between atoms: C2_7  and  N3_8 
REMARK    3  A    between atoms: C3_12  and  C4_13 
REMARK    4  A    between atoms: C7_21  and  N9_22 
REMARK    5  A    between atoms: C8_27  and  C9_28 
REMARK    6  A    between atoms: C9_28  and  O1_29 
REMARK    7  A    between atoms: C9_28  and  C10_31 
REMARK    8  A    between atoms: C10_31  and  O2_32 
REMARK    9  A    between atoms: C10_31  and  N11_34 
ROOT
HETATM    1  C1  UNL     1      20.293   3.673  13.784  1.00  0.00     0.144 A 
HETATM    2  N2  UNL     1      19.051   3.379  14.144  1.00  0.00    -0.320 N 
ATOM      3  H2  UNL     1      18.621   2.499  13.860  1.00  0.00     0.169 HD
HETATM    4  C2  UNL     1      18.384   4.248  14.877  1.00  0.00     0.161 A 
HETATM    5  C8  UNL     1      19.027   5.403  15.217  1.00  0.00     0.066 A 
HETATM    6  S1  UNL     1      20.553   5.202  14.480  1.00  0.00    -0.052 SA
ENDROOT
BRANCH   4   7
HETATM    7  N3  UNL     1      17.013   3.989  15.321  1.00  0.00    -0.161 N 
HETATM    8  N4  UNL     1      16.634   3.537  16.505  1.00  0.00     0.004 NA
HETATM    9  N5  UNL     1      15.317   3.419  16.537  1.00  0.00    -0.266 N 
HETATM   10  C3  UNL     1      14.814   3.807  15.334  1.00  0.00     0.152 A 
ATOM     11  H5  UNL     1      14.768   3.092  17.333  1.00  0.00     0.186 HD
HETATM   12  N10 UNL     1      15.913   4.150  14.620  1.00  0.00    -0.262 N 
ATOM     13  H10 UNL     1      15.890   4.489  13.658  1.00  0.00     0.190 HD
BRANCH  10  14
HETATM   14  C4  UNL     1      13.408   3.823  14.950  1.00  0.00     0.095 A 
HETATM   15  C5  UNL     1      12.784   5.050  14.699  1.00  0.00     0.135 A 
HETATM   16  N6  UNL     1      13.567   6.220  14.829  1.00  0.00    -0.082 NA
HETATM   17  N7  UNL     1      11.486   5.083  14.347  1.00  0.00    -0.340 N 
HETATM   18  C6  UNL     1      10.730   3.976  14.216  1.00  0.00     0.183 A 
ATOM     19  H7  UNL     1      11.053   5.989  14.170  1.00  0.00     0.167 HD
HETATM   20  N8  UNL     1      11.311   2.793  14.450  1.00  0.00    -0.338 N 
HETATM   21  C7  UNL     1      12.628   2.701  14.812  1.00  0.00     0.117 A 
ATOM     22  H8  UNL     1      10.759   1.940  14.357  1.00  0.00     0.168 HD
BRANCH  21  23
HETATM   23  N9  UNL     1      13.166   1.554  15.031  1.00  0.00    -0.385 N 
ATOM     24  H92 UNL     1      13.217   1.179  15.978  1.00  0.00     0.157 HD
ATOM     25  H91 UNL     1      13.537   1.035  14.236  1.00  0.00     0.157 HD
ENDBRANCH  21  23
ENDBRANCH  10  14
ENDBRANCH   4   7
BRANCH   5  26
HETATM   26  C9  UNL     1      18.507   6.562  16.032  1.00  0.00     0.211 C 
BRANCH  26  27
HETATM   27  O1  UNL     1      17.145   6.622  15.796  1.00  0.00    -0.386 OA
ATOM     28  H1  UNL     1      16.829   7.393  16.253  1.00  0.00     0.210 HD
ENDBRANCH  26  27
BRANCH  26  29
HETATM   29  C10 UNL     1      19.167   7.834  15.630  1.00  0.00     0.263 C 
BRANCH  29  30
HETATM   30  O2  UNL     1      18.814   8.317  14.392  1.00  0.00    -0.373 OA
ATOM     31  H2  UNL     1      17.944   8.695  14.335  1.00  0.00     0.212 HD
ENDBRANCH  29  30
BRANCH  29  32
HETATM   32  N11 UNL     1      19.123   8.820  16.667  1.00  0.00    -0.278 N 
HETATM   33  C11 UNL     1      18.030   9.223  17.320  1.00  0.00     0.130 A 
HETATM   34  C12 UNL     1      18.066  10.191  18.324  1.00  0.00     0.130 A 
HETATM   35  N12 UNL     1      16.885  10.590  18.996  1.00  0.00    -0.095 NA
HETATM   36  C13 UNL     1      19.262  10.764  18.668  1.00  0.00     0.275 A 
HETATM   37  O3  UNL     1      19.352  11.644  19.569  1.00  0.00    -0.266 OA
HETATM   38  N13 UNL     1      20.364  10.349  18.002  1.00  0.00    -0.274 N 
HETATM   39  C14 UNL     1      20.292   9.418  17.045  1.00  0.00     0.331 A 
ATOM     40  H13 UNL     1      21.270  10.755  18.235  1.00  0.00     0.173 HD
HETATM   41  O4  UNL     1      21.340   9.042  16.430  1.00  0.00    -0.246 OA
ENDBRANCH  29  32
ENDBRANCH  26  29
ENDBRANCH   5  26
BRANCH   1  42
HETATM   42  N1  UNL     1      21.105   2.933  13.061  1.00  0.00    -0.380 N 
ATOM     43  H12 UNL     1      21.082   2.730  12.062  1.00  0.00     0.158 HD
ATOM     44  H11 UNL     1      21.924   2.420  13.388  1.00  0.00     0.158 HD
ENDBRANCH   1  42
TORSDOF 9
ENDMDL
MODEL 3
REMARK VINA RESULT: -7.597556782      2.101      2.820
REMARK  9 active torsions:
REMARK  status: ('A' for Active; 'I' for Inactive)
REMARK    1  A    between atoms: N1_1  and  C1_4 
REMARK    2  A    between atoms: C2_7  and  N3_8 
REMARK    3  A    between atoms: C3_12  and  C4_13 
REMARK    4  A    between atoms: C7_21  and  N9_22 
REMARK    5  A    between atoms: C8_27  and  C9_28 
REMARK    6  A    between atoms: C9_28  and  O1_29 
REMARK    7  A    between atoms: C9_28  and  C10_31 
REMARK    8  A    between atoms: C10_31  and  O2_32 
REMARK    9  A    between atoms: C10_31  and  N11_34 
ROOT
HETATM    1  C1  UNL     1      20.551   6.088  14.492  1.00  0.00     0.144 A 
HETATM    2  N2  UNL     1      19.469   5.376  14.779  1.00  0.00    -0.320 N 
ATOM      3  H2  UNL     1      19.381   4.411  14.461  1.00  0.00     0.169 HD
HETATM    4  C2  UNL     1      18.511   5.942  15.485  1.00  0.00     0.161 A 
HETATM    5  C8  UNL     1      18.702   7.237  15.873  1.00  0.00     0.066 A 
HETATM    6  S1  UNL     1      20.237   7.591  15.219  1.00  0.00    -0.052 SA
ENDROOT
BRANCH   4   7
HETATM    7  N3  UNL     1      17.292   5.217  15.850  1.00  0.00    -0.161 N 
HETATM    8  N4  UNL     1      17.062   4.570  16.980  1.00  0.00     0.004 NA
HETATM    9  N5  UNL     1      15.855   4.030  16.948  1.00  0.00    -0.266 N 
HETATM   10  C3  UNL     1      15.273   4.331  15.755  1.00  0.00     0.152 A 
ATOM     11  H5  UNL     1      15.430   3.478  17.693  1.00  0.00     0.186 HD
HETATM   12  N10 UNL     1      16.212   5.070  15.115  1.00  0.00    -0.262 N 
ATOM     13  H10 UNL     1      16.096   5.462  14.181  1.00  0.00     0.190 HD
BRANCH  10  14
HETATM   14  C4  UNL     1      13.946   3.922  15.313  1.00  0.00     0.095 A 
HETATM   15  C5  UNL     1      13.046   4.897  14.867  1.00  0.00     0.135 A 
HETATM   16  N6  UNL     1      13.485   6.241  14.865  1.00  0.00    -0.082 NA
HETATM   17  N7  UNL     1      11.815   4.537  14.459  1.00  0.00    -0.340 N 
HETATM   18  C6  UNL     1      11.385   3.261  14.452  1.00  0.00     0.183 A 
ATOM     19  H7  UNL     1      11.177   5.265  14.139  1.00  0.00     0.167 HD
HETATM   20  N8  UNL     1      12.233   2.315  14.874  1.00  0.00    -0.338 N 
HETATM   21  C7  UNL     1      13.497   2.625  15.301  1.00  0.00     0.117 A 
ATOM     22  H8  UNL     1      11.932   1.341  14.878  1.00  0.00     0.168 HD
BRANCH  21  23
HETATM   23  N9  UNL     1      14.295   1.700  15.701  1.00  0.00    -0.385 N 
ATOM     24  H92 UNL     1      15.297   1.767  15.519  1.00  0.00     0.157 HD
ATOM     25  H91 UNL     1      13.901   0.904  16.201  1.00  0.00     0.157 HD
ENDBRANCH  21  23
ENDBRANCH  10  14
ENDBRANCH   4   7
BRANCH   5  26
HETATM   26  C9  UNL     1      17.778   8.123  16.673  1.00  0.00     0.211 C 
BRANCH  26  27
HETATM   27  O1  UNL     1      17.734   9.337  16.008  1.00  0.00    -0.386 OA
ATOM     28  H1  UNL     1      18.172   9.200  15.176  1.00  0.00     0.210 HD
ENDBRANCH  26  27
BRANCH  26  29
HETATM   29  C10 UNL     1      18.283   8.302  18.062  1.00  0.00     0.263 C 
BRANCH  29  30
HETATM   30  O2  UNL     1      18.899   7.203  18.612  1.00  0.00    -0.373 OA
ATOM     31  H2  UNL     1      18.330   6.613  19.093  1.00  0.00     0.212 HD
ENDBRANCH  29  30
BRANCH  29  32
HETATM   32  N11 UNL     1      19.024   9.515  18.218  1.00  0.00    -0.278 N 
HETATM   33  C11 UNL     1      20.323   9.682  17.955  1.00  0.00     0.130 A 
HETATM   34  C12 UNL     1      20.978  10.900  18.131  1.00  0.00     0.130 A 
HETATM   35  N12 UNL     1      22.357  11.037  17.838  1.00  0.00    -0.095 NA
HETATM   36  C13 UNL     1      20.278  11.984  18.591  1.00  0.00     0.275 A 
HETATM   37  O3  UNL     1      20.820  13.110  18.768  1.00  0.00    -0.266 OA
HETATM   38  N13 UNL     1      18.962  11.808  18.854  1.00  0.00    -0.274 N 
HETATM   39  C14 UNL     1      18.368  10.624  18.673  1.00  0.00     0.331 A 
ATOM     40  H13 UNL     1      18.413  12.595  19.197  1.00  0.00     0.173 HD
HETATM   41  O4  UNL     1      17.129  10.479  18.926  1.00  0.00    -0.246 OA
ENDBRANCH  29  32
ENDBRANCH  26  29
ENDBRANCH   5  26
BRANCH   1  42
HETATM   42  N1  UNL     1      21.601   5.691  13.806  1.00  0.00    -0.380 N 
ATOM     43  H12 UNL     1      21.852   4.756  13.485  1.00  0.00     0.158 HD
ATOM     44  H11 UNL     1      22.367   6.272  13.465  1.00  0.00     0.158 HD
ENDBRANCH   1  42
TORSDOF 9
ENDMDL
MODEL 4
REMARK VINA RESULT: -7.553448915      2.849      7.424
REMARK  9 active torsions:
REMARK  status: ('A' for Active; 'I' for Inactive)
REMARK    1  A    between atoms: N1_1  and  C1_4 
REMARK    2  A    between atoms: C2_7  and  N3_8 
REMARK    3  A    between atoms: C3_12  and  C4_13 
REMARK    4  A    between atoms: C7_21  and  N9_22 
REMARK    5  A    between atoms: C8_27  and  C9_28 
REMARK    6  A    between atoms: C9_28  and  O1_29 
REMARK    7  A    between atoms: C9_28  and  C10_31 
REMARK    8  A    between atoms: C10_31  and  O2_32 
REMARK    9  A    between atoms: C10_31  and  N11_34 
ROOT
HETATM    1  C1  UNL     1      18.826   0.886  14.869  1.00  0.00     0.144 A 
HETATM    2  N2  UNL     1      19.142   2.174  14.868  1.00  0.00    -0.320 N 
ATOM      3  H2  UNL     1      20.039   2.489  14.499  1.00  0.00     0.169 HD
HETATM    4  C2  UNL     1      18.273   3.038  15.352  1.00  0.00     0.161 A 
HETATM    5  C8  UNL     1      17.094   2.539  15.828  1.00  0.00     0.066 A 
HETATM    6  S1  UNL     1      17.275   0.862  15.563  1.00  0.00    -0.052 SA
ENDROOT
BRANCH   4   7
HETATM    7  N3  UNL     1      18.546   4.476  15.374  1.00  0.00    -0.161 N 
HETATM    8  N4  UNL     1      18.810   5.250  14.335  1.00  0.00     0.004 NA
HETATM    9  N5  UNL     1      19.013   6.492  14.744  1.00  0.00    -0.266 N 
HETATM   10  C3  UNL     1      18.879   6.535  16.097  1.00  0.00     0.152 A 
ATOM     11  H5  UNL     1      19.234   7.287  14.143  1.00  0.00     0.186 HD
HETATM   12  N10 UNL     1      18.589   5.254  16.433  1.00  0.00    -0.262 N 
ATOM     13  H10 UNL     1      18.426   4.934  17.388  1.00  0.00     0.190 HD
BRANCH  10  14
HETATM   14  C4  UNL     1      19.030   7.711  16.944  1.00  0.00     0.095 A 
HETATM   15  C5  UNL     1      18.344   8.884  16.610  1.00  0.00     0.135 A 
HETATM   16  N6  UNL     1      17.527   8.857  15.456  1.00  0.00    -0.082 NA
HETATM   17  N7  UNL     1      18.475   9.980  17.379  1.00  0.00    -0.340 N 
HETATM   18  C6  UNL     1      19.247  10.018  18.481  1.00  0.00     0.183 A 
ATOM     19  H7  UNL     1      17.966  10.823  17.114  1.00  0.00     0.167 HD
HETATM   20  N8  UNL     1      19.910   8.905  18.817  1.00  0.00    -0.338 N 
HETATM   21  C7  UNL     1      19.813   7.761  18.071  1.00  0.00     0.117 A 
ATOM     22  H8  UNL     1      20.501   8.908  19.648  1.00  0.00     0.168 HD
BRANCH  21  23
HETATM   23  N9  UNL     1      20.457   6.703  18.412  1.00  0.00    -0.385 N 
ATOM     24  H92 UNL     1      21.344   6.470  17.965  1.00  0.00     0.157 HD
ATOM     25  H91 UNL     1      20.059   6.107  19.138  1.00  0.00     0.157 HD
ENDBRANCH  21  23
ENDBRANCH  10  14
ENDBRANCH   4   7
BRANCH   5  26
HETATM   26  C9  UNL     1      15.935   3.288  16.438  1.00  0.00     0.211 C 
BRANCH  26  27
HETATM   27  O1  UNL     1      16.333   3.645  17.714  1.00  0.00    -0.386 OA
ATOM     28  H1  UNL     1      15.722   4.310  18.007  1.00  0.00     0.210 HD
ENDBRANCH  26  27
BRANCH  26  29
HETATM   29  C10 UNL     1      14.716   2.436  16.485  1.00  0.00     0.263 C 
BRANCH  29  30
HETATM   30  O2  UNL     1      14.365   1.978  17.733  1.00  0.00    -0.373 OA
ATOM     31  H2  UNL     1      14.644   1.092  17.936  1.00  0.00     0.212 HD
ENDBRANCH  29  30
BRANCH  29  32
HETATM   32  N11 UNL     1      13.626   3.006  15.755  1.00  0.00    -0.278 N 
HETATM   33  C11 UNL     1      13.578   4.242  15.252  1.00  0.00     0.130 A 
HETATM   34  C12 UNL     1      12.478   4.727  14.546  1.00  0.00     0.130 A 
HETATM   35  N12 UNL     1      12.467   6.045  14.026  1.00  0.00    -0.095 NA
HETATM   36  C13 UNL     1      11.390   3.917  14.349  1.00  0.00     0.275 A 
HETATM   37  O3  UNL     1      10.368   4.304  13.718  1.00  0.00    -0.266 OA
HETATM   38  N13 UNL     1      11.447   2.666  14.860  1.00  0.00    -0.274 N 
HETATM   39  C14 UNL     1      12.519   2.235  15.532  1.00  0.00     0.331 A 
ATOM     40  H13 UNL     1      10.654   2.038  14.730  1.00  0.00     0.173 HD
HETATM   41  O4  UNL     1      12.553   1.054  16.005  1.00  0.00    -0.246 OA
ENDBRANCH  29  32
ENDBRANCH  26  29
ENDBRANCH   5  26
BRANCH   1  42
HETATM   42  N1  UNL     1      19.561  -0.111  14.428  1.00  0.00    -0.380 N 
ATOM     43  H12 UNL     1      20.577  -0.205  14.397  1.00  0.00     0.158 HD
ATOM     44  H11 UNL     1      19.230  -0.990  14.031  1.00  0.00     0.158 HD
ENDBRANCH   1  42
TORSDOF 9
ENDMDL
MODEL 5
REMARK VINA RESULT: -7.500720676      2.333      7.954
REMARK  9 active torsions:
REMARK  status: ('A' for Active; 'I' for Inactive)
REMARK    1  A    between atoms: N1_1  and  C1_4 
REMARK    2  A    between atoms: C2_7  and  N3_8 
REMARK    3  A    between atoms: C3_12  and  C4_13 
REMARK    4  A    between atoms: C7_21  and  N9_22 
REMARK    5  A    between atoms: C8_27  and  C9_28 
REMARK    6  A    between atoms: C9_28  and  O1_29 
REMARK    7  A    between atoms: C9_28  and  C10_31 
REMARK    8  A    between atoms: C10_31  and  O2_32 
REMARK    9  A    between atoms: C10_31  and  N11_34 
ROOT
HETATM    1  C1  UNL     1      20.611   3.931  14.894  1.00  0.00     0.144 A 
HETATM    2  N2  UNL     1      20.665   4.904  15.793  1.00  0.00    -0.320 N 
ATOM      3  H2  UNL     1      21.545   5.142  16.250  1.00  0.00     0.169 HD
HETATM    4  C2  UNL     1      19.559   5.558  16.083  1.00  0.00     0.161 A 
HETATM    5  C8  UNL     1      18.420   5.181  15.430  1.00  0.00     0.066 A 
HETATM    6  S1  UNL     1      18.976   3.914  14.430  1.00  0.00    -0.052 SA
ENDROOT
BRANCH   4   7
HETATM    7  N3  UNL     1      19.543   6.651  17.057  1.00  0.00    -0.161 N 
HETATM    8  N4  UNL     1      19.201   6.574  18.332  1.00  0.00     0.004 NA
HETATM    9  N5  UNL     1      19.301   7.767  18.894  1.00  0.00    -0.266 N 
HETATM   10  C3  UNL     1      19.722   8.659  17.956  1.00  0.00     0.152 A 
ATOM     11  H5  UNL     1      19.096   7.984  19.870  1.00  0.00     0.186 HD
HETATM   12  N10 UNL     1      19.855   7.909  16.835  1.00  0.00    -0.262 N 
ATOM     13  H10 UNL     1      20.160   8.274  15.932  1.00  0.00     0.190 HD
BRANCH  10  14
HETATM   14  C4  UNL     1      19.953  10.083  18.160  1.00  0.00     0.095 A 
HETATM   15  C5  UNL     1      18.871  10.967  18.081  1.00  0.00     0.135 A 
HETATM   16  N6  UNL     1      17.597  10.418  17.810  1.00  0.00    -0.082 NA
HETATM   17  N7  UNL     1      19.067  12.286  18.262  1.00  0.00    -0.340 N 
HETATM   18  C6  UNL     1      20.275  12.822  18.524  1.00  0.00     0.183 A 
ATOM     19  H7  UNL     1      18.263  12.910  18.199  1.00  0.00     0.167 HD
HETATM   20  N8  UNL     1      21.321  11.991  18.604  1.00  0.00    -0.338 N 
HETATM   21  C7  UNL     1      21.179  10.640  18.428  1.00  0.00     0.117 A 
ATOM     22  H8  UNL     1      22.246  12.372  18.802  1.00  0.00     0.168 HD
BRANCH  21  23
HETATM   23  N9  UNL     1      22.197   9.861  18.511  1.00  0.00    -0.385 N 
ATOM     24  H92 UNL     1      22.187   8.947  18.059  1.00  0.00     0.157 HD
ATOM     25  H91 UNL     1      23.010  10.181  19.038  1.00  0.00     0.157 HD
ENDBRANCH  21  23
ENDBRANCH  10  14
ENDBRANCH   4   7
BRANCH   5  26
HETATM   26  C9  UNL     1      17.028   5.745  15.569  1.00  0.00     0.211 C 
BRANCH  26  27
HETATM   27  O1  UNL     1      17.181   7.065  15.958  1.00  0.00    -0.386 OA
ATOM     28  H1  UNL     1      16.441   7.536  15.594  1.00  0.00     0.210 HD
ENDBRANCH  26  27
BRANCH  26  29
HETATM   29  C10 UNL     1      16.245   4.985  16.582  1.00  0.00     0.263 C 
BRANCH  29  30
HETATM   30  O2  UNL     1      16.103   5.603  17.802  1.00  0.00    -0.373 OA
ATOM     31  H2  UNL     1      16.490   5.145  18.539  1.00  0.00     0.212 HD
ENDBRANCH  29  30
BRANCH  29  32
HETATM   32  N11 UNL     1      15.019   4.474  16.050  1.00  0.00    -0.278 N 
HETATM   33  C11 UNL     1      14.122   5.165  15.342  1.00  0.00     0.130 A 
HETATM   34  C12 UNL     1      12.947   4.595  14.853  1.00  0.00     0.130 A 
HETATM   35  N12 UNL     1      12.021   5.361  14.103  1.00  0.00    -0.095 NA
HETATM   36  C13 UNL     1      12.684   3.273  15.097  1.00  0.00     0.275 A 
HETATM   37  O3  UNL     1      11.636   2.706  14.679  1.00  0.00    -0.266 OA
HETATM   38  N13 UNL     1      13.598   2.580  15.814  1.00  0.00    -0.274 N 
HETATM   39  C14 UNL     1      14.714   3.160  16.267  1.00  0.00     0.331 A 
ATOM     40  H13 UNL     1      13.432   1.594  16.013  1.00  0.00     0.173 HD
HETATM   41  O4  UNL     1      15.562   2.491  16.940  1.00  0.00    -0.246 OA
ENDBRANCH  29  32
ENDBRANCH  26  29
ENDBRANCH   5  26
BRANCH   1  42
HETATM   42  N1  UNL     1      21.606   3.177  14.480  1.00  0.00    -0.380 N 
ATOM     43  H12 UNL     1      22.611   3.305  14.601  1.00  0.00     0.158 HD
ATOM     44  H11 UNL     1      21.541   2.307  13.952  1.00  0.00     0.158 HD
ENDBRANCH   1  42
TORSDOF 9
ENDMDL
