MODEL 1
REMARK VINA RESULT: -6.265309489      0.000      0.000
REMARK  12 active torsions:
REMARK  status: ('A' for Active; 'I' for Inactive)
REMARK    1  A    between atoms: N5_11  and  C5_12 
REMARK    2  A    between atoms: C8_15  and  O1_16 
REMARK    3  A    between atoms: N6_20  and  C10_21 
REMARK    4  A    between atoms: C10_21  and  C11_22 
REMARK    5  A    between atoms: C10_21  and  C12_25 
REMARK    6  A    between atoms: C11_22  and  O3_23 
REMARK    7  A    between atoms: C12_25  and  N7_26 
REMARK    8  A    between atoms: C12_25  and  C13_30 
REMARK    9  A    between atoms: C13_30  and  O4_31 
REMARK   10  A    between atoms: C13_30  and  N8_33 
REMARK   11  A    between atoms: N8_33  and  C14_35 
REMARK   12  A    between atoms: C16_43  and  N12_44 
ROOT
HETATM    1  C10 UNL     1      21.638  11.667  19.600  1.00  0.00     0.153 C 
ENDROOT
BRANCH   1   2
HETATM    2  N6  UNL     1      22.911  11.690  18.908  1.00  0.00    -0.289 N 
HETATM    3  C5  UNL     1      23.667  12.798  18.941  1.00  0.00     0.117 A 
HETATM    4  C6  UNL     1      24.869  12.812  18.197  1.00  0.00     0.052 A 
HETATM    5  C7  UNL     1      25.253  11.723  17.463  1.00  0.00     0.046 A 
HETATM    6  C8  UNL     1      24.445  10.607  17.464  1.00  0.00     0.134 A 
HETATM    7  C9  UNL     1      23.259  10.595  18.198  1.00  0.00     0.282 A 
HETATM    8  O2  UNL     1      22.572   9.535  18.153  1.00  0.00    -0.265 OA
BRANCH   3   9
HETATM    9  N5  UNL     1      23.363  13.952  19.712  1.00  0.00    -0.285 N 
HETATM   10  C2  UNL     1      22.656  15.115  19.330  1.00  0.00     0.191 C 
HETATM   11  C1  UNL     1      23.454  15.985  18.355  1.00  0.00     0.056 C 
HETATM   12  N1  UNL     1      22.334  15.986  20.435  1.00  0.00    -0.343 N 
HETATM   13  C3  UNL     1      22.750  15.883  21.636  1.00  0.00     0.192 C 
ATOM     14  H1  UNL     1      21.707  16.765  20.235  1.00  0.00     0.164 HD
HETATM   15  N2  UNL     1      22.346  16.835  22.633  1.00  0.00    -0.063 NA
HETATM   16  N3  UNL     1      23.577  14.776  21.953  1.00  0.00    -0.304 N 
HETATM   17  C4  UNL     1      23.883  13.904  21.063  1.00  0.00     0.200 C 
ATOM     18  H3  UNL     1      23.933  14.671  22.903  1.00  0.00     0.171 HD
HETATM   19  N4  UNL     1      24.743  12.810  21.467  1.00  0.00    -0.063 NA
ENDBRANCH   3   9
BRANCH   6  20
HETATM   20  O1  UNL     1      24.798   9.475  16.733  1.00  0.00    -0.356 OA
ATOM     21  H1  UNL     1      25.334   8.795  17.124  1.00  0.00     0.218 HD
ENDBRANCH   6  20
ENDBRANCH   1   2
BRANCH   1  22
HETATM   22  C11 UNL     1      21.529  10.550  20.626  1.00  0.00     0.192 C 
BRANCH  22  23
HETATM   23  O3  UNL     1      22.263  10.759  21.777  1.00  0.00    -0.399 OA
ATOM     24  H3  UNL     1      22.890  10.074  21.972  1.00  0.00     0.209 HD
ENDBRANCH  22  23
ENDBRANCH   1  22
BRANCH   1  25
HETATM   25  C12 UNL     1      20.493  11.511  18.582  1.00  0.00     0.256 C 
BRANCH  25  26
HETATM   26  N7  UNL     1      19.888  12.816  18.393  1.00  0.00    -0.069 N 
ATOM     27  H73 UNL     1      20.547  13.582  18.531  1.00  0.00     0.275 HD
ATOM     28  H72 UNL     1      19.659  13.009  17.418  1.00  0.00     0.275 HD
ATOM     29  H71 UNL     1      19.077  12.875  19.009  1.00  0.00     0.275 HD
ENDBRANCH  25  26
BRANCH  25  30
HETATM   30  C13 UNL     1      19.443  10.562  19.183  1.00  0.00     0.252 C 
BRANCH  30  31
HETATM   31  O4  UNL     1      18.477  11.381  19.738  1.00  0.00    -0.375 OA
ATOM     32  H4  UNL     1      18.934  12.170  20.005  1.00  0.00     0.212 HD
ENDBRANCH  30  31
BRANCH  30  33
HETATM   33  N8  UNL     1      18.790   9.780  18.151  1.00  0.00    -0.344 N 
ATOM     34  H8  UNL     1      17.893  10.117  17.802  1.00  0.00     0.163 HD
BRANCH  33  35
HETATM   35  C14 UNL     1      19.302   8.583  17.590  1.00  0.00     0.162 A 
HETATM   36  N9  UNL     1      20.303   7.887  18.154  1.00  0.00    -0.282 N 
HETATM   37  N10 UNL     1      20.783   6.748  17.630  1.00  0.00    -0.294 N 
ATOM     38  H9  UNL     1      20.717   8.239  19.018  1.00  0.00     0.188 HD
HETATM   39  C15 UNL     1      20.262   6.258  16.496  1.00  0.00     0.199 A 
ATOM     40  H10 UNL     1      21.545   6.255  18.094  1.00  0.00     0.187 HD
HETATM   41  N11 UNL     1      19.258   6.912  15.886  1.00  0.00    -0.335 N 
HETATM   42  C16 UNL     1      18.787   8.051  16.423  1.00  0.00     0.145 A 
ATOM     43  H11 UNL     1      18.857   6.547  15.022  1.00  0.00     0.168 HD
BRANCH  42  44
HETATM   44  N12 UNL     1      17.825   8.665  15.827  1.00  0.00    -0.382 N 
ATOM     45 2H12 UNL     1      17.321   9.394  16.331  1.00  0.00     0.157 HD
ATOM     46 1H12 UNL     1      17.591   8.406  14.868  1.00  0.00     0.157 HD
ENDBRANCH  42  44
ENDBRANCH  33  35
ENDBRANCH  30  33
ENDBRANCH  25  30
ENDBRANCH   1  25
TORSDOF 12
ENDMDL
MODEL 2
REMARK VINA RESULT: -6.236492261      1.935      7.340
REMARK  12 active torsions:
REMARK  status: ('A' for Active; 'I' for Inactive)
REMARK    1  A    between atoms: N5_11  and  C5_12 
REMARK    2  A    between atoms: C8_15  and  O1_16 
REMARK    3  A    between atoms: N6_20  and  C10_21 
REMARK    4  A    between atoms: C10_21  and  C11_22 
REMARK    5  A    between atoms: C10_21  and  C12_25 
REMARK    6  A    between atoms: C11_22  and  O3_23 
REMARK    7  A    between atoms: C12_25  and  N7_26 
REMARK    8  A    between atoms: C12_25  and  C13_30 
REMARK    9  A    between atoms: C13_30  and  O4_31 
REMARK   10  A    between atoms: C13_30  and  N8_33 
REMARK   11  A    between atoms: N8_33  and  C14_35 
REMARK   12  A    between atoms: C16_43  and  N12_44 
ROOT
HETATM    1  C10 UNL     1      21.470  10.375  19.396  1.00  0.00     0.153 C 
ENDROOT
BRANCH   1   2
HETATM    2  N6  UNL     1      20.279   9.970  18.677  1.00  0.00    -0.289 N 
HETATM    3  C5  UNL     1      20.383   9.143  17.624  1.00  0.00     0.117 A 
HETATM    4  C6  UNL     1      19.211   8.826  16.902  1.00  0.00     0.052 A 
HETATM    5  C7  UNL     1      17.999   9.346  17.267  1.00  0.00     0.046 A 
HETATM    6  C8  UNL     1      17.942  10.187  18.357  1.00  0.00     0.134 A 
HETATM    7  C9  UNL     1      19.099  10.501  19.068  1.00  0.00     0.282 A 
HETATM    8  O2  UNL     1      18.968  11.276  20.058  1.00  0.00    -0.265 OA
BRANCH   3   9
HETATM    9  N5  UNL     1      21.594   8.525  17.210  1.00  0.00    -0.285 N 
HETATM   10  C2  UNL     1      22.491   8.925  16.193  1.00  0.00     0.191 C 
HETATM   11  C1  UNL     1      21.911   8.714  14.792  1.00  0.00     0.056 C 
HETATM   12  N1  UNL     1      23.736   8.193  16.199  1.00  0.00    -0.343 N 
HETATM   13  C3  UNL     1      24.014   7.165  16.901  1.00  0.00     0.192 C 
ATOM     14  H1  UNL     1      24.469   8.533  15.578  1.00  0.00     0.164 HD
HETATM   15  N2  UNL     1      25.302   6.536  16.794  1.00  0.00    -0.063 NA
HETATM   16  N3  UNL     1      23.033   6.705  17.813  1.00  0.00    -0.304 N 
HETATM   17  C4  UNL     1      21.909   7.313  17.935  1.00  0.00     0.200 C 
ATOM     18  H3  UNL     1      23.222   5.880  18.382  1.00  0.00     0.171 HD
HETATM   19  N4  UNL     1      20.955   6.770  18.883  1.00  0.00    -0.063 NA
ENDBRANCH   3   9
BRANCH   6  20
HETATM   20  O1  UNL     1      16.729  10.738  18.764  1.00  0.00    -0.356 OA
ATOM     21  H1  UNL     1      15.939  10.212  18.774  1.00  0.00     0.218 HD
ENDBRANCH   6  20
ENDBRANCH   1   2
BRANCH   1  22
HETATM   22  C11 UNL     1      21.418  10.050  20.880  1.00  0.00     0.192 C 
BRANCH  22  23
HETATM   23  O3  UNL     1      20.763   8.873  21.185  1.00  0.00    -0.399 OA
ATOM     24  H3  UNL     1      20.051   8.970  21.806  1.00  0.00     0.209 HD
ENDBRANCH  22  23
ENDBRANCH   1  22
BRANCH   1  25
HETATM   25  C12 UNL     1      21.690  11.890  19.232  1.00  0.00     0.256 C 
BRANCH  25  26
HETATM   26  N7  UNL     1      21.065  12.296  17.987  1.00  0.00    -0.069 N 
ATOM     27  H73 UNL     1      21.690  12.215  17.185  1.00  0.00     0.275 HD
ATOM     28  H72 UNL     1      20.351  11.640  17.669  1.00  0.00     0.275 HD
ATOM     29  H71 UNL     1      20.704  13.242  18.114  1.00  0.00     0.275 HD
ENDBRANCH  25  26
BRANCH  25  30
HETATM   30  C13 UNL     1      23.202  12.147  19.133  1.00  0.00     0.252 C 
BRANCH  30  31
HETATM   31  O4  UNL     1      23.569  11.719  17.870  1.00  0.00    -0.375 OA
ATOM     32  H4  UNL     1      23.460  10.776  17.878  1.00  0.00     0.212 HD
ENDBRANCH  30  31
BRANCH  30  33
HETATM   33  N8  UNL     1      23.499  13.565  19.200  1.00  0.00    -0.344 N 
ATOM     34  H8  UNL     1      23.880  14.006  18.364  1.00  0.00     0.163 HD
BRANCH  33  35
HETATM   35  C14 UNL     1      23.300  14.386  20.338  1.00  0.00     0.162 A 
HETATM   36  N9  UNL     1      23.837  14.107  21.538  1.00  0.00    -0.282 N 
HETATM   37  N10 UNL     1      23.658  14.887  22.615  1.00  0.00    -0.294 N 
ATOM     38  H9  UNL     1      24.406  13.266  21.634  1.00  0.00     0.188 HD
HETATM   39  C15 UNL     1      22.915  16.000  22.523  1.00  0.00     0.199 A 
ATOM     40  H10 UNL     1      24.086  14.633  23.505  1.00  0.00     0.187 HD
HETATM   41  N11 UNL     1      22.351  16.330  21.348  1.00  0.00    -0.335 N 
HETATM   42  C16 UNL     1      22.540  15.540  20.277  1.00  0.00     0.145 A 
ATOM     43  H11 UNL     1      21.784  17.174  21.270  1.00  0.00     0.168 HD
BRANCH  42  44
HETATM   44  N12 UNL     1      21.994  15.870  19.159  1.00  0.00    -0.382 N 
ATOM     45 2H12 UNL     1      21.289  16.608  19.157  1.00  0.00     0.157 HD
ATOM     46 1H12 UNL     1      22.278  15.386  18.308  1.00  0.00     0.157 HD
ENDBRANCH  42  44
ENDBRANCH  33  35
ENDBRANCH  30  33
ENDBRANCH  25  30
ENDBRANCH   1  25
TORSDOF 12
ENDMDL
MODEL 3
REMARK VINA RESULT: -6.212976844      1.754      7.364
REMARK  12 active torsions:
REMARK  status: ('A' for Active; 'I' for Inactive)
REMARK    1  A    between atoms: N5_11  and  C5_12 
REMARK    2  A    between atoms: C8_15  and  O1_16 
REMARK    3  A    between atoms: N6_20  and  C10_21 
REMARK    4  A    between atoms: C10_21  and  C11_22 
REMARK    5  A    between atoms: C10_21  and  C12_25 
REMARK    6  A    between atoms: C11_22  and  O3_23 
REMARK    7  A    between atoms: C12_25  and  N7_26 
REMARK    8  A    between atoms: C12_25  and  C13_30 
REMARK    9  A    between atoms: C13_30  and  O4_31 
REMARK   10  A    between atoms: C13_30  and  N8_33 
REMARK   11  A    between atoms: N8_33  and  C14_35 
REMARK   12  A    between atoms: C16_43  and  N12_44 
ROOT
HETATM    1  C10 UNL     1      22.248  11.434  18.822  1.00  0.00     0.153 C 
ENDROOT
BRANCH   1   2
HETATM    2  N6  UNL     1      22.059  10.407  19.826  1.00  0.00    -0.289 N 
HETATM    3  C5  UNL     1      21.136   9.451  19.637  1.00  0.00     0.117 A 
HETATM    4  C6  UNL     1      20.927   8.507  20.668  1.00  0.00     0.052 A 
HETATM    5  C7  UNL     1      21.648   8.565  21.830  1.00  0.00     0.046 A 
HETATM    6  C8  UNL     1      22.587   9.562  21.975  1.00  0.00     0.134 A 
HETATM    7  C9  UNL     1      22.792  10.494  20.959  1.00  0.00     0.282 A 
HETATM    8  O2  UNL     1      23.672  11.378  21.163  1.00  0.00    -0.265 OA
BRANCH   3   9
HETATM    9  N5  UNL     1      20.380   9.294  18.444  1.00  0.00    -0.285 N 
HETATM   10  C2  UNL     1      20.699   8.556  17.282  1.00  0.00     0.191 C 
HETATM   11  C1  UNL     1      21.826   9.206  16.474  1.00  0.00     0.056 C 
HETATM   12  N1  UNL     1      19.597   8.430  16.357  1.00  0.00    -0.343 N 
HETATM   13  C3  UNL     1      18.474   9.030  16.419  1.00  0.00     0.192 C 
ATOM     14  H1  UNL     1      19.732   7.794  15.571  1.00  0.00     0.164 HD
HETATM   15  N2  UNL     1      17.471   8.806  15.415  1.00  0.00    -0.063 NA
HETATM   16  N3  UNL     1      18.241   9.876  17.532  1.00  0.00    -0.304 N 
HETATM   17  C4  UNL     1      19.127  10.020  18.448  1.00  0.00     0.200 C 
ATOM     18  H3  UNL     1      17.355  10.376  17.606  1.00  0.00     0.171 HD
HETATM   19  N4  UNL     1      18.814  10.914  19.546  1.00  0.00    -0.063 NA
ENDBRANCH   3   9
BRANCH   6  20
HETATM   20  O1  UNL     1      23.345   9.658  23.141  1.00  0.00    -0.356 OA
ATOM     21  H1  UNL     1      24.236   9.986  23.112  1.00  0.00     0.218 HD
ENDBRANCH   6  20
ENDBRANCH   1   2
BRANCH   1  22
HETATM   22  C11 UNL     1      23.659  11.472  18.257  1.00  0.00     0.192 C 
BRANCH  22  23
HETATM   23  O3  UNL     1      24.355  10.284  18.377  1.00  0.00    -0.399 OA
ATOM     24  H3  UNL     1      23.991   9.564  17.876  1.00  0.00     0.209 HD
ENDBRANCH  22  23
ENDBRANCH   1  22
BRANCH   1  25
HETATM   25  C12 UNL     1      21.922  12.815  19.419  1.00  0.00     0.256 C 
BRANCH  25  26
HETATM   26  N7  UNL     1      20.637  13.234  18.890  1.00  0.00    -0.069 N 
ATOM     27  H73 UNL     1      20.380  14.178  19.175  1.00  0.00     0.275 HD
ATOM     28  H72 UNL     1      20.657  13.397  17.884  1.00  0.00     0.275 HD
ATOM     29  H71 UNL     1      19.945  12.535  19.164  1.00  0.00     0.275 HD
ENDBRANCH  25  26
BRANCH  25  30
HETATM   30  C13 UNL     1      22.997  13.807  18.946  1.00  0.00     0.252 C 
BRANCH  30  31
HETATM   31  O4  UNL     1      22.308  14.936  18.542  1.00  0.00    -0.375 OA
ATOM     32  H4  UNL     1      22.488  15.027  17.614  1.00  0.00     0.212 HD
ENDBRANCH  30  31
BRANCH  30  33
HETATM   33  N8  UNL     1      23.859  14.209  20.041  1.00  0.00    -0.344 N 
ATOM     34  H8  UNL     1      24.835  13.917  20.003  1.00  0.00     0.163 HD
BRANCH  33  35
HETATM   35  C14 UNL     1      23.450  14.977  21.159  1.00  0.00     0.162 A 
HETATM   36  N9  UNL     1      22.676  16.070  21.047  1.00  0.00    -0.282 N 
HETATM   37  N10 UNL     1      22.280  16.793  22.106  1.00  0.00    -0.294 N 
ATOM     38  H9  UNL     1      22.377  16.363  20.116  1.00  0.00     0.188 HD
HETATM   39  C15 UNL     1      22.655  16.436  23.342  1.00  0.00     0.199 A 
ATOM     40  H10 UNL     1      21.692  17.616  21.969  1.00  0.00     0.187 HD
HETATM   41  N11 UNL     1      23.430  15.352  23.517  1.00  0.00    -0.335 N 
HETATM   42  C16 UNL     1      23.819  14.637  22.448  1.00  0.00     0.145 A 
ATOM     43  H11 UNL     1      23.721  15.075  24.454  1.00  0.00     0.168 HD
BRANCH  42  44
HETATM   44  N12 UNL     1      24.561  13.601  22.632  1.00  0.00    -0.382 N 
ATOM     45 2H12 UNL     1      24.240  12.698  22.281  1.00  0.00     0.157 HD
ATOM     46 1H12 UNL     1      25.447  13.708  23.125  1.00  0.00     0.157 HD
ENDBRANCH  42  44
ENDBRANCH  33  35
ENDBRANCH  30  33
ENDBRANCH  25  30
ENDBRANCH   1  25
TORSDOF 12
ENDMDL
MODEL 4
REMARK VINA RESULT: -6.162557969      3.059      5.113
REMARK  12 active torsions:
REMARK  status: ('A' for Active; 'I' for Inactive)
REMARK    1  A    between atoms: N5_11  and  C5_12 
REMARK    2  A    between atoms: C8_15  and  O1_16 
REMARK    3  A    between atoms: N6_20  and  C10_21 
REMARK    4  A    between atoms: C10_21  and  C11_22 
REMARK    5  A    between atoms: C10_21  and  C12_25 
REMARK    6  A    between atoms: C11_22  and  O3_23 
REMARK    7  A    between atoms: C12_25  and  N7_26 
REMARK    8  A    between atoms: C12_25  and  C13_30 
REMARK    9  A    between atoms: C13_30  and  O4_31 
REMARK   10  A    between atoms: C13_30  and  N8_33 
REMARK   11  A    between atoms: N8_33  and  C14_35 
REMARK   12  A    between atoms: C16_43  and  N12_44 
ROOT
HETATM    1  C10 UNL     1      20.046   9.065  17.096  1.00  0.00     0.153 C 
ENDROOT
BRANCH   1   2
HETATM    2  N6  UNL     1      20.380   8.746  18.468  1.00  0.00    -0.289 N 
HETATM    3  C5  UNL     1      20.782   9.720  19.301  1.00  0.00     0.117 A 
HETATM    4  C6  UNL     1      21.170   9.364  20.613  1.00  0.00     0.052 A 
HETATM    5  C7  UNL     1      21.134   8.060  21.025  1.00  0.00     0.046 A 
HETATM    6  C8  UNL     1      20.711   7.097  20.136  1.00  0.00     0.134 A 
HETATM    7  C9  UNL     1      20.330   7.449  18.842  1.00  0.00     0.282 A 
HETATM    8  O2  UNL     1      19.950   6.511  18.084  1.00  0.00    -0.265 OA
BRANCH   3   9
HETATM    9  N5  UNL     1      20.804  11.101  18.965  1.00  0.00    -0.285 N 
HETATM   10  C2  UNL     1      21.906  11.909  18.605  1.00  0.00     0.191 C 
HETATM   11  C1  UNL     1      22.832  12.190  19.792  1.00  0.00     0.056 C 
HETATM   12  N1  UNL     1      21.530  13.211  18.105  1.00  0.00    -0.343 N 
HETATM   13  C3  UNL     1      20.362  13.724  18.112  1.00  0.00     0.192 C 
ATOM     14  H1  UNL     1      22.275  13.779  17.704  1.00  0.00     0.164 HD
HETATM   15  N2  UNL     1      20.141  15.041  17.581  1.00  0.00    -0.063 NA
HETATM   16  N3  UNL     1      19.299  12.933  18.613  1.00  0.00    -0.304 N 
HETATM   17  C4  UNL     1      19.505  11.738  19.032  1.00  0.00     0.200 C 
ATOM     18  H3  UNL     1      18.355  13.319  18.641  1.00  0.00     0.171 HD
HETATM   19  N4  UNL     1      18.365  11.001  19.540  1.00  0.00    -0.063 NA
ENDBRANCH   3   9
BRANCH   6  20
HETATM   20  O1  UNL     1      20.657   5.757  20.514  1.00  0.00    -0.356 OA
ATOM     21  H1  UNL     1      21.456   5.254  20.626  1.00  0.00     0.218 HD
ENDBRANCH   6  20
ENDBRANCH   1   2
BRANCH   1  22
HETATM   22  C11 UNL     1      18.614   8.712  16.726  1.00  0.00     0.192 C 
BRANCH  22  23
HETATM   23  O3  UNL     1      17.746   9.786  16.713  1.00  0.00    -0.399 OA
ATOM     24  H3  UNL     1      16.847   9.561  16.505  1.00  0.00     0.209 HD
ENDBRANCH  22  23
ENDBRANCH   1  22
BRANCH   1  25
HETATM   25  C12 UNL     1      20.997   8.322  16.140  1.00  0.00     0.256 C 
BRANCH  25  26
HETATM   26  N7  UNL     1      21.930   9.293  15.598  1.00  0.00    -0.069 N 
ATOM     27  H73 UNL     1      22.238   9.063  14.654  1.00  0.00     0.275 HD
ATOM     28  H72 UNL     1      21.490  10.188  15.382  1.00  0.00     0.275 HD
ATOM     29  H71 UNL     1      22.704   9.383  16.258  1.00  0.00     0.275 HD
ENDBRANCH  25  26
BRANCH  25  30
HETATM   30  C13 UNL     1      20.162   7.744  14.986  1.00  0.00     0.252 C 
BRANCH  30  31
HETATM   31  O4  UNL     1      20.837   8.088  13.830  1.00  0.00    -0.375 OA
ATOM     32  H4  UNL     1      20.796   7.320  13.272  1.00  0.00     0.212 HD
ENDBRANCH  30  31
BRANCH  30  33
HETATM   33  N8  UNL     1      20.126   6.294  15.038  1.00  0.00    -0.344 N 
ATOM     34  H8  UNL     1      20.856   5.825  15.573  1.00  0.00     0.163 HD
BRANCH  33  35
HETATM   35  C14 UNL     1      19.156   5.481  14.402  1.00  0.00     0.162 A 
HETATM   36  N9  UNL     1      19.001   5.442  13.068  1.00  0.00    -0.282 N 
HETATM   37  N10 UNL     1      18.089   4.665  12.464  1.00  0.00    -0.294 N 
ATOM     38  H9  UNL     1      19.603   6.028  12.489  1.00  0.00     0.188 HD
HETATM   39  C15 UNL     1      17.282   3.882  13.194  1.00  0.00     0.199 A 
ATOM     40  H10 UNL     1      18.009   4.670  11.447  1.00  0.00     0.187 HD
HETATM   41  N11 UNL     1      17.390   3.880  14.534  1.00  0.00    -0.335 N 
HETATM   42  C16 UNL     1      18.309   4.662  15.126  1.00  0.00     0.145 A 
ATOM     43  H11 UNL     1      16.779   3.288  15.097  1.00  0.00     0.168 HD
BRANCH  42  44
HETATM   44  N12 UNL     1      18.400   4.647  16.410  1.00  0.00    -0.382 N 
ATOM     45 2H12 UNL     1      19.036   5.302  16.865  1.00  0.00     0.157 HD
ATOM     46 1H12 UNL     1      17.835   3.982  16.939  1.00  0.00     0.157 HD
ENDBRANCH  42  44
ENDBRANCH  33  35
ENDBRANCH  30  33
ENDBRANCH  25  30
ENDBRANCH   1  25
TORSDOF 12
ENDMDL
MODEL 5
REMARK VINA RESULT: -6.105366837      2.253      7.454
REMARK  12 active torsions:
REMARK  status: ('A' for Active; 'I' for Inactive)
REMARK    1  A    between atoms: N5_11  and  C5_12 
REMARK    2  A    between atoms: C8_15  and  O1_16 
REMARK    3  A    between atoms: N6_20  and  C10_21 
REMARK    4  A    between atoms: C10_21  and  C11_22 
REMARK    5  A    between atoms: C10_21  and  C12_25 
REMARK    6  A    between atoms: C11_22  and  O3_23 
REMARK    7  A    between atoms: C12_25  and  N7_26 
REMARK    8  A    between atoms: C12_25  and  C13_30 
REMARK    9  A    between atoms: C13_30  and  O4_31 
REMARK   10  A    between atoms: C13_30  and  N8_33 
REMARK   11  A    between atoms: N8_33  and  C14_35 
REMARK   12  A    between atoms: C16_43  and  N12_44 
ROOT
HETATM    1  C10 UNL     1      21.657   9.282  18.570  1.00  0.00     0.153 C 
ENDROOT
BRANCH   1   2
HETATM    2  N6  UNL     1      20.307   9.151  18.062  1.00  0.00    -0.289 N 
HETATM    3  C5  UNL     1      20.077   8.418  16.960  1.00  0.00     0.117 A 
HETATM    4  C6  UNL     1      18.761   8.370  16.449  1.00  0.00     0.052 A 
HETATM    5  C7  UNL     1      17.744   9.051  17.062  1.00  0.00     0.046 A 
HETATM    6  C8  UNL     1      18.029   9.786  18.191  1.00  0.00     0.134 A 
HETATM    7  C9  UNL     1      19.328   9.835  18.695  1.00  0.00     0.282 A 
HETATM    8  O2  UNL     1      19.511  10.527  19.736  1.00  0.00    -0.265 OA
BRANCH   3   9
HETATM    9  N5  UNL     1      21.066   7.646  16.293  1.00  0.00    -0.285 N 
HETATM   10  C2  UNL     1      21.778   7.948  15.110  1.00  0.00     0.191 C 
HETATM   11  C1  UNL     1      20.890   7.875  13.864  1.00  0.00     0.056 C 
HETATM   12  N1  UNL     1      22.871   7.042  14.846  1.00  0.00    -0.343 N 
HETATM   13  C3  UNL     1      23.134   5.959  15.467  1.00  0.00     0.192 C 
ATOM     14  H1  UNL     1      23.499   7.294  14.083  1.00  0.00     0.164 HD
HETATM   15  N2  UNL     1      24.261   5.154  15.084  1.00  0.00    -0.063 NA
HETATM   16  N3  UNL     1      22.310   5.615  16.566  1.00  0.00    -0.304 N 
HETATM   17  C4  UNL     1      21.341   6.375  16.929  1.00  0.00     0.200 C 
ATOM     18  H3  UNL     1      22.489   4.751  17.077  1.00  0.00     0.171 HD
HETATM   19  N4  UNL     1      20.539   5.943  18.056  1.00  0.00    -0.063 NA
ENDBRANCH   3   9
BRANCH   6  20
HETATM   20  O1  UNL     1      17.024  10.494  18.848  1.00  0.00    -0.356 OA
ATOM     21  H1  UNL     1      17.058  11.442  18.904  1.00  0.00     0.218 HD
ENDBRANCH   6  20
ENDBRANCH   1   2
BRANCH   1  22
HETATM   22  C11 UNL     1      21.745   9.161  20.084  1.00  0.00     0.192 C 
BRANCH  22  23
HETATM   23  O3  UNL     1      21.259   7.972  20.590  1.00  0.00    -0.399 OA
ATOM     24  H3  UNL     1      20.324   7.849  20.473  1.00  0.00     0.209 HD
ENDBRANCH  22  23
ENDBRANCH   1  22
BRANCH   1  25
HETATM   25  C12 UNL     1      22.243  10.643  18.153  1.00  0.00     0.256 C 
BRANCH  25  26
HETATM   26  N7  UNL     1      23.427  10.389  17.352  1.00  0.00    -0.069 N 
ATOM     27  H73 UNL     1      23.435   9.454  16.943  1.00  0.00     0.275 HD
ATOM     28  H72 UNL     1      23.438  10.918  16.481  1.00  0.00     0.275 HD
ATOM     29  H71 UNL     1      24.243  10.572  17.937  1.00  0.00     0.275 HD
ENDBRANCH  25  26
BRANCH  25  30
HETATM   30  C13 UNL     1      22.661  11.397  19.426  1.00  0.00     0.252 C 
BRANCH  30  31
HETATM   31  O4  UNL     1      23.838  12.046  19.104  1.00  0.00    -0.375 OA
ATOM     32  H4  UNL     1      23.715  12.948  19.374  1.00  0.00     0.212 HD
ENDBRANCH  30  31
BRANCH  30  33
HETATM   33  N8  UNL     1      21.695  12.422  19.770  1.00  0.00    -0.344 N 
ATOM     34  H8  UNL     1      20.993  12.191  20.472  1.00  0.00     0.163 HD
BRANCH  33  35
HETATM   35  C14 UNL     1      21.651  13.721  19.206  1.00  0.00     0.162 A 
HETATM   36  N9  UNL     1      22.623  14.629  19.395  1.00  0.00    -0.282 N 
HETATM   37  N10 UNL     1      22.588  15.857  18.854  1.00  0.00    -0.294 N 
ATOM     38  H9  UNL     1      23.423  14.375  19.975  1.00  0.00     0.188 HD
HETATM   39  C15 UNL     1      21.552  16.224  18.086  1.00  0.00     0.199 A 
ATOM     40  H10 UNL     1      23.350  16.512  19.027  1.00  0.00     0.187 HD
HETATM   41  N11 UNL     1      20.548  15.358  17.862  1.00  0.00    -0.335 N 
HETATM   42  C16 UNL     1      20.597  14.132  18.409  1.00  0.00     0.145 A 
ATOM     43  H11 UNL     1      19.756  15.630  17.280  1.00  0.00     0.168 HD
BRANCH  42  44
HETATM   44  N12 UNL     1      19.629  13.314  18.184  1.00  0.00    -0.382 N 
ATOM     45 2H12 UNL     1      18.685  13.582  18.463  1.00  0.00     0.157 HD
ATOM     46 1H12 UNL     1      19.830  12.420  17.735  1.00  0.00     0.157 HD
ENDBRANCH  42  44
ENDBRANCH  33  35
ENDBRANCH  30  33
ENDBRANCH  25  30
ENDBRANCH   1  25
TORSDOF 12
ENDMDL
