MODEL 1
REMARK VINA RESULT: -6.963869656      0.000      0.000
REMARK  4 active torsions:
REMARK  status: ('A' for Active; 'I' for Inactive)
REMARK       I    between atoms: C1_2  and  N1_3 
REMARK       I    between atoms: C1_2  and  N3_20 
REMARK    1  A    between atoms: N1_3  and  C2_5 
REMARK    2  A    between atoms: C9_15  and  C10_16 
REMARK    3  A    between atoms: C10_16  and  C11_17 
REMARK    4  A    between atoms: C11_17  and  C12_18 
ROOT
HETATM    1  C2  UNL     1      -4.306   4.120  13.799  1.00  0.00     0.119 C 
HETATM    2  C3  UNL     1      -3.403   5.185  13.169  1.00  0.00     0.066 C 
HETATM    3  C4  UNL     1      -3.967   6.468  13.680  1.00  0.00     0.128 C 
HETATM    4  C5  UNL     1      -3.404   6.898  14.994  1.00  0.00     0.039 C 
HETATM    5  C6  UNL     1      -2.019   7.413  14.609  1.00  0.00     0.002 C 
HETATM    6  C7  UNL     1      -2.325   8.227  13.376  1.00  0.00     0.002 C 
HETATM    7  C8  UNL     1      -3.583   7.643  12.776  1.00  0.00     0.039 C 
HETATM    8  N2  UNL     1      -5.378   6.239  13.678  1.00  0.00    -0.060 N 
ATOM      9  H21 UNL     1      -5.826   6.525  12.808  1.00  0.00     0.278 HD
ATOM     10  H22 UNL     1      -5.883   6.869  14.302  1.00  0.00     0.278 HD
HETATM   11  C9  UNL     1      -5.594   4.841  13.992  1.00  0.00     0.209 C 
ENDROOT
BRANCH   1  12
HETATM   12  N1  UNL     1      -4.395   3.017  12.861  1.00  0.00    -0.336 N 
HETATM   13  C1  UNL     1      -4.274   1.667  13.243  1.00  0.00     0.318 C 
HETATM   14  O1  UNL     1      -4.080   1.417  14.455  1.00  0.00    -0.247 OA
HETATM   15  N3  UNL     1      -4.363   0.610  12.328  1.00  0.00    -0.330 N 
HETATM   16  C13 UNL     1      -4.220  -0.762  12.840  1.00  0.00     0.153 C 
HETATM   17  C16 UNL     1      -4.582   0.706  10.909  1.00  0.00     0.153 C 
HETATM   18  C14 UNL     1      -3.826  -1.603  11.632  1.00  0.00     0.187 C 
HETATM   19  O2  UNL     1      -2.818  -0.919  10.964  1.00  0.00    -0.388 OA
HETATM   20  C15 UNL     1      -3.461   0.023  10.131  1.00  0.00     0.187 C 
ATOM     21  H1  UNL     1      -4.554   3.231  11.876  1.00  0.00     0.164 HD
ENDBRANCH   1  12
BRANCH  11  22
HETATM   22  C10 UNL     1      -6.149   4.779  15.389  1.00  0.00     0.037 C 
BRANCH  22  23
HETATM   23  C11 UNL     1      -6.504   3.365  15.797  1.00  0.00     0.033 C 
BRANCH  23  24
HETATM   24  C12 UNL     1      -6.944   3.347  17.251  1.00  0.00     0.222 C 
HETATM   25  F1  UNL     1      -7.380   4.574  17.680  1.00  0.00    -0.255 F 
ENDBRANCH  23  24
ENDBRANCH  22  23
ENDBRANCH  11  22
TORSDOF 4
ENDMDL
MODEL 2
REMARK VINA RESULT: -6.861750069      3.321      5.567
REMARK  4 active torsions:
REMARK  status: ('A' for Active; 'I' for Inactive)
REMARK       I    between atoms: C1_2  and  N1_3 
REMARK       I    between atoms: C1_2  and  N3_20 
REMARK    1  A    between atoms: N1_3  and  C2_5 
REMARK    2  A    between atoms: C9_15  and  C10_16 
REMARK    3  A    between atoms: C10_16  and  C11_17 
REMARK    4  A    between atoms: C11_17  and  C12_18 
ROOT
HETATM    1  C2  UNL     1      -4.320   2.910  12.432  1.00  0.00     0.119 C 
HETATM    2  C3  UNL     1      -3.150   3.889  12.573  1.00  0.00     0.066 C 
HETATM    3  C4  UNL     1      -2.123   3.343  11.639  1.00  0.00     0.128 C 
HETATM    4  C5  UNL     1      -2.252   3.840  10.238  1.00  0.00     0.039 C 
HETATM    5  C6  UNL     1      -1.710   5.264  10.339  1.00  0.00     0.002 C 
HETATM    6  C7  UNL     1      -0.477   5.065  11.184  1.00  0.00     0.002 C 
HETATM    7  C8  UNL     1      -0.718   3.825  12.014  1.00  0.00     0.039 C 
HETATM    8  N2  UNL     1      -2.253   1.927  11.788  1.00  0.00    -0.060 N 
ATOM      9  H21 UNL     1      -1.636   1.545  12.503  1.00  0.00     0.278 HD
ATOM     10  H22 UNL     1      -1.875   1.408  10.995  1.00  0.00     0.278 HD
HETATM   11  C9  UNL     1      -3.651   1.640  12.036  1.00  0.00     0.209 C 
ENDROOT
BRANCH   1  12
HETATM   12  N1  UNL     1      -4.982   2.837  13.721  1.00  0.00    -0.336 N 
HETATM   13  C1  UNL     1      -4.710   1.835  14.673  1.00  0.00     0.318 C 
HETATM   14  O1  UNL     1      -3.853   0.970  14.382  1.00  0.00    -0.247 OA
HETATM   15  N3  UNL     1      -5.355   1.776  15.915  1.00  0.00    -0.330 N 
HETATM   16  C13 UNL     1      -4.992   0.684  16.831  1.00  0.00     0.153 C 
HETATM   17  C16 UNL     1      -6.358   2.678  16.416  1.00  0.00     0.153 C 
HETATM   18  C14 UNL     1      -6.167   0.557  17.792  1.00  0.00     0.187 C 
HETATM   19  O2  UNL     1      -7.328   0.570  17.029  1.00  0.00    -0.388 OA
HETATM   20  C15 UNL     1      -7.633   1.930  16.792  1.00  0.00     0.187 C 
ATOM     21  H1  UNL     1      -5.679   3.547  13.948  1.00  0.00     0.164 HD
ENDBRANCH   1  12
BRANCH  11  22
HETATM   22  C10 UNL     1      -4.202   0.999  10.791  1.00  0.00     0.037 C 
BRANCH  22  23
HETATM   23  C11 UNL     1      -3.443  -0.257  10.417  1.00  0.00     0.033 C 
BRANCH  23  24
HETATM   24  C12 UNL     1      -3.598  -1.294  11.516  1.00  0.00     0.222 C 
HETATM   25  F1  UNL     1      -2.594  -2.228  11.499  1.00  0.00    -0.255 F 
ENDBRANCH  23  24
ENDBRANCH  22  23
ENDBRANCH  11  22
TORSDOF 4
ENDMDL
MODEL 3
REMARK VINA RESULT: -6.579257783      4.146      6.281
REMARK  4 active torsions:
REMARK  status: ('A' for Active; 'I' for Inactive)
REMARK       I    between atoms: C1_2  and  N1_3 
REMARK       I    between atoms: C1_2  and  N3_20 
REMARK    1  A    between atoms: N1_3  and  C2_5 
REMARK    2  A    between atoms: C9_15  and  C10_16 
REMARK    3  A    between atoms: C10_16  and  C11_17 
REMARK    4  A    between atoms: C11_17  and  C12_18 
ROOT
HETATM    1  C2  UNL     1      -3.088   2.692  11.950  1.00  0.00     0.119 C 
HETATM    2  C3  UNL     1      -3.549   3.279  13.288  1.00  0.00     0.066 C 
HETATM    3  C4  UNL     1      -4.789   2.510  13.598  1.00  0.00     0.128 C 
HETATM    4  C5  UNL     1      -4.545   1.240  14.343  1.00  0.00     0.039 C 
HETATM    5  C6  UNL     1      -4.244   1.736  15.755  1.00  0.00     0.002 C 
HETATM    6  C7  UNL     1      -5.316   2.780  15.950  1.00  0.00     0.002 C 
HETATM    7  C8  UNL     1      -5.689   3.276  14.572  1.00  0.00     0.039 C 
HETATM    8  N2  UNL     1      -5.411   2.346  12.321  1.00  0.00    -0.060 N 
ATOM      9  H21 UNL     1      -6.070   3.092  12.101  1.00  0.00     0.278 HD
ATOM     10  H22 UNL     1      -6.074   1.571  12.299  1.00  0.00     0.278 HD
HETATM   11  C9  UNL     1      -4.357   2.214  11.335  1.00  0.00     0.209 C 
ENDROOT
BRANCH   1  12
HETATM   12  N1  UNL     1      -2.451   3.760  11.204  1.00  0.00    -0.336 N 
HETATM   13  C1  UNL     1      -1.542   3.532  10.152  1.00  0.00     0.318 C 
HETATM   14  O1  UNL     1      -1.280   2.344   9.853  1.00  0.00    -0.247 OA
HETATM   15  N3  UNL     1      -0.933   4.572   9.438  1.00  0.00    -0.330 N 
HETATM   16  C13 UNL     1       0.001   4.216   8.359  1.00  0.00     0.153 C 
HETATM   17  C16 UNL     1      -1.114   5.986   9.639  1.00  0.00     0.153 C 
HETATM   18  C14 UNL     1       0.869   5.451   8.155  1.00  0.00     0.187 C 
HETATM   19  O2  UNL     1       1.272   5.885   9.411  1.00  0.00    -0.388 OA
HETATM   20  C15 UNL     1       0.217   6.678   9.915  1.00  0.00     0.187 C 
ATOM     21  H1  UNL     1      -2.671   4.724  11.455  1.00  0.00     0.164 HD
ENDBRANCH   1  12
BRANCH  11  22
HETATM   22  C10 UNL     1      -4.341   0.777  10.890  1.00  0.00     0.037 C 
BRANCH  22  23
HETATM   23  C11 UNL     1      -3.098   0.052  11.360  1.00  0.00     0.033 C 
BRANCH  23  24
HETATM   24  C12 UNL     1      -3.404  -1.426  11.537  1.00  0.00     0.222 C 
HETATM   25  F1  UNL     1      -2.273  -2.200  11.513  1.00  0.00    -0.255 F 
ENDBRANCH  23  24
ENDBRANCH  22  23
ENDBRANCH  11  22
TORSDOF 4
ENDMDL
MODEL 4
REMARK VINA RESULT: -6.557867856      3.240      6.439
REMARK  4 active torsions:
REMARK  status: ('A' for Active; 'I' for Inactive)
REMARK       I    between atoms: C1_2  and  N1_3 
REMARK       I    between atoms: C1_2  and  N3_20 
REMARK    1  A    between atoms: N1_3  and  C2_5 
REMARK    2  A    between atoms: C9_15  and  C10_16 
REMARK    3  A    between atoms: C10_16  and  C11_17 
REMARK    4  A    between atoms: C11_17  and  C12_18 
ROOT
HETATM    1  C2  UNL     1      -4.480   4.743  12.557  1.00  0.00     0.119 C 
HETATM    2  C3  UNL     1      -4.090   3.711  11.493  1.00  0.00     0.066 C 
HETATM    3  C4  UNL     1      -3.452   2.618  12.283  1.00  0.00     0.128 C 
HETATM    4  C5  UNL     1      -4.415   1.596  12.790  1.00  0.00     0.039 C 
HETATM    5  C6  UNL     1      -4.736   0.790  11.534  1.00  0.00     0.002 C 
HETATM    6  C7  UNL     1      -3.368   0.611  10.925  1.00  0.00     0.002 C 
HETATM    7  C8  UNL     1      -2.525   1.768  11.409  1.00  0.00     0.039 C 
HETATM    8  N2  UNL     1      -2.728   3.317  13.299  1.00  0.00    -0.060 N 
ATOM      9  H21 UNL     1      -1.766   3.523  13.030  1.00  0.00     0.278 HD
ATOM     10  H22 UNL     1      -2.518   2.733  14.109  1.00  0.00     0.278 HD
HETATM   11  C9  UNL     1      -3.486   4.504  13.639  1.00  0.00     0.209 C 
ENDROOT
BRANCH   1  12
HETATM   12  N1  UNL     1      -4.368   6.055  11.949  1.00  0.00    -0.336 N 
HETATM   13  C1  UNL     1      -5.447   6.956  11.855  1.00  0.00     0.318 C 
HETATM   14  O1  UNL     1      -6.552   6.596  12.322  1.00  0.00    -0.247 OA
HETATM   15  N3  UNL     1      -5.327   8.222  11.267  1.00  0.00    -0.330 N 
HETATM   16  C13 UNL     1      -6.522   9.080  11.222  1.00  0.00     0.153 C 
HETATM   17  C16 UNL     1      -4.145   8.800  10.683  1.00  0.00     0.153 C 
HETATM   18  C14 UNL     1      -6.254  10.085  10.110  1.00  0.00     0.187 C 
HETATM   19  O2  UNL     1      -5.774   9.374   9.017  1.00  0.00    -0.388 OA
HETATM   20  C15 UNL     1      -4.388   9.203   9.232  1.00  0.00     0.187 C 
ATOM     21  H1  UNL     1      -3.464   6.339  11.572  1.00  0.00     0.164 HD
ENDBRANCH   1  12
BRANCH  11  22
HETATM   22  C10 UNL     1      -4.081   4.275  15.002  1.00  0.00     0.037 C 
BRANCH  22  23
HETATM   23  C11 UNL     1      -5.582   4.478  15.007  1.00  0.00     0.033 C 
BRANCH  23  24
HETATM   24  C12 UNL     1      -6.243   3.377  15.818  1.00  0.00     0.222 C 
HETATM   25  F1  UNL     1      -7.115   3.870  16.755  1.00  0.00    -0.255 F 
ENDBRANCH  23  24
ENDBRANCH  22  23
ENDBRANCH  11  22
TORSDOF 4
ENDMDL
MODEL 5
REMARK VINA RESULT: -6.477224693      3.366      6.475
REMARK  4 active torsions:
REMARK  status: ('A' for Active; 'I' for Inactive)
REMARK       I    between atoms: C1_2  and  N1_3 
REMARK       I    between atoms: C1_2  and  N3_20 
REMARK    1  A    between atoms: N1_3  and  C2_5 
REMARK    2  A    between atoms: C9_15  and  C10_16 
REMARK    3  A    between atoms: C10_16  and  C11_17 
REMARK    4  A    between atoms: C11_17  and  C12_18 
ROOT
HETATM    1  C2  UNL     1      -4.233   4.312  12.144  1.00  0.00     0.119 C 
HETATM    2  C3  UNL     1      -4.014   3.185  11.130  1.00  0.00     0.066 C 
HETATM    3  C4  UNL     1      -3.220   2.178  11.893  1.00  0.00     0.128 C 
HETATM    4  C5  UNL     1      -4.051   1.204  12.659  1.00  0.00     0.039 C 
HETATM    5  C6  UNL     1      -4.572   0.277  11.563  1.00  0.00     0.002 C 
HETATM    6  C7  UNL     1      -3.330   0.049  10.738  1.00  0.00     0.002 C 
HETATM    7  C8  UNL     1      -2.443   1.253  10.951  1.00  0.00     0.039 C 
HETATM    8  N2  UNL     1      -2.343   2.977  12.691  1.00  0.00    -0.060 N 
ATOM      9  H21 UNL     1      -1.450   3.162  12.236  1.00  0.00     0.278 HD
ATOM     10  H22 UNL     1      -1.978   2.477  13.502  1.00  0.00     0.278 HD
HETATM   11  C9  UNL     1      -3.057   4.186  13.048  1.00  0.00     0.209 C 
ENDROOT
BRANCH   1  12
HETATM   12  N1  UNL     1      -4.263   5.560  11.405  1.00  0.00    -0.336 N 
HETATM   13  C1  UNL     1      -5.233   6.560  11.617  1.00  0.00     0.318 C 
HETATM   14  O1  UNL     1      -6.107   6.350  12.489  1.00  0.00    -0.247 OA
HETATM   15  N3  UNL     1      -5.251   7.762  10.898  1.00  0.00    -0.330 N 
HETATM   16  C13 UNL     1      -6.313   8.733  11.203  1.00  0.00     0.153 C 
HETATM   17  C16 UNL     1      -4.334   8.171   9.867  1.00  0.00     0.153 C 
HETATM   18  C14 UNL     1      -6.408   9.625   9.971  1.00  0.00     0.187 C 
HETATM   19  O2  UNL     1      -6.421   8.792   8.859  1.00  0.00    -0.388 OA
HETATM   20  C15 UNL     1      -5.070   8.493   8.571  1.00  0.00     0.187 C 
ATOM     21  H1  UNL     1      -3.547   5.721  10.697  1.00  0.00     0.164 HD
ENDBRANCH   1  12
BRANCH  11  22
HETATM   22  C10 UNL     1      -3.394   4.088  14.511  1.00  0.00     0.037 C 
BRANCH  22  23
HETATM   23  C11 UNL     1      -4.889   4.091  14.750  1.00  0.00     0.033 C 
BRANCH  23  24
HETATM   24  C12 UNL     1      -5.263   2.937  15.665  1.00  0.00     0.222 C 
HETATM   25  F1  UNL     1      -4.199   2.493  16.407  1.00  0.00    -0.255 F 
ENDBRANCH  23  24
ENDBRANCH  22  23
ENDBRANCH  11  22
TORSDOF 4
ENDMDL
