MODEL 1
REMARK VINA RESULT: -6.548257994      0.000      0.000
REMARK  10 active torsions:
REMARK  status: ('A' for Active; 'I' for Inactive)
REMARK    1  A    between atoms: O1_2  and  C2_3 
REMARK    2  A    between atoms: C2_3  and  C3_4 
REMARK    3  A    between atoms: C3_4  and  O2_5 
REMARK    4  A    between atoms: O2_5  and  C4_6 
REMARK    5  A    between atoms: C4_6  and  C5_7 
REMARK    6  A    between atoms: C5_7  and  N1_8 
REMARK    7  A    between atoms: N1_8  and  C6_10 
REMARK    8  A    between atoms: N3_17  and  C11_19 
REMARK    9  A    between atoms: C11_19  and  C12_20 
REMARK   10  A    between atoms: C11_19  and  C15_23 
ROOT
HETATM    1  C6  UNL     1      44.132   9.515  11.828  1.00  0.00     0.118 A 
HETATM    2  C7  UNL     1      44.864   9.438  10.659  1.00  0.00     0.073 A 
HETATM    3  C8  UNL     1      45.949   8.602  10.610  1.00  0.00     0.026 A 
HETATM    4  C9  UNL     1      46.737   8.521   9.343  1.00  0.00     0.069 C 
HETATM    5  N2  UNL     1      46.292   7.877  11.668  1.00  0.00    -0.196 N 
ATOM      6  H2  UNL     1      47.103   7.263  11.604  1.00  0.00     0.184 HD
HETATM    7  C10 UNL     1      45.611   7.928  12.808  1.00  0.00     0.680 A 
HETATM    8  N3  UNL     1      45.898   7.263  13.856  1.00  0.00    -0.221 N 
ATOM      9  H3  UNL     1      45.238   7.459  14.608  1.00  0.00     0.178 HD
HETATM   10  N4  UNL     1      44.527   8.767  12.848  1.00  0.00    -0.177 N 
ATOM     11  H4  UNL     1      43.992   8.817  13.714  1.00  0.00     0.185 HD
ENDROOT
BRANCH   1  12
HETATM   12  N1  UNL     1      43.082  10.302  11.925  1.00  0.00    -0.374 N 
ATOM     13  H1  UNL     1      42.809  10.733  12.809  1.00  0.00     0.161 HD
BRANCH  12  14
HETATM   14  C5  UNL     1      42.338  10.520  10.705  1.00  0.00     0.147 C 
BRANCH  14  15
HETATM   15  C4  UNL     1      41.274  11.583  10.878  1.00  0.00     0.187 C 
BRANCH  15  16
HETATM   16  O2  UNL     1      41.358  12.047  12.184  1.00  0.00    -0.387 OA
BRANCH  16  17
HETATM   17  C3  UNL     1      40.208  11.835  12.928  1.00  0.00     0.193 C 
BRANCH  17  18
HETATM   18  C2  UNL     1      40.433  10.999  14.155  1.00  0.00     0.193 C 
BRANCH  18  19
HETATM   19  O1  UNL     1      40.817   9.718  13.883  1.00  0.00    -0.394 OA
HETATM   20  C1  UNL     1      39.881   9.010  13.145  1.00  0.00     0.201 C 
ENDBRANCH  18  19
ENDBRANCH  17  18
ENDBRANCH  16  17
ENDBRANCH  15  16
ENDBRANCH  14  15
ENDBRANCH  12  14
ENDBRANCH   1  12
BRANCH   8  21
HETATM   21  C11 UNL     1      46.857   6.346  14.258  1.00  0.00     0.107 C 
BRANCH  21  22
HETATM   22  C12 UNL     1      47.932   6.930  15.148  1.00  0.00     0.009 A 
HETATM   23  C13 UNL     1      49.130   6.200  15.561  1.00  0.00     0.007 A 
HETATM   24  C14 UNL     1      49.214   7.425  14.650  1.00  0.00     0.007 A 
ENDBRANCH  21  22
BRANCH  21  25
HETATM   25  C15 UNL     1      46.368   5.029  14.819  1.00  0.00     0.009 A 
HETATM   26  C16 UNL     1      44.944   4.648  14.754  1.00  0.00     0.007 A 
HETATM   27  C17 UNL     1      45.882   3.996  13.760  1.00  0.00     0.007 A 
ENDBRANCH  21  25
ENDBRANCH   8  21
TORSDOF 10
ENDMDL
MODEL 2
REMARK VINA RESULT: -6.373868945      1.750      2.849
REMARK  10 active torsions:
REMARK  status: ('A' for Active; 'I' for Inactive)
REMARK    1  A    between atoms: O1_2  and  C2_3 
REMARK    2  A    between atoms: C2_3  and  C3_4 
REMARK    3  A    between atoms: C3_4  and  O2_5 
REMARK    4  A    between atoms: O2_5  and  C4_6 
REMARK    5  A    between atoms: C4_6  and  C5_7 
REMARK    6  A    between atoms: C5_7  and  N1_8 
REMARK    7  A    between atoms: N1_8  and  C6_10 
REMARK    8  A    between atoms: N3_17  and  C11_19 
REMARK    9  A    between atoms: C11_19  and  C12_20 
REMARK   10  A    between atoms: C11_19  and  C15_23 
ROOT
HETATM    1  C6  UNL     1      42.823   7.521  12.478  1.00  0.00     0.118 A 
HETATM    2  C7  UNL     1      43.057   7.339  11.129  1.00  0.00     0.073 A 
HETATM    3  C8  UNL     1      44.351   7.268  10.684  1.00  0.00     0.026 A 
HETATM    4  C9  UNL     1      44.600   7.072   9.224  1.00  0.00     0.069 C 
HETATM    5  N2  UNL     1      45.365   7.372  11.536  1.00  0.00    -0.196 N 
ATOM      6  H2  UNL     1      46.318   7.315  11.179  1.00  0.00     0.184 HD
HETATM    7  C10 UNL     1      45.174   7.547  12.839  1.00  0.00     0.680 A 
HETATM    8  N3  UNL     1      46.107   7.660  13.701  1.00  0.00    -0.221 N 
ATOM      9  H3  UNL     1      45.727   7.786  14.639  1.00  0.00     0.178 HD
HETATM   10  N4  UNL     1      43.877   7.616  13.274  1.00  0.00    -0.177 N 
ATOM     11  H4  UNL     1      43.712   7.750  14.272  1.00  0.00     0.185 HD
ENDROOT
BRANCH   1  12
HETATM   12  N1  UNL     1      41.597   7.595  12.954  1.00  0.00    -0.374 N 
ATOM     13  H1  UNL     1      41.309   7.081  13.787  1.00  0.00     0.161 HD
BRANCH  12  14
HETATM   14  C5  UNL     1      40.685   8.447  12.225  1.00  0.00     0.147 C 
BRANCH  14  15
HETATM   15  C4  UNL     1      39.875   9.326  13.154  1.00  0.00     0.187 C 
BRANCH  15  16
HETATM   16  O2  UNL     1      40.762   9.927  14.036  1.00  0.00    -0.387 OA
BRANCH  16  17
HETATM   17  C3  UNL     1      40.623  11.303  14.118  1.00  0.00     0.193 C 
BRANCH  17  18
HETATM   18  C2  UNL     1      40.243  11.946  12.815  1.00  0.00     0.193 C 
BRANCH  18  19
HETATM   19  O1  UNL     1      41.313  12.292  12.042  1.00  0.00    -0.394 OA
HETATM   20  C1  UNL     1      41.160  11.946  10.708  1.00  0.00     0.201 C 
ENDBRANCH  18  19
ENDBRANCH  17  18
ENDBRANCH  16  17
ENDBRANCH  15  16
ENDBRANCH  14  15
ENDBRANCH  12  14
ENDBRANCH   1  12
BRANCH   8  21
HETATM   21  C11 UNL     1      47.493   7.659  13.717  1.00  0.00     0.107 C 
BRANCH  21  22
HETATM   22  C12 UNL     1      48.114   8.997  13.378  1.00  0.00     0.009 A 
HETATM   23  C13 UNL     1      48.439   9.419  12.017  1.00  0.00     0.007 A 
HETATM   24  C14 UNL     1      47.358  10.125  12.836  1.00  0.00     0.007 A 
ENDBRANCH  21  22
BRANCH  21  25
HETATM   25  C15 UNL     1      48.173   7.055  14.926  1.00  0.00     0.009 A 
HETATM   26  C16 UNL     1      48.295   5.593  15.088  1.00  0.00     0.007 A 
HETATM   27  C17 UNL     1      49.529   6.346  14.639  1.00  0.00     0.007 A 
ENDBRANCH  21  25
ENDBRANCH   8  21
TORSDOF 10
ENDMDL
MODEL 3
REMARK VINA RESULT: -6.369204629      2.229      3.999
REMARK  10 active torsions:
REMARK  status: ('A' for Active; 'I' for Inactive)
REMARK    1  A    between atoms: O1_2  and  C2_3 
REMARK    2  A    between atoms: C2_3  and  C3_4 
REMARK    3  A    between atoms: C3_4  and  O2_5 
REMARK    4  A    between atoms: O2_5  and  C4_6 
REMARK    5  A    between atoms: C4_6  and  C5_7 
REMARK    6  A    between atoms: C5_7  and  N1_8 
REMARK    7  A    between atoms: N1_8  and  C6_10 
REMARK    8  A    between atoms: N3_17  and  C11_19 
REMARK    9  A    between atoms: C11_19  and  C12_20 
REMARK   10  A    between atoms: C11_19  and  C15_23 
ROOT
HETATM    1  C6  UNL     1      42.852   7.846  12.907  1.00  0.00     0.118 A 
HETATM    2  C7  UNL     1      42.808   6.473  13.044  1.00  0.00     0.073 A 
HETATM    3  C8  UNL     1      43.985   5.779  13.162  1.00  0.00     0.026 A 
HETATM    4  C9  UNL     1      43.933   4.294  13.310  1.00  0.00     0.069 C 
HETATM    5  N2  UNL     1      45.149   6.418  13.147  1.00  0.00    -0.196 N 
ATOM      6  H2  UNL     1      46.009   5.879  13.238  1.00  0.00     0.184 HD
HETATM    7  C10 UNL     1      45.227   7.738  13.017  1.00  0.00     0.680 A 
HETATM    8  N3  UNL     1      46.314   8.402  12.988  1.00  0.00    -0.221 N 
ATOM      9  H3  UNL     1      46.132   9.401  12.882  1.00  0.00     0.178 HD
HETATM   10  N4  UNL     1      44.045   8.422  12.899  1.00  0.00    -0.177 N 
ATOM     11  H4  UNL     1      44.086   9.436  12.800  1.00  0.00     0.185 HD
ENDROOT
BRANCH   1  12
HETATM   12  N1  UNL     1      41.750   8.556  12.790  1.00  0.00    -0.374 N 
ATOM     13  H1  UNL     1      40.830   8.120  12.722  1.00  0.00     0.161 HD
BRANCH  12  14
HETATM   14  C5  UNL     1      41.920   9.992  12.764  1.00  0.00     0.147 C 
BRANCH  14  15
HETATM   15  C4  UNL     1      41.755  10.551  11.368  1.00  0.00     0.187 C 
BRANCH  15  16
HETATM   16  O2  UNL     1      43.025  10.720  10.834  1.00  0.00    -0.387 OA
BRANCH  16  17
HETATM   17  C3  UNL     1      43.278   9.924   9.729  1.00  0.00     0.193 C 
BRANCH  17  18
HETATM   18  C2  UNL     1      44.740   9.669   9.496  1.00  0.00     0.193 C 
BRANCH  18  19
HETATM   19  O1  UNL     1      45.170   8.467   9.978  1.00  0.00    -0.394 OA
HETATM   20  C1  UNL     1      44.521   7.383   9.407  1.00  0.00     0.201 C 
ENDBRANCH  18  19
ENDBRANCH  17  18
ENDBRANCH  16  17
ENDBRANCH  15  16
ENDBRANCH  14  15
ENDBRANCH  12  14
ENDBRANCH   1  12
BRANCH   8  21
HETATM   21  C11 UNL     1      47.674   8.146  13.061  1.00  0.00     0.107 C 
BRANCH  21  22
HETATM   22  C12 UNL     1      48.522   9.074  12.218  1.00  0.00     0.009 A 
HETATM   23  C13 UNL     1      48.664   8.951  10.768  1.00  0.00     0.007 A 
HETATM   24  C14 UNL     1      47.971  10.156  11.404  1.00  0.00     0.007 A 
ENDBRANCH  21  22
BRANCH  21  25
HETATM   25  C15 UNL     1      48.279   7.987  14.438  1.00  0.00     0.009 A 
HETATM   26  C16 UNL     1      48.075   6.758  15.230  1.00  0.00     0.007 A 
HETATM   27  C17 UNL     1      49.416   6.928  14.547  1.00  0.00     0.007 A 
ENDBRANCH  21  25
ENDBRANCH   8  21
TORSDOF 10
ENDMDL
MODEL 4
REMARK VINA RESULT: -6.364941813      2.734      7.301
REMARK  10 active torsions:
REMARK  status: ('A' for Active; 'I' for Inactive)
REMARK    1  A    between atoms: O1_2  and  C2_3 
REMARK    2  A    between atoms: C2_3  and  C3_4 
REMARK    3  A    between atoms: C3_4  and  O2_5 
REMARK    4  A    between atoms: O2_5  and  C4_6 
REMARK    5  A    between atoms: C4_6  and  C5_7 
REMARK    6  A    between atoms: C5_7  and  N1_8 
REMARK    7  A    between atoms: N1_8  and  C6_10 
REMARK    8  A    between atoms: N3_17  and  C11_19 
REMARK    9  A    between atoms: C11_19  and  C12_20 
REMARK   10  A    between atoms: C11_19  and  C15_23 
ROOT
HETATM    1  C6  UNL     1      43.884   6.160  13.334  1.00  0.00     0.118 A 
HETATM    2  C7  UNL     1      44.447   6.199  12.074  1.00  0.00     0.073 A 
HETATM    3  C8  UNL     1      43.877   6.997  11.116  1.00  0.00     0.026 A 
HETATM    4  C9  UNL     1      44.489   7.036   9.755  1.00  0.00     0.069 C 
HETATM    5  N2  UNL     1      42.799   7.721  11.396  1.00  0.00    -0.196 N 
ATOM      6  H2  UNL     1      42.395   8.306  10.665  1.00  0.00     0.184 HD
HETATM    7  C10 UNL     1      42.232   7.706  12.597  1.00  0.00     0.680 A 
HETATM    8  N3  UNL     1      41.194   8.373  12.919  1.00  0.00    -0.221 N 
ATOM      9  H3  UNL     1      40.938   8.207  13.892  1.00  0.00     0.178 HD
HETATM   10  N4  UNL     1      42.810   6.906  13.548  1.00  0.00    -0.177 N 
ATOM     11  H4  UNL     1      42.388   6.883  14.476  1.00  0.00     0.185 HD
ENDROOT
BRANCH   1  12
HETATM   12  N1  UNL     1      44.396   5.410  14.288  1.00  0.00    -0.374 N 
ATOM     13  H1  UNL     1      44.062   5.458  15.251  1.00  0.00     0.161 HD
BRANCH  12  14
HETATM   14  C5  UNL     1      45.458   4.515  13.889  1.00  0.00     0.147 C 
BRANCH  14  15
HETATM   15  C4  UNL     1      46.728   4.766  14.674  1.00  0.00     0.187 C 
BRANCH  15  16
HETATM   16  O2  UNL     1      46.644   6.046  15.204  1.00  0.00    -0.387 OA
BRANCH  16  17
HETATM   17  C3  UNL     1      47.850   6.727  15.216  1.00  0.00     0.193 C 
BRANCH  17  18
HETATM   18  C2  UNL     1      47.873   7.924  14.310  1.00  0.00     0.193 C 
BRANCH  18  19
HETATM   19  O1  UNL     1      46.636   8.437  14.049  1.00  0.00    -0.394 OA
HETATM   20  C1  UNL     1      46.563   9.102  12.835  1.00  0.00     0.201 C 
ENDBRANCH  18  19
ENDBRANCH  17  18
ENDBRANCH  16  17
ENDBRANCH  15  16
ENDBRANCH  14  15
ENDBRANCH  12  14
ENDBRANCH   1  12
BRANCH   8  21
HETATM   21  C11 UNL     1      40.317   9.260  12.314  1.00  0.00     0.107 C 
BRANCH  21  22
HETATM   22  C12 UNL     1      39.260   8.595  11.461  1.00  0.00     0.009 A 
HETATM   23  C13 UNL     1      38.284   9.331  10.657  1.00  0.00     0.007 A 
HETATM   24  C14 UNL     1      39.360   8.459  10.009  1.00  0.00     0.007 A 
ENDBRANCH  21  22
BRANCH  21  25
HETATM   25  C15 UNL     1      39.694  10.326  13.189  1.00  0.00     0.009 A 
HETATM   26  C16 UNL     1      40.435  10.923  14.317  1.00  0.00     0.007 A 
HETATM   27  C17 UNL     1      40.318  11.746  13.051  1.00  0.00     0.007 A 
ENDBRANCH  21  25
ENDBRANCH   8  21
TORSDOF 10
ENDMDL
MODEL 5
REMARK VINA RESULT: -6.334241837      2.515      6.224
REMARK  10 active torsions:
REMARK  status: ('A' for Active; 'I' for Inactive)
REMARK    1  A    between atoms: O1_2  and  C2_3 
REMARK    2  A    between atoms: C2_3  and  C3_4 
REMARK    3  A    between atoms: C3_4  and  O2_5 
REMARK    4  A    between atoms: O2_5  and  C4_6 
REMARK    5  A    between atoms: C4_6  and  C5_7 
REMARK    6  A    between atoms: C5_7  and  N1_8 
REMARK    7  A    between atoms: N1_8  and  C6_10 
REMARK    8  A    between atoms: N3_17  and  C11_19 
REMARK    9  A    between atoms: C11_19  and  C12_20 
REMARK   10  A    between atoms: C11_19  and  C15_23 
ROOT
HETATM    1  C6  UNL     1      47.148   7.825  14.194  1.00  0.00     0.118 A 
HETATM    2  C7  UNL     1      48.029   8.748  13.667  1.00  0.00     0.073 A 
HETATM    3  C8  UNL     1      47.613   9.550  12.637  1.00  0.00     0.026 A 
HETATM    4  C9  UNL     1      48.569  10.547  12.070  1.00  0.00     0.069 C 
HETATM    5  N2  UNL     1      46.381   9.442  12.153  1.00  0.00    -0.196 N 
ATOM      6  H2  UNL     1      46.096  10.052  11.387  1.00  0.00     0.184 HD
HETATM    7  C10 UNL     1      45.508   8.565  12.637  1.00  0.00     0.680 A 
HETATM    8  N3  UNL     1      44.318   8.413  12.208  1.00  0.00    -0.221 N 
ATOM      9  H3  UNL     1      43.830   7.683  12.729  1.00  0.00     0.178 HD
HETATM   10  N4  UNL     1      45.934   7.768  13.667  1.00  0.00    -0.177 N 
ATOM     11  H4  UNL     1      45.277   7.089  14.051  1.00  0.00     0.185 HD
ENDROOT
BRANCH   1  12
HETATM   12  N1  UNL     1      47.501   7.032  15.185  1.00  0.00    -0.374 N 
ATOM     13  H1  UNL     1      47.333   7.278  16.160  1.00  0.00     0.161 HD
BRANCH  12  14
HETATM   14  C5  UNL     1      48.141   5.792  14.807  1.00  0.00     0.147 C 
BRANCH  14  15
HETATM   15  C4  UNL     1      47.153   4.647  14.744  1.00  0.00     0.187 C 
BRANCH  15  16
HETATM   16  O2  UNL     1      45.920   5.139  15.148  1.00  0.00    -0.387 OA
BRANCH  16  17
HETATM   17  C3  UNL     1      44.849   4.351  14.757  1.00  0.00     0.193 C 
BRANCH  17  18
HETATM   18  C2  UNL     1      44.599   4.370  13.276  1.00  0.00     0.193 C 
BRANCH  18  19
HETATM   19  O1  UNL     1      43.920   5.474  12.849  1.00  0.00    -0.394 OA
HETATM   20  C1  UNL     1      42.772   5.729  13.583  1.00  0.00     0.201 C 
ENDBRANCH  18  19
ENDBRANCH  17  18
ENDBRANCH  16  17
ENDBRANCH  15  16
ENDBRANCH  14  15
ENDBRANCH  12  14
ENDBRANCH   1  12
BRANCH   8  21
HETATM   21  C11 UNL     1      43.502   8.962  11.231  1.00  0.00     0.107 C 
BRANCH  21  22
HETATM   22  C12 UNL     1      43.605   8.277   9.886  1.00  0.00     0.009 A 
HETATM   23  C13 UNL     1      44.763   8.395   9.002  1.00  0.00     0.007 A 
HETATM   24  C14 UNL     1      44.387   7.064   9.655  1.00  0.00     0.007 A 
ENDBRANCH  21  22
BRANCH  21  25
HETATM   25  C15 UNL     1      42.052   9.200  11.591  1.00  0.00     0.009 A 
HETATM   26  C16 UNL     1      41.632   9.412  12.989  1.00  0.00     0.007 A 
HETATM   27  C17 UNL     1      41.720  10.634  12.100  1.00  0.00     0.007 A 
ENDBRANCH  21  25
ENDBRANCH   8  21
TORSDOF 10
ENDMDL
