MODEL 1
REMARK VINA RESULT: -6.622817233      0.000      0.000
REMARK  11 active torsions:
REMARK  status: ('A' for Active; 'I' for Inactive)
REMARK    1  A    between atoms: O1_2  and  C2_3 
REMARK    2  A    between atoms: C2_3  and  C3_4 
REMARK    3  A    between atoms: C3_4  and  C4_5 
REMARK    4  A    between atoms: C4_5  and  C5_6 
REMARK    5  A    between atoms: C5_6  and  N1_7 
REMARK    6  A    between atoms: N1_7  and  C6_9 
REMARK    7  A    between atoms: C9_14  and  N3_15 
REMARK    8  A    between atoms: N3_15  and  C10_17 
REMARK    9  A    between atoms: C10_17  and  C11_18 
REMARK   10  A    between atoms: C11_18  and  C12_19 
REMARK   11  A    between atoms: C12_19  and  N4_20 
ROOT
HETATM    1  C6  UNL     1      45.409   4.461  14.692  1.00  0.00     0.683 A 
HETATM    2  N2  UNL     1      44.557   3.516  15.133  1.00  0.00    -0.202 N 
ATOM      3  H2  UNL     1      44.923   2.697  15.620  1.00  0.00     0.183 HD
HETATM    4  C7  UNL     1      43.220   3.636  14.941  1.00  0.00     0.110 A 
HETATM    5  C8  UNL     1      42.712   4.727  14.290  1.00  0.00     0.066 A 
HETATM    6  C9  UNL     1      43.603   5.709  13.831  1.00  0.00     0.118 A 
HETATM    7  N5  UNL     1      44.896   5.567  14.032  1.00  0.00    -0.177 N 
ATOM      8  H5  UNL     1      45.536   6.286  13.694  1.00  0.00     0.186 HD
ENDROOT
BRANCH   6   9
HETATM    9  N3  UNL     1      43.132   6.726  13.225  1.00  0.00    -0.376 N 
ATOM     10  H3  UNL     1      42.900   7.531  13.807  1.00  0.00     0.161 HD
BRANCH   9  11
HETATM   11  C10 UNL     1      42.892   6.868  11.815  1.00  0.00     0.126 C 
BRANCH  11  12
HETATM   12  C11 UNL     1      41.600   7.684  11.622  1.00  0.00     0.064 C 
BRANCH  12  13
HETATM   13  C12 UNL     1      41.185   8.213  12.964  1.00  0.00     0.065 C 
BRANCH  13  14
HETATM   14  N4  UNL     1      41.187   9.579  13.138  1.00  0.00    -0.369 N 
HETATM   15  C13 UNL     1      42.069  10.442  12.481  1.00  0.00     0.063 C 
HETATM   16  C14 UNL     1      41.195  11.640  12.150  1.00  0.00     0.046 C 
HETATM   17  C15 UNL     1      40.331  11.721  13.392  1.00  0.00     0.030 C 
HETATM   18  C16 UNL     1      40.182  10.257  13.842  1.00  0.00     0.084 C 
HETATM   19  C17 UNL     1      38.820   9.812  13.353  1.00  0.00     0.033 C 
ENDBRANCH  13  14
ENDBRANCH  12  13
ENDBRANCH  11  12
ENDBRANCH   9  11
ENDBRANCH   6   9
BRANCH   1  20
HETATM   20  N1  UNL     1      46.633   4.417  14.837  1.00  0.00    -0.202 N 
ATOM     21  H1  UNL     1      46.808   3.662  15.500  1.00  0.00     0.183 HD
BRANCH  20  22
HETATM   22  C5  UNL     1      47.875   4.925  14.508  1.00  0.00     0.106 C 
BRANCH  22  23
HETATM   23  C4  UNL     1      48.435   6.057  15.264  1.00  0.00     0.019 C 
BRANCH  23  24
HETATM   24  C3  UNL     1      47.835   7.395  15.237  1.00  0.00     0.025 C 
BRANCH  24  25
HETATM   25  C2  UNL     1      47.486   8.129  14.010  1.00  0.00     0.134 C 
BRANCH  25  26
HETATM   26  O1  UNL     1      46.340   8.469  13.577  1.00  0.00    -0.368 OA
HETATM   27  C1  UNL     1      45.656   9.101  12.704  1.00  0.00     0.208 C 
ENDBRANCH  25  26
ENDBRANCH  24  25
ENDBRANCH  23  24
ENDBRANCH  22  23
ENDBRANCH  20  22
ENDBRANCH   1  20
TORSDOF 11
ENDMDL
MODEL 2
REMARK VINA RESULT: -6.528970684      2.328      5.021
REMARK  11 active torsions:
REMARK  status: ('A' for Active; 'I' for Inactive)
REMARK    1  A    between atoms: O1_2  and  C2_3 
REMARK    2  A    between atoms: C2_3  and  C3_4 
REMARK    3  A    between atoms: C3_4  and  C4_5 
REMARK    4  A    between atoms: C4_5  and  C5_6 
REMARK    5  A    between atoms: C5_6  and  N1_7 
REMARK    6  A    between atoms: N1_7  and  C6_9 
REMARK    7  A    between atoms: C9_14  and  N3_15 
REMARK    8  A    between atoms: N3_15  and  C10_17 
REMARK    9  A    between atoms: C10_17  and  C11_18 
REMARK   10  A    between atoms: C11_18  and  C12_19 
REMARK   11  A    between atoms: C12_19  and  N4_20 
ROOT
HETATM    1  C6  UNL     1      46.371   5.065  14.669  1.00  0.00     0.683 A 
HETATM    2  N2  UNL     1      47.611   4.692  15.041  1.00  0.00    -0.202 N 
ATOM      3  H2  UNL     1      47.771   3.739  15.368  1.00  0.00     0.183 HD
HETATM    4  C7  UNL     1      48.649   5.563  14.987  1.00  0.00     0.110 A 
HETATM    5  C8  UNL     1      48.451   6.845  14.552  1.00  0.00     0.066 A 
HETATM    6  C9  UNL     1      47.158   7.231  14.166  1.00  0.00     0.118 A 
HETATM    7  N5  UNL     1      46.169   6.364  14.229  1.00  0.00    -0.177 N 
ATOM      8  H5  UNL     1      45.233   6.655  13.946  1.00  0.00     0.186 HD
ENDROOT
BRANCH   6   9
HETATM    9  N3  UNL     1      46.972   8.423  13.761  1.00  0.00    -0.376 N 
ATOM     10  H3  UNL     1      46.023   8.788  13.848  1.00  0.00     0.161 HD
BRANCH   9  11
HETATM   11  C10 UNL     1      47.947   9.315  13.194  1.00  0.00     0.126 C 
BRANCH  11  12
HETATM   12  C11 UNL     1      47.991   9.085  11.673  1.00  0.00     0.064 C 
BRANCH  12  13
HETATM   13  C12 UNL     1      46.887   9.891  11.053  1.00  0.00     0.065 C 
BRANCH  13  14
HETATM   14  N4  UNL     1      45.854   9.203  10.457  1.00  0.00    -0.369 N 
HETATM   15  C13 UNL     1      46.010   7.965   9.827  1.00  0.00     0.063 C 
HETATM   16  C14 UNL     1      44.751   7.214  10.228  1.00  0.00     0.046 C 
HETATM   17  C15 UNL     1      43.723   8.325  10.183  1.00  0.00     0.030 C 
HETATM   18  C16 UNL     1      44.511   9.582  10.590  1.00  0.00     0.084 C 
HETATM   19  C17 UNL     1      44.184   9.820  12.049  1.00  0.00     0.033 C 
ENDBRANCH  13  14
ENDBRANCH  12  13
ENDBRANCH  11  12
ENDBRANCH   9  11
ENDBRANCH   6   9
BRANCH   1  20
HETATM   20  N1  UNL     1      45.386   4.324  14.690  1.00  0.00    -0.202 N 
ATOM     21  H1  UNL     1      45.711   3.420  14.347  1.00  0.00     0.183 HD
BRANCH  20  22
HETATM   22  C5  UNL     1      44.042   4.162  14.966  1.00  0.00     0.106 C 
BRANCH  22  23
HETATM   23  C4  UNL     1      43.053   4.198  13.876  1.00  0.00     0.019 C 
BRANCH  23  24
HETATM   24  C3  UNL     1      42.962   5.315  12.932  1.00  0.00     0.025 C 
BRANCH  24  25
HETATM   25  C2  UNL     1      42.626   6.699  13.304  1.00  0.00     0.134 C 
BRANCH  25  26
HETATM   26  O1  UNL     1      41.507   7.299  13.234  1.00  0.00    -0.368 OA
HETATM   27  C1  UNL     1      40.873   8.386  13.020  1.00  0.00     0.208 C 
ENDBRANCH  25  26
ENDBRANCH  24  25
ENDBRANCH  23  24
ENDBRANCH  22  23
ENDBRANCH  20  22
ENDBRANCH   1  20
TORSDOF 11
ENDMDL
MODEL 3
REMARK VINA RESULT: -6.527282655      0.983      1.422
REMARK  11 active torsions:
REMARK  status: ('A' for Active; 'I' for Inactive)
REMARK    1  A    between atoms: O1_2  and  C2_3 
REMARK    2  A    between atoms: C2_3  and  C3_4 
REMARK    3  A    between atoms: C3_4  and  C4_5 
REMARK    4  A    between atoms: C4_5  and  C5_6 
REMARK    5  A    between atoms: C5_6  and  N1_7 
REMARK    6  A    between atoms: N1_7  and  C6_9 
REMARK    7  A    between atoms: C9_14  and  N3_15 
REMARK    8  A    between atoms: N3_15  and  C10_17 
REMARK    9  A    between atoms: C10_17  and  C11_18 
REMARK   10  A    between atoms: C11_18  and  C12_19 
REMARK   11  A    between atoms: C12_19  and  N4_20 
ROOT
HETATM    1  C6  UNL     1      45.420   5.006  14.512  1.00  0.00     0.683 A 
HETATM    2  N2  UNL     1      44.978   3.861  15.067  1.00  0.00    -0.202 N 
ATOM      3  H2  UNL     1      45.641   3.235  15.523  1.00  0.00     0.183 HD
HETATM    4  C7  UNL     1      43.664   3.528  15.029  1.00  0.00     0.110 A 
HETATM    5  C8  UNL     1      42.760   4.356  14.420  1.00  0.00     0.066 A 
HETATM    6  C9  UNL     1      43.224   5.547  13.843  1.00  0.00     0.118 A 
HETATM    7  N5  UNL     1      44.506   5.846  13.895  1.00  0.00    -0.177 N 
ATOM      8  H5  UNL     1      44.833   6.714  13.472  1.00  0.00     0.186 HD
ENDROOT
BRANCH   6   9
HETATM    9  N3  UNL     1      42.385   6.319  13.276  1.00  0.00    -0.376 N 
ATOM     10  H3  UNL     1      41.443   6.329  13.669  1.00  0.00     0.161 HD
BRANCH   9  11
HETATM   11  C10 UNL     1      42.612   7.179  12.147  1.00  0.00     0.126 C 
BRANCH  11  12
HETATM   12  C11 UNL     1      42.492   8.640  12.616  1.00  0.00     0.064 C 
BRANCH  12  13
HETATM   13  C12 UNL     1      41.093   8.850  13.116  1.00  0.00     0.065 C 
BRANCH  13  14
HETATM   14  N4  UNL     1      40.294   9.730  12.421  1.00  0.00    -0.369 N 
HETATM   15  C13 UNL     1      39.111   9.358  11.776  1.00  0.00     0.063 C 
HETATM   16  C14 UNL     1      38.184  10.529  12.056  1.00  0.00     0.046 C 
HETATM   17  C15 UNL     1      39.148  11.693  11.953  1.00  0.00     0.030 C 
HETATM   18  C16 UNL     1      40.485  11.119  12.453  1.00  0.00     0.084 C 
HETATM   19  C17 UNL     1      40.626  11.587  13.886  1.00  0.00     0.033 C 
ENDBRANCH  13  14
ENDBRANCH  12  13
ENDBRANCH  11  12
ENDBRANCH   9  11
ENDBRANCH   6   9
BRANCH   1  20
HETATM   20  N1  UNL     1      46.597   5.371  14.515  1.00  0.00    -0.202 N 
ATOM     21  H1  UNL     1      46.597   6.315  14.130  1.00  0.00     0.183 HD
BRANCH  20  22
HETATM   22  C5  UNL     1      47.917   5.081  14.803  1.00  0.00     0.106 C 
BRANCH  22  23
HETATM   23  C4  UNL     1      48.810   6.131  15.321  1.00  0.00     0.019 C 
BRANCH  23  24
HETATM   24  C3  UNL     1      49.224   7.281  14.511  1.00  0.00     0.025 C 
BRANCH  24  25
HETATM   25  C2  UNL     1      48.365   8.434  14.197  1.00  0.00     0.134 C 
BRANCH  25  26
HETATM   26  O1  UNL     1      47.128   8.458  13.904  1.00  0.00    -0.368 OA
HETATM   27  C1  UNL     1      46.223   8.730  13.047  1.00  0.00     0.208 C 
ENDBRANCH  25  26
ENDBRANCH  24  25
ENDBRANCH  23  24
ENDBRANCH  22  23
ENDBRANCH  20  22
ENDBRANCH   1  20
TORSDOF 11
ENDMDL
MODEL 4
REMARK VINA RESULT: -6.493065343      1.033      1.160
REMARK  11 active torsions:
REMARK  status: ('A' for Active; 'I' for Inactive)
REMARK    1  A    between atoms: O1_2  and  C2_3 
REMARK    2  A    between atoms: C2_3  and  C3_4 
REMARK    3  A    between atoms: C3_4  and  C4_5 
REMARK    4  A    between atoms: C4_5  and  C5_6 
REMARK    5  A    between atoms: C5_6  and  N1_7 
REMARK    6  A    between atoms: N1_7  and  C6_9 
REMARK    7  A    between atoms: C9_14  and  N3_15 
REMARK    8  A    between atoms: N3_15  and  C10_17 
REMARK    9  A    between atoms: C10_17  and  C11_18 
REMARK   10  A    between atoms: C11_18  and  C12_19 
REMARK   11  A    between atoms: C12_19  and  N4_20 
ROOT
HETATM    1  C6  UNL     1      46.376   5.451  14.550  1.00  0.00     0.683 A 
HETATM    2  N2  UNL     1      46.006   4.165  14.400  1.00  0.00    -0.202 N 
ATOM      3  H2  UNL     1      46.587   3.426  14.798  1.00  0.00     0.183 HD
HETATM    4  C7  UNL     1      44.874   3.836  13.729  1.00  0.00     0.110 A 
HETATM    5  C8  UNL     1      44.085   4.815  13.189  1.00  0.00     0.066 A 
HETATM    6  C9  UNL     1      44.473   6.153  13.347  1.00  0.00     0.118 A 
HETATM    7  N5  UNL     1      45.577   6.443  14.003  1.00  0.00    -0.177 N 
ATOM      8  H5  UNL     1      45.851   7.420  14.112  1.00  0.00     0.186 HD
ENDROOT
BRANCH   6   9
HETATM    9  N3  UNL     1      43.739   7.065  12.845  1.00  0.00    -0.376 N 
ATOM     10  H3  UNL     1      43.505   7.846  13.459  1.00  0.00     0.161 HD
BRANCH   9  11
HETATM   11  C10 UNL     1      43.204   7.122  11.512  1.00  0.00     0.126 C 
BRANCH  11  12
HETATM   12  C11 UNL     1      41.740   7.590  11.596  1.00  0.00     0.064 C 
BRANCH  12  13
HETATM   13  C12 UNL     1      41.512   8.145  12.971  1.00  0.00     0.065 C 
BRANCH  13  14
HETATM   14  N4  UNL     1      41.327   9.505  13.086  1.00  0.00    -0.369 N 
HETATM   15  C13 UNL     1      42.115  10.451  12.425  1.00  0.00     0.063 C 
HETATM   16  C14 UNL     1      41.106  11.510  12.012  1.00  0.00     0.046 C 
HETATM   17  C15 UNL     1      40.187  11.522  13.216  1.00  0.00     0.030 C 
HETATM   18  C16 UNL     1      40.212  10.069  13.722  1.00  0.00     0.084 C 
HETATM   19  C17 UNL     1      38.942   9.428  13.203  1.00  0.00     0.033 C 
ENDBRANCH  13  14
ENDBRANCH  12  13
ENDBRANCH  11  12
ENDBRANCH   9  11
ENDBRANCH   6   9
BRANCH   1  20
HETATM   20  N1  UNL     1      47.388   5.818  15.151  1.00  0.00    -0.202 N 
ATOM     21  H1  UNL     1      47.066   6.152  16.060  1.00  0.00     0.183 HD
BRANCH  20  22
HETATM   22  C5  UNL     1      48.759   5.984  15.152  1.00  0.00     0.106 C 
BRANCH  22  23
HETATM   23  C4  UNL     1      49.353   7.241  14.668  1.00  0.00     0.019 C 
BRANCH  23  24
HETATM   24  C3  UNL     1      48.814   7.975  13.520  1.00  0.00     0.025 C 
BRANCH  24  25
HETATM   25  C2  UNL     1      47.944   9.158  13.618  1.00  0.00     0.134 C 
BRANCH  25  26
HETATM   26  O1  UNL     1      46.723   9.286  13.287  1.00  0.00    -0.368 OA
HETATM   27  C1  UNL     1      45.856   9.861  12.548  1.00  0.00     0.208 C 
ENDBRANCH  25  26
ENDBRANCH  24  25
ENDBRANCH  23  24
ENDBRANCH  22  23
ENDBRANCH  20  22
ENDBRANCH   1  20
TORSDOF 11
ENDMDL
MODEL 5
REMARK VINA RESULT: -6.477253084      1.023      1.189
REMARK  11 active torsions:
REMARK  status: ('A' for Active; 'I' for Inactive)
REMARK    1  A    between atoms: O1_2  and  C2_3 
REMARK    2  A    between atoms: C2_3  and  C3_4 
REMARK    3  A    between atoms: C3_4  and  C4_5 
REMARK    4  A    between atoms: C4_5  and  C5_6 
REMARK    5  A    between atoms: C5_6  and  N1_7 
REMARK    6  A    between atoms: N1_7  and  C6_9 
REMARK    7  A    between atoms: C9_14  and  N3_15 
REMARK    8  A    between atoms: N3_15  and  C10_17 
REMARK    9  A    between atoms: C10_17  and  C11_18 
REMARK   10  A    between atoms: C11_18  and  C12_19 
REMARK   11  A    between atoms: C12_19  and  N4_20 
ROOT
HETATM    1  C6  UNL     1      45.385   5.002  14.517  1.00  0.00     0.683 A 
HETATM    2  N2  UNL     1      44.946   3.876  15.112  1.00  0.00    -0.202 N 
ATOM      3  H2  UNL     1      45.611   3.269  15.591  1.00  0.00     0.183 HD
HETATM    4  C7  UNL     1      43.633   3.538  15.084  1.00  0.00     0.110 A 
HETATM    5  C8  UNL     1      42.728   4.340  14.445  1.00  0.00     0.066 A 
HETATM    6  C9  UNL     1      43.189   5.512  13.826  1.00  0.00     0.118 A 
HETATM    7  N5  UNL     1      44.469   5.816  13.870  1.00  0.00    -0.177 N 
ATOM      8  H5  UNL     1      44.794   6.670  13.416  1.00  0.00     0.186 HD
ENDROOT
BRANCH   6   9
HETATM    9  N3  UNL     1      42.348   6.260  13.231  1.00  0.00    -0.376 N 
ATOM     10  H3  UNL     1      41.367   6.120  13.474  1.00  0.00     0.161 HD
BRANCH   9  11
HETATM   11  C10 UNL     1      42.622   7.281  12.257  1.00  0.00     0.126 C 
BRANCH  11  12
HETATM   12  C11 UNL     1      42.311   8.651  12.887  1.00  0.00     0.064 C 
BRANCH  12  13
HETATM   13  C12 UNL     1      40.826   8.741  13.082  1.00  0.00     0.065 C 
BRANCH  13  14
HETATM   14  N4  UNL     1      40.253   9.992  13.037  1.00  0.00    -0.369 N 
HETATM   15  C13 UNL     1      40.689  11.072  13.810  1.00  0.00     0.063 C 
HETATM   16  C14 UNL     1      40.577  12.247  12.852  1.00  0.00     0.046 C 
HETATM   17  C15 UNL     1      39.304  11.897  12.110  1.00  0.00     0.030 C 
HETATM   18  C16 UNL     1      39.302  10.359  12.074  1.00  0.00     0.084 C 
HETATM   19  C17 UNL     1      39.792   9.977  10.694  1.00  0.00     0.033 C 
ENDBRANCH  13  14
ENDBRANCH  12  13
ENDBRANCH  11  12
ENDBRANCH   9  11
ENDBRANCH   6   9
BRANCH   1  20
HETATM   20  N1  UNL     1      46.562   5.371  14.509  1.00  0.00    -0.202 N 
ATOM     21  H1  UNL     1      46.565   6.280  14.046  1.00  0.00     0.183 HD
BRANCH  20  22
HETATM   22  C5  UNL     1      47.877   5.112  14.841  1.00  0.00     0.106 C 
BRANCH  22  23
HETATM   23  C4  UNL     1      48.743   6.196  15.334  1.00  0.00     0.019 C 
BRANCH  23  24
HETATM   24  C3  UNL     1      49.136   7.332  14.495  1.00  0.00     0.025 C 
BRANCH  24  25
HETATM   25  C2  UNL     1      48.262   8.471  14.168  1.00  0.00     0.134 C 
BRANCH  25  26
HETATM   26  O1  UNL     1      47.030   8.473  13.855  1.00  0.00    -0.368 OA
HETATM   27  C1  UNL     1      46.134   8.739  12.986  1.00  0.00     0.208 C 
ENDBRANCH  25  26
ENDBRANCH  24  25
ENDBRANCH  23  24
ENDBRANCH  22  23
ENDBRANCH  20  22
ENDBRANCH   1  20
TORSDOF 11
ENDMDL
