MODEL 1
REMARK VINA RESULT: -6.355397240      0.000      0.000
REMARK  11 active torsions:
REMARK  status: ('A' for Active; 'I' for Inactive)
REMARK    1  A    between atoms: C2_2  and  O1_3 
REMARK    2  A    between atoms: O1_3  and  C3_4 
REMARK    3  A    between atoms: C3_4  and  C4_5 
REMARK    4  A    between atoms: C4_5  and  C5_6 
REMARK    5  A    between atoms: C5_6  and  N1_7 
REMARK    6  A    between atoms: N1_7  and  C6_9 
REMARK    7  A    between atoms: C9_16  and  N4_17 
REMARK    8  A    between atoms: N4_17  and  C10_19 
REMARK    9  A    between atoms: C10_19  and  C11_20 
REMARK   10  A    between atoms: C11_20  and  C12_21 
REMARK   11  A    between atoms: C12_21  and  N5_22 
ROOT
HETATM    1  C6  UNL     1      46.685   7.871  13.724  1.00  0.00     0.078 A 
HETATM    2  C7  UNL     1      47.848   8.638  13.677  1.00  0.00     0.052 A 
HETATM    3  C8  UNL     1      47.878   9.768  12.925  1.00  0.00     0.109 A 
HETATM    4  N2  UNL     1      46.801  10.147  12.230  1.00  0.00    -0.310 N 
ATOM      5  H2  UNL     1      46.834  10.997  11.668  1.00  0.00     0.186 HD
HETATM    6  N3  UNL     1      45.699   9.430  12.268  1.00  0.00    -0.284 N 
ATOM      7  H3  UNL     1      44.896   9.751  11.726  1.00  0.00     0.188 HD
HETATM    8  C9  UNL     1      45.571   8.276  12.995  1.00  0.00     0.143 A 
ENDROOT
BRANCH   8   9
HETATM    9  N4  UNL     1      44.475   7.653  12.959  1.00  0.00    -0.373 N 
ATOM     10  H4  UNL     1      43.914   7.694  13.810  1.00  0.00     0.161 HD
BRANCH   9  11
HETATM   11  C10 UNL     1      43.920   6.905  11.896  1.00  0.00     0.123 C 
BRANCH  11  12
HETATM   12  C11 UNL     1      42.541   7.569  11.607  1.00  0.00     0.039 C 
BRANCH  12  13
HETATM   13  C12 UNL     1      41.891   7.688  12.959  1.00  0.00     0.118 C 
BRANCH  13  14
HETATM   14  N5  UNL     1      41.168   8.905  13.165  1.00  0.00    -0.412 N 
HETATM   15  C13 UNL     1      39.782   8.815  12.863  1.00  0.00     0.117 C 
HETATM   16  C14 UNL     1      39.392   9.962  11.956  1.00  0.00     0.019 C 
HETATM   17  C15 UNL     1      39.640  11.247  12.733  1.00  0.00     0.003 C 
HETATM   18  C16 UNL     1      41.123  11.335  12.984  1.00  0.00     0.019 C 
HETATM   19  C17 UNL     1      41.860  10.069  12.697  1.00  0.00     0.117 C 
ENDBRANCH  13  14
ENDBRANCH  12  13
ENDBRANCH  11  12
ENDBRANCH   9  11
ENDBRANCH   8   9
BRANCH   1  20
HETATM   20  N1  UNL     1      46.576   6.819  14.400  1.00  0.00    -0.366 N 
ATOM     21  H1  UNL     1      45.623   6.627  14.710  1.00  0.00     0.165 HD
BRANCH  20  22
HETATM   22  C5  UNL     1      47.507   5.862  14.809  1.00  0.00     0.063 C 
BRANCH  22  23
HETATM   23  C4  UNL     1      46.981   4.464  14.773  1.00  0.00     0.071 C 
BRANCH  23  24
HETATM   24  C3  UNL     1      45.574   4.480  14.179  1.00  0.00     0.172 C 
BRANCH  24  25
HETATM   25  O1  UNL     1      44.699   4.731  15.228  1.00  0.00    -0.391 OA
BRANCH  25  26
HETATM   26  C2  UNL     1      43.376   4.752  14.861  1.00  0.00     0.163 C 
HETATM   27  C1  UNL     1      42.704   3.453  15.217  1.00  0.00     0.033 C 
ENDBRANCH  25  26
ENDBRANCH  24  25
ENDBRANCH  23  24
ENDBRANCH  22  23
ENDBRANCH  20  22
ENDBRANCH   1  20
TORSDOF 11
ENDMDL
MODEL 2
REMARK VINA RESULT: -6.342215113      2.130      6.414
REMARK  11 active torsions:
REMARK  status: ('A' for Active; 'I' for Inactive)
REMARK    1  A    between atoms: C2_2  and  O1_3 
REMARK    2  A    between atoms: O1_3  and  C3_4 
REMARK    3  A    between atoms: C3_4  and  C4_5 
REMARK    4  A    between atoms: C4_5  and  C5_6 
REMARK    5  A    between atoms: C5_6  and  N1_7 
REMARK    6  A    between atoms: N1_7  and  C6_9 
REMARK    7  A    between atoms: C9_16  and  N4_17 
REMARK    8  A    between atoms: N4_17  and  C10_19 
REMARK    9  A    between atoms: C10_19  and  C11_20 
REMARK   10  A    between atoms: C11_20  and  C12_21 
REMARK   11  A    between atoms: C12_21  and  N5_22 
ROOT
HETATM    1  C6  UNL     1      43.900   5.415  13.929  1.00  0.00     0.078 A 
HETATM    2  C7  UNL     1      42.696   4.755  14.176  1.00  0.00     0.052 A 
HETATM    3  C8  UNL     1      42.700   3.587  14.867  1.00  0.00     0.109 A 
HETATM    4  N2  UNL     1      43.848   3.066  15.311  1.00  0.00    -0.310 N 
ATOM      5  H2  UNL     1      43.840   2.188  15.829  1.00  0.00     0.186 HD
HETATM    6  N3  UNL     1      44.989   3.681  15.084  1.00  0.00    -0.284 N 
ATOM      7  H3  UNL     1      45.845   3.256  15.438  1.00  0.00     0.188 HD
HETATM    8  C9  UNL     1      45.088   4.862  14.395  1.00  0.00     0.143 A 
ENDROOT
BRANCH   8   9
HETATM    9  N4  UNL     1      46.230   5.369  14.220  1.00  0.00    -0.373 N 
ATOM     10  H4  UNL     1      46.286   6.095  13.506  1.00  0.00     0.161 HD
BRANCH   9  11
HETATM   11  C10 UNL     1      47.442   5.064  14.880  1.00  0.00     0.123 C 
BRANCH  11  12
HETATM   12  C11 UNL     1      48.388   6.262  14.569  1.00  0.00     0.039 C 
BRANCH  12  13
HETATM   13  C12 UNL     1      47.515   7.478  14.721  1.00  0.00     0.118 C 
BRANCH  13  14
HETATM   14  N5  UNL     1      47.656   8.444  13.675  1.00  0.00    -0.412 N 
HETATM   15  C13 UNL     1      46.428   8.832  13.073  1.00  0.00     0.117 C 
HETATM   16  C14 UNL     1      46.552   8.728  11.569  1.00  0.00     0.019 C 
HETATM   17  C15 UNL     1      47.635   9.710  11.144  1.00  0.00     0.003 C 
HETATM   18  C16 UNL     1      48.928   9.234  11.753  1.00  0.00     0.019 C 
HETATM   19  C17 UNL     1      48.754   8.179  12.794  1.00  0.00     0.117 C 
ENDBRANCH  13  14
ENDBRANCH  12  13
ENDBRANCH  11  12
ENDBRANCH   9  11
ENDBRANCH   8   9
BRANCH   1  20
HETATM   20  N1  UNL     1      43.979   6.500  13.305  1.00  0.00    -0.366 N 
ATOM     21  H1  UNL     1      44.723   7.113  13.639  1.00  0.00     0.165 HD
BRANCH  20  22
HETATM   22  C5  UNL     1      43.245   7.030  12.240  1.00  0.00     0.063 C 
BRANCH  22  23
HETATM   23  C4  UNL     1      42.627   8.356  12.543  1.00  0.00     0.071 C 
BRANCH  23  24
HETATM   24  C3  UNL     1      41.187   8.137  13.001  1.00  0.00     0.172 C 
BRANCH  24  25
HETATM   25  O1  UNL     1      40.818   9.270  13.716  1.00  0.00    -0.391 OA
BRANCH  25  26
HETATM   26  C2  UNL     1      41.176  10.452  13.115  1.00  0.00     0.163 C 
HETATM   27  C1  UNL     1      40.781  11.625  13.972  1.00  0.00     0.033 C 
ENDBRANCH  25  26
ENDBRANCH  24  25
ENDBRANCH  23  24
ENDBRANCH  22  23
ENDBRANCH  20  22
ENDBRANCH   1  20
TORSDOF 11
ENDMDL
MODEL 3
REMARK VINA RESULT: -6.226563453      1.906      3.849
REMARK  11 active torsions:
REMARK  status: ('A' for Active; 'I' for Inactive)
REMARK    1  A    between atoms: C2_2  and  O1_3 
REMARK    2  A    between atoms: O1_3  and  C3_4 
REMARK    3  A    between atoms: C3_4  and  C4_5 
REMARK    4  A    between atoms: C4_5  and  C5_6 
REMARK    5  A    between atoms: C5_6  and  N1_7 
REMARK    6  A    between atoms: N1_7  and  C6_9 
REMARK    7  A    between atoms: C9_16  and  N4_17 
REMARK    8  A    between atoms: N4_17  and  C10_19 
REMARK    9  A    between atoms: C10_19  and  C11_20 
REMARK   10  A    between atoms: C11_20  and  C12_21 
REMARK   11  A    between atoms: C12_21  and  N5_22 
ROOT
HETATM    1  C6  UNL     1      46.749   6.731  14.199  1.00  0.00     0.078 A 
HETATM    2  C7  UNL     1      47.821   6.052  14.775  1.00  0.00     0.052 A 
HETATM    3  C8  UNL     1      47.753   4.706  14.942  1.00  0.00     0.109 A 
HETATM    4  N2  UNL     1      46.665   4.031  14.558  1.00  0.00    -0.310 N 
ATOM      5  H2  UNL     1      46.624   3.021  14.688  1.00  0.00     0.186 HD
HETATM    6  N3  UNL     1      45.648   4.663  14.013  1.00  0.00    -0.284 N 
ATOM      7  H3  UNL     1      44.836   4.115  13.731  1.00  0.00     0.188 HD
HETATM    8  C9  UNL     1      45.622   6.017  13.804  1.00  0.00     0.143 A 
ENDROOT
BRANCH   8   9
HETATM    9  N4  UNL     1      44.594   6.532  13.283  1.00  0.00    -0.373 N 
ATOM     10  H4  UNL     1      44.619   7.544  13.166  1.00  0.00     0.161 HD
BRANCH   9  11
HETATM   11  C10 UNL     1      43.415   5.891  12.841  1.00  0.00     0.123 C 
BRANCH  11  12
HETATM   12  C11 UNL     1      42.259   6.872  13.205  1.00  0.00     0.039 C 
BRANCH  12  13
HETATM   13  C12 UNL     1      42.706   8.198  12.653  1.00  0.00     0.118 C 
BRANCH  13  14
HETATM   14  N5  UNL     1      41.648   9.137  12.437  1.00  0.00    -0.412 N 
HETATM   15  C13 UNL     1      42.026  10.494  12.631  1.00  0.00     0.117 C 
HETATM   16  C14 UNL     1      41.025  11.166  13.546  1.00  0.00     0.019 C 
HETATM   17  C15 UNL     1      39.680  11.131  12.835  1.00  0.00     0.003 C 
HETATM   18  C16 UNL     1      39.287   9.683  12.698  1.00  0.00     0.019 C 
HETATM   19  C17 UNL     1      40.394   8.727  12.995  1.00  0.00     0.117 C 
ENDBRANCH  13  14
ENDBRANCH  12  13
ENDBRANCH  11  12
ENDBRANCH   9  11
ENDBRANCH   8   9
BRANCH   1  20
HETATM   20  N1  UNL     1      46.738   7.971  14.005  1.00  0.00    -0.366 N 
ATOM     21  H1  UNL     1      45.834   8.408  14.188  1.00  0.00     0.165 HD
BRANCH  20  22
HETATM   22  C5  UNL     1      47.724   8.868  13.587  1.00  0.00     0.063 C 
BRANCH  22  23
HETATM   23  C4  UNL     1      47.966   8.845  12.113  1.00  0.00     0.071 C 
BRANCH  23  24
HETATM   24  C3  UNL     1      46.718   9.357  11.398  1.00  0.00     0.172 C 
BRANCH  24  25
HETATM   25  O1  UNL     1      45.935   8.245  11.113  1.00  0.00    -0.391 OA
BRANCH  25  26
HETATM   26  C2  UNL     1      45.703   8.053   9.773  1.00  0.00     0.163 C 
HETATM   27  C1  UNL     1      44.538   7.123   9.562  1.00  0.00     0.033 C 
ENDBRANCH  25  26
ENDBRANCH  24  25
ENDBRANCH  23  24
ENDBRANCH  22  23
ENDBRANCH  20  22
ENDBRANCH   1  20
TORSDOF 11
ENDMDL
MODEL 4
REMARK VINA RESULT: -6.153311680      2.477      6.582
REMARK  11 active torsions:
REMARK  status: ('A' for Active; 'I' for Inactive)
REMARK    1  A    between atoms: C2_2  and  O1_3 
REMARK    2  A    between atoms: O1_3  and  C3_4 
REMARK    3  A    between atoms: C3_4  and  C4_5 
REMARK    4  A    between atoms: C4_5  and  C5_6 
REMARK    5  A    between atoms: C5_6  and  N1_7 
REMARK    6  A    between atoms: N1_7  and  C6_9 
REMARK    7  A    between atoms: C9_16  and  N4_17 
REMARK    8  A    between atoms: N4_17  and  C10_19 
REMARK    9  A    between atoms: C10_19  and  C11_20 
REMARK   10  A    between atoms: C11_20  and  C12_21 
REMARK   11  A    between atoms: C12_21  and  N5_22 
ROOT
HETATM    1  C6  UNL     1      43.672   8.594  12.462  1.00  0.00     0.078 A 
HETATM    2  C7  UNL     1      42.763   9.652  12.457  1.00  0.00     0.052 A 
HETATM    3  C8  UNL     1      41.466   9.424  12.789  1.00  0.00     0.109 A 
HETATM    4  N2  UNL     1      41.058   8.194  13.120  1.00  0.00    -0.310 N 
ATOM      5  H2  UNL     1      40.082   8.034  13.367  1.00  0.00     0.186 HD
HETATM    6  N3  UNL     1      41.908   7.191  13.128  1.00  0.00    -0.284 N 
ATOM      7  H3  UNL     1      41.562   6.267  13.386  1.00  0.00     0.188 HD
HETATM    8  C9  UNL     1      43.234   7.320  12.807  1.00  0.00     0.143 A 
ENDROOT
BRANCH   8   9
HETATM    9  N4  UNL     1      43.969   6.294  12.834  1.00  0.00    -0.373 N 
ATOM     10  H4  UNL     1      44.838   6.359  12.306  1.00  0.00     0.161 HD
BRANCH   9  11
HETATM   11  C10 UNL     1      43.746   5.067  13.499  1.00  0.00     0.123 C 
BRANCH  11  12
HETATM   12  C11 UNL     1      45.160   4.434  13.669  1.00  0.00     0.039 C 
BRANCH  12  13
HETATM   13  C12 UNL     1      45.802   5.241  14.765  1.00  0.00     0.118 C 
BRANCH  13  14
HETATM   14  N5  UNL     1      47.046   5.849  14.402  1.00  0.00    -0.412 N 
HETATM   15  C13 UNL     1      48.192   5.154  14.876  1.00  0.00     0.117 C 
HETATM   16  C14 UNL     1      49.116   6.130  15.571  1.00  0.00     0.019 C 
HETATM   17  C15 UNL     1      49.558   7.144  14.526  1.00  0.00     0.003 C 
HETATM   18  C16 UNL     1      48.328   7.897  14.090  1.00  0.00     0.019 C 
HETATM   19  C17 UNL     1      47.048   7.275  14.540  1.00  0.00     0.117 C 
ENDBRANCH  13  14
ENDBRANCH  12  13
ENDBRANCH  11  12
ENDBRANCH   9  11
ENDBRANCH   8   9
BRANCH   1  20
HETATM   20  N1  UNL     1      44.886   8.725  12.175  1.00  0.00    -0.366 N 
ATOM     21  H1  UNL     1      45.339   7.854  11.896  1.00  0.00     0.165 HD
BRANCH  20  22
HETATM   22  C5  UNL     1      45.738   9.832  12.162  1.00  0.00     0.063 C 
BRANCH  22  23
HETATM   23  C4  UNL     1      46.797   9.759  11.111  1.00  0.00     0.071 C 
BRANCH  23  24
HETATM   24  C3  UNL     1      46.139   9.465   9.765  1.00  0.00     0.172 C 
BRANCH  24  25
HETATM   25  O1  UNL     1      45.093  10.369   9.624  1.00  0.00    -0.391 OA
BRANCH  25  26
HETATM   26  C2  UNL     1      44.062   9.914   8.841  1.00  0.00     0.163 C 
HETATM   27  C1  UNL     1      44.167   8.426   8.635  1.00  0.00     0.033 C 
ENDBRANCH  25  26
ENDBRANCH  24  25
ENDBRANCH  23  24
ENDBRANCH  22  23
ENDBRANCH  20  22
ENDBRANCH   1  20
TORSDOF 11
ENDMDL
MODEL 5
REMARK VINA RESULT: -6.146968773      0.987      1.481
REMARK  11 active torsions:
REMARK  status: ('A' for Active; 'I' for Inactive)
REMARK    1  A    between atoms: C2_2  and  O1_3 
REMARK    2  A    between atoms: O1_3  and  C3_4 
REMARK    3  A    between atoms: C3_4  and  C4_5 
REMARK    4  A    between atoms: C4_5  and  C5_6 
REMARK    5  A    between atoms: C5_6  and  N1_7 
REMARK    6  A    between atoms: N1_7  and  C6_9 
REMARK    7  A    between atoms: C9_16  and  N4_17 
REMARK    8  A    between atoms: N4_17  and  C10_19 
REMARK    9  A    between atoms: C10_19  and  C11_20 
REMARK   10  A    between atoms: C11_20  and  C12_21 
REMARK   11  A    between atoms: C12_21  and  N5_22 
ROOT
HETATM    1  C6  UNL     1      46.731   8.021  13.677  1.00  0.00     0.078 A 
HETATM    2  C7  UNL     1      47.900   8.756  13.483  1.00  0.00     0.052 A 
HETATM    3  C8  UNL     1      47.919   9.758  12.566  1.00  0.00     0.109 A 
HETATM    4  N2  UNL     1      46.826  10.042  11.851  1.00  0.00    -0.310 N 
ATOM      5  H2  UNL     1      46.851  10.796  11.165  1.00  0.00     0.186 HD
HETATM    6  N3  UNL     1      45.719   9.355  12.027  1.00  0.00    -0.284 N 
ATOM      7  H3  UNL     1      44.904   9.601  11.465  1.00  0.00     0.188 HD
HETATM    8  C9  UNL     1      45.600   8.327  12.925  1.00  0.00     0.143 A 
ENDROOT
BRANCH   8   9
HETATM    9  N4  UNL     1      44.497   7.721  13.014  1.00  0.00    -0.373 N 
ATOM     10  H4  UNL     1      44.325   7.243  13.898  1.00  0.00     0.161 HD
BRANCH   9  11
HETATM   11  C10 UNL     1      43.469   7.615  12.050  1.00  0.00     0.123 C 
BRANCH  11  12
HETATM   12  C11 UNL     1      42.141   7.752  12.854  1.00  0.00     0.039 C 
BRANCH  12  13
HETATM   13  C12 UNL     1      41.831   9.224  12.818  1.00  0.00     0.118 C 
BRANCH  13  14
HETATM   14  N5  UNL     1      40.510   9.541  12.370  1.00  0.00    -0.412 N 
HETATM   15  C13 UNL     1      39.590   9.814  13.418  1.00  0.00     0.117 C 
HETATM   16  C14 UNL     1      38.336   8.994  13.210  1.00  0.00     0.019 C 
HETATM   17  C15 UNL     1      37.723   9.448  11.893  1.00  0.00     0.003 C 
HETATM   18  C16 UNL     1      38.699   9.091  10.803  1.00  0.00     0.019 C 
HETATM   19  C17 UNL     1      40.049   8.700  11.305  1.00  0.00     0.117 C 
ENDBRANCH  13  14
ENDBRANCH  12  13
ENDBRANCH  11  12
ENDBRANCH   9  11
ENDBRANCH   8   9
BRANCH   1  20
HETATM   20  N1  UNL     1      46.630   7.087  14.508  1.00  0.00    -0.366 N 
ATOM     21  H1  UNL     1      45.724   7.047  14.974  1.00  0.00     0.165 HD
BRANCH  20  22
HETATM   22  C5  UNL     1      47.520   6.090  14.917  1.00  0.00     0.063 C 
BRANCH  22  23
HETATM   23  C4  UNL     1      47.018   4.705  14.674  1.00  0.00     0.071 C 
BRANCH  23  24
HETATM   24  C3  UNL     1      45.492   4.713  14.738  1.00  0.00     0.172 C 
BRANCH  24  25
HETATM   25  O1  UNL     1      45.036   4.698  13.426  1.00  0.00    -0.391 OA
BRANCH  25  26
HETATM   26  C2  UNL     1      43.763   4.203  13.282  1.00  0.00     0.163 C 
HETATM   27  C1  UNL     1      42.969   4.402  14.545  1.00  0.00     0.033 C 
ENDBRANCH  25  26
ENDBRANCH  24  25
ENDBRANCH  23  24
ENDBRANCH  22  23
ENDBRANCH  20  22
ENDBRANCH   1  20
TORSDOF 11
ENDMDL
