MODEL 1
REMARK VINA RESULT: -6.706388836      0.000      0.000
REMARK  13 active torsions:
REMARK  status: ('A' for Active; 'I' for Inactive)
REMARK    1  A    between atoms: O1_3  and  C2_4 
REMARK    2  A    between atoms: C2_4  and  C3_5 
REMARK    3  A    between atoms: C4_6  and  C5_7 
REMARK    4  A    between atoms: C5_7  and  C6_8 
REMARK    5  A    between atoms: C6_8  and  N2_9 
REMARK    6  A    between atoms: N2_9  and  C7_11 
REMARK    7  A    between atoms: C7_11  and  C8_12 
REMARK    8  A    between atoms: C8_12  and  C9_13 
REMARK    9  A    between atoms: C9_13  and  C10_14 
REMARK   10  A    between atoms: C10_14  and  N3_16 
REMARK   11  A    between atoms: N3_16  and  C11_18 
REMARK   12  A    between atoms: C11_18  and  C12_19 
REMARK   13  A    between atoms: C12_19  and  C13_20 
ROOT
HETATM    1  N1  UNL     1      42.270   3.575  15.921  1.00  0.00    -0.164 NA
HETATM    2  C1  UNL     1      43.166   3.702  15.204  1.00  0.00     0.229 C 
HETATM    3  O1  UNL     1      44.222   3.831  14.373  1.00  0.00    -0.271 OA
ENDROOT
BRANCH   3   4
HETATM    4  C2  UNL     1      44.133   4.339  13.047  1.00  0.00     0.283 C 
BRANCH   4   5
HETATM    5  C3  UNL     1      43.288   5.528  12.990  1.00  0.00    -0.079 C 
HETATM    6  C4  UNL     1      42.555   6.514  12.946  1.00  0.00    -0.099 C 
BRANCH   6   7
HETATM    7  C5  UNL     1      41.723   7.704  12.925  1.00  0.00     0.138 C 
BRANCH   7   8
HETATM    8  C6  UNL     1      41.466   8.258  11.581  1.00  0.00     0.067 C 
BRANCH   8   9
HETATM    9  N2  UNL     1      42.103   7.714  10.457  1.00  0.00    -0.401 N 
ATOM     10  H2  UNL     1      41.752   6.847  10.050  1.00  0.00     0.158 HD
BRANCH   9  11
HETATM   11  C7  UNL     1      43.224   8.350   9.883  1.00  0.00     0.119 C 
BRANCH  11  12
HETATM   12  C8  UNL     1      44.399   7.397   9.702  1.00  0.00     0.026 C 
BRANCH  12  13
HETATM   13  C9  UNL     1      45.431   7.495  10.772  1.00  0.00     0.071 C 
BRANCH  13  14
HETATM   14  C10 UNL     1      46.299   8.671  10.438  1.00  0.00     0.073 C 
HETATM   15  S1  UNL     1      47.156   8.670   9.047  1.00  0.00    -0.066 SA
BRANCH  14  16
HETATM   16  N3  UNL     1      46.409   9.806  11.274  1.00  0.00    -0.384 N 
ATOM     17  H3  UNL     1      46.421  10.737  10.860  1.00  0.00     0.160 HD
BRANCH  16  18
HETATM   18  C11 UNL     1      46.504   9.661  12.701  1.00  0.00     0.125 C 
BRANCH  18  19
HETATM   19  C12 UNL     1      47.906   9.423  13.178  1.00  0.00     0.058 C 
BRANCH  19  20
HETATM   20  C13 UNL     1      48.044   8.103  13.839  1.00  0.00    -0.057 A 
HETATM   21  C14 UNL     1      46.912   7.322  14.066  1.00  0.00     0.007 A 
HETATM   22  C15 UNL     1      46.980   6.083  14.681  1.00  0.00     0.001 A 
HETATM   23  C16 UNL     1      48.239   5.614  15.082  1.00  0.00     0.000 A 
HETATM   24  C17 UNL     1      49.369   6.369  14.868  1.00  0.00     0.001 A 
HETATM   25  C18 UNL     1      49.260   7.616  14.243  1.00  0.00     0.007 A 
ENDBRANCH  19  20
ENDBRANCH  18  19
ENDBRANCH  16  18
ENDBRANCH  14  16
ENDBRANCH  13  14
ENDBRANCH  12  13
ENDBRANCH  11  12
ENDBRANCH   9  11
ENDBRANCH   8   9
ENDBRANCH   7   8
ENDBRANCH   6   7
ENDBRANCH   4   5
ENDBRANCH   3   4
TORSDOF 13
ENDMDL
MODEL 2
REMARK VINA RESULT: -6.457264990      0.664      1.240
REMARK  13 active torsions:
REMARK  status: ('A' for Active; 'I' for Inactive)
REMARK    1  A    between atoms: O1_3  and  C2_4 
REMARK    2  A    between atoms: C2_4  and  C3_5 
REMARK    3  A    between atoms: C4_6  and  C5_7 
REMARK    4  A    between atoms: C5_7  and  C6_8 
REMARK    5  A    between atoms: C6_8  and  N2_9 
REMARK    6  A    between atoms: N2_9  and  C7_11 
REMARK    7  A    between atoms: C7_11  and  C8_12 
REMARK    8  A    between atoms: C8_12  and  C9_13 
REMARK    9  A    between atoms: C9_13  and  C10_14 
REMARK   10  A    between atoms: C10_14  and  N3_16 
REMARK   11  A    between atoms: N3_16  and  C11_18 
REMARK   12  A    between atoms: C11_18  and  C12_19 
REMARK   13  A    between atoms: C12_19  and  C13_20 
ROOT
HETATM    1  N1  UNL     1      43.177   2.724  16.249  1.00  0.00    -0.164 NA
HETATM    2  C1  UNL     1      42.852   3.502  15.460  1.00  0.00     0.229 C 
HETATM    3  O1  UNL     1      42.454   4.417  14.551  1.00  0.00    -0.271 OA
ENDROOT
BRANCH   3   4
HETATM    4  C2  UNL     1      43.346   5.252  13.820  1.00  0.00     0.283 C 
BRANCH   4   5
HETATM    5  C3  UNL     1      42.672   6.452  13.336  1.00  0.00    -0.079 C 
HETATM    6  C4  UNL     1      42.127   7.477  12.928  1.00  0.00    -0.099 C 
BRANCH   6   7
HETATM    7  C5  UNL     1      41.456   8.656  12.413  1.00  0.00     0.138 C 
BRANCH   7   8
HETATM    8  C6  UNL     1      41.040   8.565  10.999  1.00  0.00     0.067 C 
BRANCH   8   9
HETATM    9  N2  UNL     1      41.901   8.010  10.042  1.00  0.00    -0.401 N 
ATOM     10  H2  UNL     1      41.595   7.207   9.493  1.00  0.00     0.158 HD
BRANCH   9  11
HETATM   11  C7  UNL     1      43.188   8.550   9.829  1.00  0.00     0.119 C 
BRANCH  11  12
HETATM   12  C8  UNL     1      44.263   7.471   9.763  1.00  0.00     0.026 C 
BRANCH  12  13
HETATM   13  C9  UNL     1      45.305   7.586  10.821  1.00  0.00     0.071 C 
BRANCH  13  14
HETATM   14  C10 UNL     1      46.277   8.633  10.366  1.00  0.00     0.073 C 
HETATM   15  S1  UNL     1      46.856   8.587   8.840  1.00  0.00    -0.066 SA
BRANCH  14  16
HETATM   16  N3  UNL     1      46.719   9.685  11.202  1.00  0.00    -0.384 N 
ATOM     17  H3  UNL     1      47.167  10.502  10.789  1.00  0.00     0.160 HD
BRANCH  16  18
HETATM   18  C11 UNL     1      46.544   9.614  12.627  1.00  0.00     0.125 C 
BRANCH  18  19
HETATM   19  C12 UNL     1      47.830   9.407  13.370  1.00  0.00     0.058 C 
BRANCH  19  20
HETATM   20  C13 UNL     1      47.911   8.050  13.962  1.00  0.00    -0.057 A 
HETATM   21  C14 UNL     1      49.119   7.597  14.488  1.00  0.00     0.007 A 
HETATM   22  C15 UNL     1      49.254   6.339  15.050  1.00  0.00     0.001 A 
HETATM   23  C16 UNL     1      48.127   5.506  15.082  1.00  0.00     0.000 A 
HETATM   24  C17 UNL     1      46.925   5.933  14.566  1.00  0.00     0.001 A 
HETATM   25  C18 UNL     1      46.827   7.212  14.008  1.00  0.00     0.007 A 
ENDBRANCH  19  20
ENDBRANCH  18  19
ENDBRANCH  16  18
ENDBRANCH  14  16
ENDBRANCH  13  14
ENDBRANCH  12  13
ENDBRANCH  11  12
ENDBRANCH   9  11
ENDBRANCH   8   9
ENDBRANCH   7   8
ENDBRANCH   6   7
ENDBRANCH   4   5
ENDBRANCH   3   4
TORSDOF 13
ENDMDL
MODEL 3
REMARK VINA RESULT: -6.376647959      1.846      5.957
REMARK  13 active torsions:
REMARK  status: ('A' for Active; 'I' for Inactive)
REMARK    1  A    between atoms: O1_3  and  C2_4 
REMARK    2  A    between atoms: C2_4  and  C3_5 
REMARK    3  A    between atoms: C4_6  and  C5_7 
REMARK    4  A    between atoms: C5_7  and  C6_8 
REMARK    5  A    between atoms: C6_8  and  N2_9 
REMARK    6  A    between atoms: N2_9  and  C7_11 
REMARK    7  A    between atoms: C7_11  and  C8_12 
REMARK    8  A    between atoms: C8_12  and  C9_13 
REMARK    9  A    between atoms: C9_13  and  C10_14 
REMARK   10  A    between atoms: C10_14  and  N3_16 
REMARK   11  A    between atoms: N3_16  and  C11_18 
REMARK   12  A    between atoms: C11_18  and  C12_19 
REMARK   13  A    between atoms: C12_19  and  C13_20 
ROOT
HETATM    1  N1  UNL     1      42.288   3.654  15.559  1.00  0.00    -0.164 NA
HETATM    2  C1  UNL     1      43.198   4.206  15.110  1.00  0.00     0.229 C 
HETATM    3  O1  UNL     1      44.258   4.869  14.600  1.00  0.00    -0.271 OA
ENDROOT
BRANCH   3   4
HETATM    4  C2  UNL     1      45.422   4.231  14.088  1.00  0.00     0.283 C 
BRANCH   4   5
HETATM    5  C3  UNL     1      46.636   4.916  14.521  1.00  0.00    -0.079 C 
HETATM    6  C4  UNL     1      47.648   5.516  14.877  1.00  0.00    -0.099 C 
BRANCH   6   7
HETATM    7  C5  UNL     1      48.842   6.199  15.343  1.00  0.00     0.138 C 
BRANCH   7   8
HETATM    8  C6  UNL     1      49.044   7.549  14.780  1.00  0.00     0.067 C 
BRANCH   8   9
HETATM    9  N2  UNL     1      48.485   7.891  13.541  1.00  0.00    -0.401 N 
ATOM     10  H2  UNL     1      48.498   7.213  12.778  1.00  0.00     0.158 HD
BRANCH   9  11
HETATM   11  C7  UNL     1      47.906   9.162  13.336  1.00  0.00     0.119 C 
BRANCH  11  12
HETATM   12  C8  UNL     1      46.618   9.084  12.523  1.00  0.00     0.026 C 
BRANCH  12  13
HETATM   13  C9  UNL     1      45.643   8.076  13.026  1.00  0.00     0.071 C 
BRANCH  13  14
HETATM   14  C10 UNL     1      45.030   7.422  11.824  1.00  0.00     0.073 C 
HETATM   15  S1  UNL     1      45.589   7.787  10.334  1.00  0.00    -0.066 SA
BRANCH  14  16
HETATM   16  N3  UNL     1      43.980   6.479  11.916  1.00  0.00    -0.384 N 
ATOM     17  H3  UNL     1      44.197   5.499  12.098  1.00  0.00     0.160 HD
BRANCH  16  18
HETATM   18  C11 UNL     1      42.611   6.885  11.757  1.00  0.00     0.125 C 
BRANCH  18  19
HETATM   19  C12 UNL     1      41.946   7.243  13.054  1.00  0.00     0.058 C 
BRANCH  19  20
HETATM   20  C13 UNL     1      41.289   8.570  12.986  1.00  0.00    -0.057 A 
HETATM   21  C14 UNL     1      42.067   9.722  12.900  1.00  0.00     0.007 A 
HETATM   22  C15 UNL     1      41.509  10.988  12.838  1.00  0.00     0.001 A 
HETATM   23  C16 UNL     1      40.111  11.094  12.863  1.00  0.00     0.000 A 
HETATM   24  C17 UNL     1      39.324   9.969  12.949  1.00  0.00     0.001 A 
HETATM   25  C18 UNL     1      39.925   8.707  13.010  1.00  0.00     0.007 A 
ENDBRANCH  19  20
ENDBRANCH  18  19
ENDBRANCH  16  18
ENDBRANCH  14  16
ENDBRANCH  13  14
ENDBRANCH  12  13
ENDBRANCH  11  12
ENDBRANCH   9  11
ENDBRANCH   8   9
ENDBRANCH   7   8
ENDBRANCH   6   7
ENDBRANCH   4   5
ENDBRANCH   3   4
TORSDOF 13
ENDMDL
MODEL 4
REMARK VINA RESULT: -6.227493828      2.797      5.465
REMARK  13 active torsions:
REMARK  status: ('A' for Active; 'I' for Inactive)
REMARK    1  A    between atoms: O1_3  and  C2_4 
REMARK    2  A    between atoms: C2_4  and  C3_5 
REMARK    3  A    between atoms: C4_6  and  C5_7 
REMARK    4  A    between atoms: C5_7  and  C6_8 
REMARK    5  A    between atoms: C6_8  and  N2_9 
REMARK    6  A    between atoms: N2_9  and  C7_11 
REMARK    7  A    between atoms: C7_11  and  C8_12 
REMARK    8  A    between atoms: C8_12  and  C9_13 
REMARK    9  A    between atoms: C9_13  and  C10_14 
REMARK   10  A    between atoms: C10_14  and  N3_16 
REMARK   11  A    between atoms: N3_16  and  C11_18 
REMARK   12  A    between atoms: C11_18  and  C12_19 
REMARK   13  A    between atoms: C12_19  and  C13_20 
ROOT
HETATM    1  N1  UNL     1      41.157  12.227  12.661  1.00  0.00    -0.164 NA
HETATM    2  C1  UNL     1      41.101  11.179  13.144  1.00  0.00     0.229 C 
HETATM    3  O1  UNL     1      41.032   9.964  13.728  1.00  0.00    -0.271 OA
ENDROOT
BRANCH   3   4
HETATM    4  C2  UNL     1      40.459   8.817  13.112  1.00  0.00     0.283 C 
BRANCH   4   5
HETATM    5  C3  UNL     1      41.426   7.727  13.019  1.00  0.00    -0.079 C 
HETATM    6  C4  UNL     1      42.234   6.806  12.914  1.00  0.00    -0.099 C 
BRANCH   6   7
HETATM    7  C5  UNL     1      43.224   5.748  12.820  1.00  0.00     0.138 C 
BRANCH   7   8
HETATM    8  C6  UNL     1      42.946   4.562  13.656  1.00  0.00     0.067 C 
BRANCH   8   9
HETATM    9  N2  UNL     1      43.979   3.677  13.993  1.00  0.00    -0.401 N 
ATOM     10  H2  UNL     1      43.756   2.791  14.448  1.00  0.00     0.158 HD
BRANCH   9  11
HETATM   11  C7  UNL     1      45.325   3.996  13.711  1.00  0.00     0.119 C 
BRANCH  11  12
HETATM   12  C8  UNL     1      45.953   4.860  14.799  1.00  0.00     0.026 C 
BRANCH  12  13
HETATM   13  C9  UNL     1      47.440   4.908  14.753  1.00  0.00     0.071 C 
BRANCH  13  14
HETATM   14  C10 UNL     1      47.836   6.352  14.836  1.00  0.00     0.073 C 
HETATM   15  S1  UNL     1      49.409   6.748  15.026  1.00  0.00    -0.066 SA
BRANCH  14  16
HETATM   16  N3  UNL     1      46.901   7.410  14.745  1.00  0.00    -0.384 N 
ATOM     17  H3  UNL     1      46.065   7.395  15.329  1.00  0.00     0.160 HD
BRANCH  16  18
HETATM   18  C11 UNL     1      47.116   8.506  13.841  1.00  0.00     0.125 C 
BRANCH  18  19
HETATM   19  C12 UNL     1      47.165   8.083  12.402  1.00  0.00     0.058 C 
BRANCH  19  20
HETATM   20  C13 UNL     1      45.918   8.436  11.683  1.00  0.00    -0.057 A 
HETATM   21  C14 UNL     1      45.506   7.667  10.597  1.00  0.00     0.007 A 
HETATM   22  C15 UNL     1      44.352   7.951   9.885  1.00  0.00     0.001 A 
HETATM   23  C16 UNL     1      43.586   9.054  10.286  1.00  0.00     0.000 A 
HETATM   24  C17 UNL     1      43.975   9.828  11.355  1.00  0.00     0.001 A 
HETATM   25  C18 UNL     1      45.147   9.508  12.049  1.00  0.00     0.007 A 
ENDBRANCH  19  20
ENDBRANCH  18  19
ENDBRANCH  16  18
ENDBRANCH  14  16
ENDBRANCH  13  14
ENDBRANCH  12  13
ENDBRANCH  11  12
ENDBRANCH   9  11
ENDBRANCH   8   9
ENDBRANCH   7   8
ENDBRANCH   6   7
ENDBRANCH   4   5
ENDBRANCH   3   4
TORSDOF 13
ENDMDL
MODEL 5
REMARK VINA RESULT: -6.008238430      2.777      5.514
REMARK  13 active torsions:
REMARK  status: ('A' for Active; 'I' for Inactive)
REMARK    1  A    between atoms: O1_3  and  C2_4 
REMARK    2  A    between atoms: C2_4  and  C3_5 
REMARK    3  A    between atoms: C4_6  and  C5_7 
REMARK    4  A    between atoms: C5_7  and  C6_8 
REMARK    5  A    between atoms: C6_8  and  N2_9 
REMARK    6  A    between atoms: N2_9  and  C7_11 
REMARK    7  A    between atoms: C7_11  and  C8_12 
REMARK    8  A    between atoms: C8_12  and  C9_13 
REMARK    9  A    between atoms: C9_13  and  C10_14 
REMARK   10  A    between atoms: C10_14  and  N3_16 
REMARK   11  A    between atoms: N3_16  and  C11_18 
REMARK   12  A    between atoms: C11_18  and  C12_19 
REMARK   13  A    between atoms: C12_19  and  C13_20 
ROOT
HETATM    1  N1  UNL     1      42.695  10.629  10.095  1.00  0.00    -0.164 NA
HETATM    2  C1  UNL     1      41.907  10.488  10.928  1.00  0.00     0.229 C 
HETATM    3  O1  UNL     1      40.971  10.319  11.885  1.00  0.00    -0.271 OA
ENDROOT
BRANCH   3   4
HETATM    4  C2  UNL     1      41.225   9.711  13.147  1.00  0.00     0.283 C 
BRANCH   4   5
HETATM    5  C3  UNL     1      41.701   8.340  12.988  1.00  0.00    -0.079 C 
HETATM    6  C4  UNL     1      42.107   7.190  12.828  1.00  0.00    -0.099 C 
BRANCH   6   7
HETATM    7  C5  UNL     1      42.614   5.838  12.683  1.00  0.00     0.138 C 
BRANCH   7   8
HETATM    8  C6  UNL     1      42.855   5.126  13.955  1.00  0.00     0.067 C 
BRANCH   8   9
HETATM    9  N2  UNL     1      43.614   3.947  13.973  1.00  0.00    -0.401 N 
ATOM     10  H2  UNL     1      43.159   3.058  14.182  1.00  0.00     0.158 HD
BRANCH   9  11
HETATM   11  C7  UNL     1      45.000   3.976  13.706  1.00  0.00     0.119 C 
BRANCH  11  12
HETATM   12  C8  UNL     1      45.763   4.834  14.709  1.00  0.00     0.026 C 
BRANCH  12  13
HETATM   13  C9  UNL     1      47.240   4.821  14.518  1.00  0.00     0.071 C 
BRANCH  13  14
HETATM   14  C10 UNL     1      47.752   6.155  14.975  1.00  0.00     0.073 C 
HETATM   15  S1  UNL     1      49.291   6.288  15.504  1.00  0.00    -0.066 SA
BRANCH  14  16
HETATM   16  N3  UNL     1      46.961   7.326  14.960  1.00  0.00    -0.384 N 
ATOM     17  H3  UNL     1      46.426   7.584  15.788  1.00  0.00     0.160 HD
BRANCH  16  18
HETATM   18  C11 UNL     1      46.903   8.159  13.790  1.00  0.00     0.125 C 
BRANCH  18  19
HETATM   19  C12 UNL     1      45.682   7.917  12.953  1.00  0.00     0.058 C 
BRANCH  19  20
HETATM   20  C13 UNL     1      45.963   8.093  11.508  1.00  0.00    -0.057 A 
HETATM   21  C14 UNL     1      47.185   8.626  11.102  1.00  0.00     0.007 A 
HETATM   22  C15 UNL     1      47.501   8.816   9.767  1.00  0.00     0.001 A 
HETATM   23  C16 UNL     1      46.547   8.456   8.805  1.00  0.00     0.000 A 
HETATM   24  C17 UNL     1      45.333   7.930   9.184  1.00  0.00     0.001 A 
HETATM   25  C18 UNL     1      45.051   7.751  10.543  1.00  0.00     0.007 A 
ENDBRANCH  19  20
ENDBRANCH  18  19
ENDBRANCH  16  18
ENDBRANCH  14  16
ENDBRANCH  13  14
ENDBRANCH  12  13
ENDBRANCH  11  12
ENDBRANCH   9  11
ENDBRANCH   8   9
ENDBRANCH   7   8
ENDBRANCH   6   7
ENDBRANCH   4   5
ENDBRANCH   3   4
TORSDOF 13
ENDMDL
