MODEL 1
REMARK VINA RESULT: -7.012963845      0.000      0.000
REMARK  9 active torsions:
REMARK  status: ('A' for Active; 'I' for Inactive)
REMARK    1  A    between atoms: C2_3  and  C3_4 
REMARK    2  A    between atoms: C4_5  and  C5_6 
REMARK    3  A    between atoms: C5_6  and  C6_7 
REMARK    4  A    between atoms: C6_7  and  C7_8 
REMARK    5  A    between atoms: C7_8  and  N2_9 
REMARK    6  A    between atoms: C12_17  and  O1_18 
REMARK    7  A    between atoms: O1_18  and  C13_19 
REMARK    8  A    between atoms: C13_19  and  C14_20 
REMARK    9  A    between atoms: C14_20  and  N5_21 
ROOT
HETATM    1  N1  UNL     1      44.781   6.569  10.867  1.00  0.00    -0.197 NA
HETATM    2  C1  UNL     1      45.053   7.168  11.799  1.00  0.00     0.063 C 
HETATM    3  C2  UNL     1      45.410   7.919  13.016  1.00  0.00     0.165 C 
ENDROOT
BRANCH   3   4
HETATM    4  C3  UNL     1      46.799   7.707  13.414  1.00  0.00    -0.005 A 
HETATM    5  C4  UNL     1      47.138   6.648  14.214  1.00  0.00    -0.048 A 
HETATM    6  C9  UNL     1      48.489   6.446  14.531  1.00  0.00     0.008 A 
HETATM    7  C10 UNL     1      49.450   7.302  14.042  1.00  0.00     0.003 A 
HETATM    8  C11 UNL     1      49.061   8.372  13.229  1.00  0.00     0.037 A 
HETATM    9  C12 UNL     1      47.750   8.591  12.906  1.00  0.00     0.076 A 
BRANCH   5  10
HETATM   10  C5  UNL     1      46.147   5.710  14.793  1.00  0.00     0.041 C 
BRANCH  10  11
HETATM   11  C6  UNL     1      46.297   4.293  14.356  1.00  0.00     0.024 C 
BRANCH  11  12
HETATM   12  C7  UNL     1      44.986   3.897  13.656  1.00  0.00     0.122 C 
BRANCH  12  13
HETATM   13  N2  UNL     1      44.017   3.428  14.584  1.00  0.00    -0.367 N 
HETATM   14  C8  UNL     1      42.932   4.075  14.825  1.00  0.00     0.196 C 
HETATM   15  N3  UNL     1      42.055   3.490  15.775  1.00  0.00    -0.067 NA
HETATM   16  N4  UNL     1      42.622   5.298  14.178  1.00  0.00    -0.067 NA
ATOM     17  H2  UNL     1      44.188   2.550  15.074  1.00  0.00     0.161 HD
ENDBRANCH  12  13
ENDBRANCH  11  12
ENDBRANCH  10  11
ENDBRANCH   5  10
BRANCH   9  18
HETATM   18  O1  UNL     1      47.350   9.606  12.135  1.00  0.00    -0.349 OA
BRANCH  18  19
HETATM   19  C13 UNL     1      47.708  10.178  10.955  1.00  0.00     0.206 C 
BRANCH  19  20
HETATM   20  C14 UNL     1      46.833   9.912   9.780  1.00  0.00     0.299 C 
BRANCH  20  21
HETATM   21  N5  UNL     1      47.134   8.611   9.206  1.00  0.00     0.090 N 
HETATM   22  C15 UNL     1      48.566   8.388   9.132  1.00  0.00     0.272 C 
HETATM   23  C16 UNL     1      48.952   8.200   7.706  1.00  0.00     0.032 C 
HETATM   24  C17 UNL     1      47.726   8.481   6.905  1.00  0.00     0.032 C 
HETATM   25  C18 UNL     1      46.606   8.409   7.892  1.00  0.00     0.272 C 
ENDBRANCH  20  21
ENDBRANCH  19  20
ENDBRANCH  18  19
ENDBRANCH   9  18
ENDBRANCH   3   4
TORSDOF 9
ENDMDL
MODEL 2
REMARK VINA RESULT: -6.893279252      0.980      1.543
REMARK  9 active torsions:
REMARK  status: ('A' for Active; 'I' for Inactive)
REMARK    1  A    between atoms: C2_3  and  C3_4 
REMARK    2  A    between atoms: C4_5  and  C5_6 
REMARK    3  A    between atoms: C5_6  and  C6_7 
REMARK    4  A    between atoms: C6_7  and  C7_8 
REMARK    5  A    between atoms: C7_8  and  N2_9 
REMARK    6  A    between atoms: C12_17  and  O1_18 
REMARK    7  A    between atoms: O1_18  and  C13_19 
REMARK    8  A    between atoms: C13_19  and  C14_20 
REMARK    9  A    between atoms: C14_20  and  N5_21 
ROOT
HETATM    1  N1  UNL     1      44.565   6.478  10.650  1.00  0.00    -0.197 NA
HETATM    2  C1  UNL     1      44.781   7.032  11.624  1.00  0.00     0.063 C 
HETATM    3  C2  UNL     1      45.069   7.725  12.893  1.00  0.00     0.165 C 
ENDROOT
BRANCH   3   4
HETATM    4  C3  UNL     1      46.493   7.716  13.221  1.00  0.00    -0.005 A 
HETATM    5  C4  UNL     1      47.000   6.783  14.085  1.00  0.00    -0.048 A 
HETATM    6  C9  UNL     1      48.380   6.772  14.334  1.00  0.00     0.008 A 
HETATM    7  C10 UNL     1      49.201   7.688  13.716  1.00  0.00     0.003 A 
HETATM    8  C11 UNL     1      48.643   8.625  12.841  1.00  0.00     0.037 A 
HETATM    9  C12 UNL     1      47.300   8.656  12.581  1.00  0.00     0.076 A 
BRANCH   5  10
HETATM   10  C5  UNL     1      46.163   5.791  14.802  1.00  0.00     0.041 C 
BRANCH  10  11
HETATM   11  C6  UNL     1      46.342   4.381  14.353  1.00  0.00     0.024 C 
BRANCH  11  12
HETATM   12  C7  UNL     1      45.036   3.962  13.657  1.00  0.00     0.122 C 
BRANCH  12  13
HETATM   13  N2  UNL     1      44.077   3.478  14.588  1.00  0.00    -0.367 N 
HETATM   14  C8  UNL     1      42.967   4.090  14.806  1.00  0.00     0.196 C 
HETATM   15  N3  UNL     1      42.104   3.495  15.763  1.00  0.00    -0.067 NA
HETATM   16  N4  UNL     1      42.618   5.286  14.129  1.00  0.00    -0.067 NA
ATOM     17  H2  UNL     1      44.276   2.618  15.100  1.00  0.00     0.161 HD
ENDBRANCH  12  13
ENDBRANCH  11  12
ENDBRANCH  10  11
ENDBRANCH   5  10
BRANCH   9  18
HETATM   18  O1  UNL     1      46.739   9.542  11.753  1.00  0.00    -0.349 OA
BRANCH  18  19
HETATM   19  C13 UNL     1      46.904   9.971  10.475  1.00  0.00     0.206 C 
BRANCH  19  20
HETATM   20  C14 UNL     1      47.019   8.928   9.418  1.00  0.00     0.299 C 
BRANCH  20  21
HETATM   21  N5  UNL     1      46.254   9.308   8.243  1.00  0.00     0.090 N 
HETATM   22  C15 UNL     1      44.893   9.669   8.595  1.00  0.00     0.272 C 
HETATM   23  C16 UNL     1      43.955   8.742   7.903  1.00  0.00     0.032 C 
HETATM   24  C17 UNL     1      44.804   7.706   7.249  1.00  0.00     0.032 C 
HETATM   25  C18 UNL     1      46.177   8.296   7.235  1.00  0.00     0.272 C 
ENDBRANCH  20  21
ENDBRANCH  19  20
ENDBRANCH  18  19
ENDBRANCH   9  18
ENDBRANCH   3   4
TORSDOF 9
ENDMDL
MODEL 3
REMARK VINA RESULT: -6.880006915      1.044      1.555
REMARK  9 active torsions:
REMARK  status: ('A' for Active; 'I' for Inactive)
REMARK    1  A    between atoms: C2_3  and  C3_4 
REMARK    2  A    between atoms: C4_5  and  C5_6 
REMARK    3  A    between atoms: C5_6  and  C6_7 
REMARK    4  A    between atoms: C6_7  and  C7_8 
REMARK    5  A    between atoms: C7_8  and  N2_9 
REMARK    6  A    between atoms: C12_17  and  O1_18 
REMARK    7  A    between atoms: O1_18  and  C13_19 
REMARK    8  A    between atoms: C13_19  and  C14_20 
REMARK    9  A    between atoms: C14_20  and  N5_21 
ROOT
HETATM    1  N1  UNL     1      44.528   6.490  10.587  1.00  0.00    -0.197 NA
HETATM    2  C1  UNL     1      44.691   7.013  11.588  1.00  0.00     0.063 C 
HETATM    3  C2  UNL     1      44.915   7.665  12.891  1.00  0.00     0.165 C 
ENDROOT
BRANCH   3   4
HETATM    4  C3  UNL     1      46.332   7.759  13.231  1.00  0.00    -0.005 A 
HETATM    5  C4  UNL     1      46.905   6.847  14.077  1.00  0.00    -0.048 A 
HETATM    6  C9  UNL     1      48.280   6.937  14.337  1.00  0.00     0.008 A 
HETATM    7  C10 UNL     1      49.031   7.929  13.748  1.00  0.00     0.003 A 
HETATM    8  C11 UNL     1      48.407   8.842  12.891  1.00  0.00     0.037 A 
HETATM    9  C12 UNL     1      47.068   8.775  12.621  1.00  0.00     0.076 A 
BRANCH   5  10
HETATM   10  C5  UNL     1      46.143   5.776  14.762  1.00  0.00     0.041 C 
BRANCH  10  11
HETATM   11  C6  UNL     1      46.355   4.407  14.212  1.00  0.00     0.024 C 
BRANCH  11  12
HETATM   12  C7  UNL     1      45.022   3.961  13.590  1.00  0.00     0.122 C 
BRANCH  12  13
HETATM   13  N2  UNL     1      44.113   3.491  14.577  1.00  0.00    -0.367 N 
HETATM   14  C8  UNL     1      42.997   4.084  14.814  1.00  0.00     0.196 C 
HETATM   15  N3  UNL     1      42.188   3.506  15.828  1.00  0.00    -0.067 NA
HETATM   16  N4  UNL     1      42.589   5.242  14.105  1.00  0.00    -0.067 NA
ATOM     17  H2  UNL     1      44.355   2.659  15.114  1.00  0.00     0.161 HD
ENDBRANCH  12  13
ENDBRANCH  11  12
ENDBRANCH  10  11
ENDBRANCH   5  10
BRANCH   9  18
HETATM   18  O1  UNL     1      46.446   9.634  11.810  1.00  0.00    -0.349 OA
BRANCH  18  19
HETATM   19  C13 UNL     1      46.431   9.941  10.486  1.00  0.00     0.206 C 
BRANCH  19  20
HETATM   20  C14 UNL     1      47.197   9.046   9.574  1.00  0.00     0.299 C 
BRANCH  20  21
HETATM   21  N5  UNL     1      48.294   9.770   8.955  1.00  0.00     0.090 N 
HETATM   22  C15 UNL     1      49.570   9.148   9.257  1.00  0.00     0.272 C 
HETATM   23  C16 UNL     1      50.418  10.123   9.998  1.00  0.00     0.032 C 
HETATM   24  C17 UNL     1      49.547  11.301  10.275  1.00  0.00     0.032 C 
HETATM   25  C18 UNL     1      48.389  11.143   9.344  1.00  0.00     0.272 C 
ENDBRANCH  20  21
ENDBRANCH  19  20
ENDBRANCH  18  19
ENDBRANCH   9  18
ENDBRANCH   3   4
TORSDOF 9
ENDMDL
MODEL 4
REMARK VINA RESULT: -6.787063988      1.964      2.507
REMARK  9 active torsions:
REMARK  status: ('A' for Active; 'I' for Inactive)
REMARK    1  A    between atoms: C2_3  and  C3_4 
REMARK    2  A    between atoms: C4_5  and  C5_6 
REMARK    3  A    between atoms: C5_6  and  C6_7 
REMARK    4  A    between atoms: C6_7  and  C7_8 
REMARK    5  A    between atoms: C7_8  and  N2_9 
REMARK    6  A    between atoms: C12_17  and  O1_18 
REMARK    7  A    between atoms: O1_18  and  C13_19 
REMARK    8  A    between atoms: C13_19  and  C14_20 
REMARK    9  A    between atoms: C14_20  and  N5_21 
ROOT
HETATM    1  N1  UNL     1      45.435   7.307  10.837  1.00  0.00    -0.197 NA
HETATM    2  C1  UNL     1      45.612   7.614  11.921  1.00  0.00     0.063 C 
HETATM    3  C2  UNL     1      45.844   7.986  13.329  1.00  0.00     0.165 C 
ENDROOT
BRANCH   3   4
HETATM    4  C3  UNL     1      47.173   7.597  13.795  1.00  0.00    -0.005 A 
HETATM    5  C4  UNL     1      47.357   6.412  14.456  1.00  0.00    -0.048 A 
HETATM    6  C9  UNL     1      48.655   6.048  14.841  1.00  0.00     0.008 A 
HETATM    7  C10 UNL     1      49.718   6.875  14.557  1.00  0.00     0.003 A 
HETATM    8  C11 UNL     1      49.487   8.077  13.881  1.00  0.00     0.037 A 
HETATM    9  C12 UNL     1      48.230   8.455  13.495  1.00  0.00     0.076 A 
BRANCH   5  10
HETATM   10  C5  UNL     1      46.249   5.495  14.815  1.00  0.00     0.041 C 
BRANCH  10  11
HETATM   11  C6  UNL     1      46.315   4.151  14.173  1.00  0.00     0.024 C 
BRANCH  11  12
HETATM   12  C7  UNL     1      44.937   3.884  13.545  1.00  0.00     0.122 C 
BRANCH  12  13
HETATM   13  N2  UNL     1      43.999   3.432  14.513  1.00  0.00    -0.367 N 
HETATM   14  C8  UNL     1      42.931   4.094  14.790  1.00  0.00     0.196 C 
HETATM   15  N3  UNL     1      42.084   3.525  15.777  1.00  0.00    -0.067 NA
HETATM   16  N4  UNL     1      42.610   5.315  14.146  1.00  0.00    -0.067 NA
ATOM     17  H2  UNL     1      44.179   2.556  15.003  1.00  0.00     0.161 HD
ENDBRANCH  12  13
ENDBRANCH  11  12
ENDBRANCH  10  11
ENDBRANCH   5  10
BRANCH   9  18
HETATM   18  O1  UNL     1      47.980   9.599  12.852  1.00  0.00    -0.349 OA
BRANCH  18  19
HETATM   19  C13 UNL     1      48.304  10.182  11.669  1.00  0.00     0.206 C 
BRANCH  19  20
HETATM   20  C14 UNL     1      49.153  11.405  11.725  1.00  0.00     0.299 C 
BRANCH  20  21
HETATM   21  N5  UNL     1      49.880  11.578  10.479  1.00  0.00     0.090 N 
HETATM   22  C15 UNL     1      50.464  10.327  10.034  1.00  0.00     0.272 C 
HETATM   23  C16 UNL     1      51.944  10.481   9.973  1.00  0.00     0.032 C 
HETATM   24  C17 UNL     1      52.245  11.821  10.555  1.00  0.00     0.032 C 
HETATM   25  C18 UNL     1      50.935  12.541  10.540  1.00  0.00     0.272 C 
ENDBRANCH  20  21
ENDBRANCH  19  20
ENDBRANCH  18  19
ENDBRANCH   9  18
ENDBRANCH   3   4
TORSDOF 9
ENDMDL
MODEL 5
REMARK VINA RESULT: -6.658982908      3.508      6.218
REMARK  9 active torsions:
REMARK  status: ('A' for Active; 'I' for Inactive)
REMARK    1  A    between atoms: C2_3  and  C3_4 
REMARK    2  A    between atoms: C4_5  and  C5_6 
REMARK    3  A    between atoms: C5_6  and  C6_7 
REMARK    4  A    between atoms: C6_7  and  C7_8 
REMARK    5  A    between atoms: C7_8  and  N2_9 
REMARK    6  A    between atoms: C12_17  and  O1_18 
REMARK    7  A    between atoms: O1_18  and  C13_19 
REMARK    8  A    between atoms: C13_19  and  C14_20 
REMARK    9  A    between atoms: C14_20  and  N5_21 
ROOT
HETATM    1  N1  UNL     1      45.887  10.229  12.905  1.00  0.00    -0.197 NA
HETATM    2  C1  UNL     1      45.827   9.197  12.424  1.00  0.00     0.063 C 
HETATM    3  C2  UNL     1      45.750   7.851  11.827  1.00  0.00     0.165 C 
ENDROOT
BRANCH   3   4
HETATM    4  C3  UNL     1      44.540   7.134  12.224  1.00  0.00    -0.005 A 
HETATM    5  C4  UNL     1      43.331   7.447  11.662  1.00  0.00    -0.048 A 
HETATM    6  C9  UNL     1      42.202   6.702  12.029  1.00  0.00     0.008 A 
HETATM    7  C10 UNL     1      42.317   5.676  12.940  1.00  0.00     0.003 A 
HETATM    8  C11 UNL     1      43.570   5.389  13.492  1.00  0.00     0.037 A 
HETATM    9  C12 UNL     1      44.687   6.102  13.150  1.00  0.00     0.076 A 
BRANCH   5  10
HETATM   10  C5  UNL     1      43.140   8.558  10.699  1.00  0.00     0.041 C 
BRANCH  10  11
HETATM   11  C6  UNL     1      41.931   9.396  10.942  1.00  0.00     0.024 C 
BRANCH  11  12
HETATM   12  C7  UNL     1      42.308  10.428  12.018  1.00  0.00     0.122 C 
BRANCH  12  13
HETATM   13  N2  UNL     1      41.520  10.275  13.191  1.00  0.00    -0.367 N 
HETATM   14  C8  UNL     1      40.827  11.243  13.679  1.00  0.00     0.196 C 
HETATM   15  N3  UNL     1      40.087  10.948  14.854  1.00  0.00    -0.067 NA
HETATM   16  N4  UNL     1      40.795  12.527  13.080  1.00  0.00    -0.067 NA
ATOM     17  H2  UNL     1      41.503   9.369  13.660  1.00  0.00     0.161 HD
ENDBRANCH  12  13
ENDBRANCH  11  12
ENDBRANCH  10  11
ENDBRANCH   5  10
BRANCH   9  18
HETATM   18  O1  UNL     1      45.894   5.853  13.664  1.00  0.00    -0.349 OA
BRANCH  18  19
HETATM   19  C13 UNL     1      46.416   5.282  14.781  1.00  0.00     0.206 C 
BRANCH  19  20
HETATM   20  C14 UNL     1      47.850   4.882  14.731  1.00  0.00     0.299 C 
BRANCH  20  21
HETATM   21  N5  UNL     1      48.698   5.967  15.193  1.00  0.00     0.090 N 
HETATM   22  C15 UNL     1      47.945   7.199  15.333  1.00  0.00     0.272 C 
HETATM   23  C16 UNL     1      48.521   8.224  14.418  1.00  0.00     0.032 C 
HETATM   24  C17 UNL     1      49.547   7.517  13.599  1.00  0.00     0.032 C 
HETATM   25  C18 UNL     1      49.813   6.248  14.343  1.00  0.00     0.272 C 
ENDBRANCH  20  21
ENDBRANCH  19  20
ENDBRANCH  18  19
ENDBRANCH   9  18
ENDBRANCH   3   4
TORSDOF 9
ENDMDL
