MODEL 1
REMARK VINA RESULT: -10.083746925      0.000      0.000
REMARK  12 active torsions:
REMARK  status: ('A' for Active; 'I' for Inactive)
REMARK    1  A    between atoms: C2_2  and  C3_3 
REMARK       I    between atoms: C3_3  and  N1_5 
REMARK    2  A    between atoms: C6_8  and  C7_9 
REMARK    3  A    between atoms: C6_8  and  C33_45 
REMARK    4  A    between atoms: C7_9  and  N2_10 
REMARK       I    between atoms: N2_10  and  C8_12 
REMARK    5  A    between atoms: C8_12  and  C9_14 
REMARK    6  A    between atoms: C15_20  and  C16_21 
REMARK       I    between atoms: C16_21  and  N3_23 
REMARK    7  A    between atoms: N3_23  and  C17_25 
REMARK    8  A    between atoms: C17_25  and  C18_26 
REMARK    9  A    between atoms: C17_25  and  C25_33 
REMARK   10  A    between atoms: C18_26  and  C19_27 
REMARK   11  A    between atoms: C25_33  and  C26_35 
REMARK   12  A    between atoms: C27_38  and  C28_39 
ROOT
HETATM    1  C9  UNL     1       9.978  23.710   4.739  1.00  0.00     0.005 C 
HETATM    2  C10 UNL     1       9.925  24.663   3.574  1.00  0.00     0.021 C 
HETATM    3  C11 UNL     1      10.847  24.436   2.449  1.00  0.00     0.014 C 
HETATM    4  C12 UNL     1      10.020  23.222   2.116  1.00  0.00    -0.012 C 
HETATM    5  C13 UNL     1       8.854  24.030   2.645  1.00  0.00     0.014 C 
HETATM    6  C14 UNL     1      10.253  22.045   2.976  1.00  0.00     0.023 C 
HETATM    7  C15 UNL     1      10.329  22.327   4.472  1.00  0.00     0.113 C 
ENDROOT
BRANCH   7   8
HETATM    8  C16 UNL     1      11.515  21.679   4.992  1.00  0.00     0.226 C 
HETATM    9  O3  UNL     1      11.476  20.913   6.029  1.00  0.00    -0.273 OA
HETATM   10  N3  UNL     1      12.788  21.820   4.409  1.00  0.00    -0.349 N 
ATOM     11  H3  UNL     1      12.924  22.429   3.602  1.00  0.00     0.163 HD
BRANCH  10  12
HETATM   12  C17 UNL     1      13.911  21.079   4.979  1.00  0.00     0.162 C 
BRANCH  12  13
HETATM   13  C18 UNL     1      14.895  20.720   3.881  1.00  0.00     0.038 C 
BRANCH  13  14
HETATM   14  C19 UNL     1      15.691  19.487   4.106  1.00  0.00    -0.012 C 
HETATM   15  C20 UNL     1      17.123  19.700   4.507  1.00  0.00     0.005 C 
HETATM   16  C21 UNL     1      17.825  18.344   4.573  1.00  0.00     0.000 C 
HETATM   17  C22 UNL     1      17.913  17.745   3.191  1.00  0.00     0.000 C 
HETATM   18  C23 UNL     1      17.114  18.598   2.240  1.00  0.00     0.000 C 
HETATM   19  C24 UNL     1      15.700  18.726   2.777  1.00  0.00     0.005 C 
ENDBRANCH  13  14
ENDBRANCH  12  13
BRANCH  12  20
HETATM   20  C25 UNL     1      14.609  21.907   5.957  1.00  0.00     0.205 C 
HETATM   21  O4  UNL     1      15.003  23.060   5.708  1.00  0.00    -0.288 OA
BRANCH  20  22
HETATM   22  C26 UNL     1      14.894  21.423   7.331  1.00  0.00     0.122 A 
HETATM   23  N4  UNL     1      15.757  20.509   7.733  1.00  0.00    -0.350 N 
HETATM   24  C27 UNL     1      15.870  20.230   8.986  1.00  0.00     0.024 A 
ATOM     25  H4  UNL     1      16.336  20.022   7.049  1.00  0.00     0.166 HD
HETATM   26  C32 UNL     1      15.066  20.914   9.870  1.00  0.00     0.077 A 
HETATM   27  S1  UNL     1      14.190  21.927   8.819  1.00  0.00    -0.079 SA
BRANCH  24  28
HETATM   28  C28 UNL     1      16.847  19.186   9.510  1.00  0.00    -0.008 C 
HETATM   29  C29 UNL     1      17.580  18.497   8.407  1.00  0.00     0.021 C 
HETATM   30  C30 UNL     1      16.095  18.187  10.343  1.00  0.00     0.021 C 
HETATM   31  C31 UNL     1      17.855  19.892  10.379  1.00  0.00     0.021 C 
ENDBRANCH  24  28
ENDBRANCH  20  22
ENDBRANCH  12  20
ENDBRANCH  10  12
ENDBRANCH   7   8
BRANCH   1  32
HETATM   32  C8  UNL     1      10.463  24.341   5.981  1.00  0.00     0.244 C 
HETATM   33  N2  UNL     1       9.566  25.095   6.752  1.00  0.00    -0.356 N 
ATOM     34  H2  UNL     1       8.608  25.169   6.409  1.00  0.00     0.162 HD
HETATM   35  O2  UNL     1      11.628  24.215   6.343  1.00  0.00    -0.268 OA
BRANCH  33  36
HETATM   36  C7  UNL     1       9.873  25.777   7.987  1.00  0.00     0.143 C 
BRANCH  36  37
HETATM   37  C6  UNL     1       8.809  26.873   8.235  1.00  0.00     0.072 C 
HETATM   38  C5  UNL     1       8.943  27.960   7.224  1.00  0.00     0.042 C 
HETATM   39  C4  UNL     1       7.674  28.038   6.464  1.00  0.00     0.127 C 
HETATM   40  N1  UNL     1       6.750  27.174   7.123  1.00  0.00    -0.347 N 
HETATM   41  C3  UNL     1       5.348  27.189   6.844  1.00  0.00     0.242 C 
HETATM   42  C34 UNL     1       7.442  26.332   8.053  1.00  0.00     0.146 C 
HETATM   43  O1  UNL     1       4.599  26.404   7.450  1.00  0.00    -0.268 OA
BRANCH  41  44
HETATM   44  C2  UNL     1       4.816  28.108   5.867  1.00  0.00     0.064 C 
HETATM   45  C1  UNL     1       4.085  29.163   6.215  1.00  0.00     0.017 C 
ENDBRANCH  41  44
BRANCH  37  46
HETATM   46  C33 UNL     1       8.943  27.414   9.598  1.00  0.00     0.243 C 
HETATM   47  N5  UNL     1       8.607  28.726   9.992  1.00  0.00    -0.061 NA
HETATM   48  O5  UNL     1       9.398  26.662  10.527  1.00  0.00    -0.276 OA
ENDBRANCH  37  46
ENDBRANCH  36  37
ENDBRANCH  33  36
ENDBRANCH   1  32
TORSDOF 12
ENDMDL
MODEL 2
REMARK VINA RESULT: -10.071087974      3.186     10.108
REMARK  12 active torsions:
REMARK  status: ('A' for Active; 'I' for Inactive)
REMARK    1  A    between atoms: C2_2  and  C3_3 
REMARK       I    between atoms: C3_3  and  N1_5 
REMARK    2  A    between atoms: C6_8  and  C7_9 
REMARK    3  A    between atoms: C6_8  and  C33_45 
REMARK    4  A    between atoms: C7_9  and  N2_10 
REMARK       I    between atoms: N2_10  and  C8_12 
REMARK    5  A    between atoms: C8_12  and  C9_14 
REMARK    6  A    between atoms: C15_20  and  C16_21 
REMARK       I    between atoms: C16_21  and  N3_23 
REMARK    7  A    between atoms: N3_23  and  C17_25 
REMARK    8  A    between atoms: C17_25  and  C18_26 
REMARK    9  A    between atoms: C17_25  and  C25_33 
REMARK   10  A    between atoms: C18_26  and  C19_27 
REMARK   11  A    between atoms: C25_33  and  C26_35 
REMARK   12  A    between atoms: C27_38  and  C28_39 
ROOT
HETATM    1  C9  UNL     1       9.714  25.972   7.834  1.00  0.00     0.005 C 
HETATM    2  C10 UNL     1      10.027  27.013   8.875  1.00  0.00     0.021 C 
HETATM    3  C11 UNL     1       9.401  28.339   8.741  1.00  0.00     0.014 C 
HETATM    4  C12 UNL     1       8.098  27.675   9.101  1.00  0.00    -0.012 C 
HETATM    5  C13 UNL     1       8.946  26.764   9.962  1.00  0.00     0.014 C 
HETATM    6  C14 UNL     1       7.464  26.901   8.015  1.00  0.00     0.023 C 
HETATM    7  C15 UNL     1       8.398  25.996   7.220  1.00  0.00     0.113 C 
ENDROOT
BRANCH   7   8
HETATM    8  C16 UNL     1       8.168  26.240   5.811  1.00  0.00     0.226 C 
HETATM    9  O3  UNL     1       8.700  27.241   5.196  1.00  0.00    -0.273 OA
HETATM   10  N3  UNL     1       7.367  25.409   5.006  1.00  0.00    -0.349 N 
ATOM     11  H3  UNL     1       6.881  24.608   5.410  1.00  0.00     0.163 HD
BRANCH  10  12
HETATM   12  C17 UNL     1       7.244  25.712   3.582  1.00  0.00     0.162 C 
BRANCH  12  13
HETATM   13  C18 UNL     1       7.275  24.423   2.782  1.00  0.00     0.038 C 
BRANCH  13  14
HETATM   14  C19 UNL     1       8.625  23.872   2.500  1.00  0.00    -0.012 C 
HETATM   15  C20 UNL     1       9.278  23.134   3.636  1.00  0.00     0.005 C 
HETATM   16  C21 UNL     1      10.698  22.748   3.222  1.00  0.00     0.000 C 
HETATM   17  C22 UNL     1      11.539  23.989   3.055  1.00  0.00     0.000 C 
HETATM   18  C23 UNL     1      10.647  25.199   3.169  1.00  0.00     0.000 C 
HETATM   19  C24 UNL     1       9.521  25.066   2.160  1.00  0.00     0.005 C 
ENDBRANCH  13  14
ENDBRANCH  12  13
BRANCH  12  20
HETATM   20  C25 UNL     1       5.969  26.374   3.323  1.00  0.00     0.205 C 
HETATM   21  O4  UNL     1       5.558  26.623   2.176  1.00  0.00    -0.288 OA
BRANCH  20  22
HETATM   22  C26 UNL     1       5.069  26.796   4.425  1.00  0.00     0.122 A 
HETATM   23  N4  UNL     1       5.037  27.936   5.088  1.00  0.00    -0.350 N 
HETATM   24  C27 UNL     1       4.163  28.123   6.017  1.00  0.00     0.024 A 
ATOM     25  H4  UNL     1       5.708  28.672   4.866  1.00  0.00     0.166 HD
HETATM   26  C32 UNL     1       3.280  27.100   6.281  1.00  0.00     0.077 A 
HETATM   27  S1  UNL     1       3.778  25.923   5.156  1.00  0.00    -0.079 SA
BRANCH  24  28
HETATM   28  C28 UNL     1       4.078  29.417   6.816  1.00  0.00    -0.008 C 
HETATM   29  C29 UNL     1       3.361  30.494   6.070  1.00  0.00     0.021 C 
HETATM   30  C30 UNL     1       5.468  29.863   7.172  1.00  0.00     0.021 C 
HETATM   31  C31 UNL     1       3.314  29.129   8.082  1.00  0.00     0.021 C 
ENDBRANCH  24  28
ENDBRANCH  20  22
ENDBRANCH  12  20
ENDBRANCH  10  12
ENDBRANCH   7   8
BRANCH   1  32
HETATM   32  C8  UNL     1      10.880  25.613   7.005  1.00  0.00     0.244 C 
HETATM   33  N2  UNL     1      11.453  24.341   7.155  1.00  0.00    -0.356 N 
ATOM     34  H2  UNL     1      11.024  23.718   7.840  1.00  0.00     0.162 HD
HETATM   35  O2  UNL     1      11.350  26.406   6.195  1.00  0.00    -0.268 OA
BRANCH  33  36
HETATM   36  C7  UNL     1      12.591  23.832   6.429  1.00  0.00     0.143 C 
BRANCH  36  37
HETATM   37  C6  UNL     1      12.813  22.350   6.816  1.00  0.00     0.072 C 
HETATM   38  C5  UNL     1      13.942  21.774   6.030  1.00  0.00     0.042 C 
HETATM   39  C4  UNL     1      14.987  21.338   6.984  1.00  0.00     0.127 C 
HETATM   40  N1  UNL     1      14.425  21.461   8.290  1.00  0.00    -0.347 N 
HETATM   41  C3  UNL     1      15.033  20.883   9.448  1.00  0.00     0.242 C 
HETATM   42  C34 UNL     1      13.218  22.230   8.235  1.00  0.00     0.146 C 
HETATM   43  O1  UNL     1      14.494  21.033  10.557  1.00  0.00    -0.268 OA
BRANCH  41  44
HETATM   44  C2  UNL     1      16.261  20.135   9.321  1.00  0.00     0.064 C 
HETATM   45  C1  UNL     1      16.501  19.044  10.045  1.00  0.00     0.017 C 
ENDBRANCH  41  44
BRANCH  37  46
HETATM   46  C33 UNL     1      11.580  21.576   6.593  1.00  0.00     0.243 C 
HETATM   47  N5  UNL     1      10.458  21.561   7.449  1.00  0.00    -0.061 NA
HETATM   48  O5  UNL     1      11.481  20.845   5.548  1.00  0.00    -0.276 OA
ENDBRANCH  37  46
ENDBRANCH  36  37
ENDBRANCH  33  36
ENDBRANCH   1  32
TORSDOF 12
ENDMDL
MODEL 3
REMARK VINA RESULT: -10.054121885      2.778      6.311
REMARK  12 active torsions:
REMARK  status: ('A' for Active; 'I' for Inactive)
REMARK    1  A    between atoms: C2_2  and  C3_3 
REMARK       I    between atoms: C3_3  and  N1_5 
REMARK    2  A    between atoms: C6_8  and  C7_9 
REMARK    3  A    between atoms: C6_8  and  C33_45 
REMARK    4  A    between atoms: C7_9  and  N2_10 
REMARK       I    between atoms: N2_10  and  C8_12 
REMARK    5  A    between atoms: C8_12  and  C9_14 
REMARK    6  A    between atoms: C15_20  and  C16_21 
REMARK       I    between atoms: C16_21  and  N3_23 
REMARK    7  A    between atoms: N3_23  and  C17_25 
REMARK    8  A    between atoms: C17_25  and  C18_26 
REMARK    9  A    between atoms: C17_25  and  C25_33 
REMARK   10  A    between atoms: C18_26  and  C19_27 
REMARK   11  A    between atoms: C25_33  and  C26_35 
REMARK   12  A    between atoms: C27_38  and  C28_39 
ROOT
HETATM    1  C9  UNL     1       8.902  27.621   6.998  1.00  0.00     0.005 C 
HETATM    2  C10 UNL     1       8.180  27.860   8.298  1.00  0.00     0.021 C 
HETATM    3  C11 UNL     1       7.898  26.699   9.158  1.00  0.00     0.014 C 
HETATM    4  C12 UNL     1       9.378  26.641   9.433  1.00  0.00    -0.012 C 
HETATM    5  C13 UNL     1       9.333  28.148   9.297  1.00  0.00     0.014 C 
HETATM    6  C14 UNL     1      10.198  26.059   8.353  1.00  0.00     0.023 C 
HETATM    7  C15 UNL     1       9.868  26.539   6.944  1.00  0.00     0.113 C 
ENDROOT
BRANCH   7   8
HETATM    8  C16 UNL     1       9.732  25.376   6.092  1.00  0.00     0.226 C 
HETATM    9  O3  UNL     1       8.593  24.806   5.893  1.00  0.00    -0.273 OA
HETATM   10  N3  UNL     1      10.815  24.788   5.413  1.00  0.00    -0.349 N 
ATOM     11  H3  UNL     1      11.760  25.151   5.532  1.00  0.00     0.163 HD
BRANCH  10  12
HETATM   12  C17 UNL     1      10.561  23.649   4.534  1.00  0.00     0.162 C 
BRANCH  12  13
HETATM   13  C18 UNL     1      10.955  24.005   3.112  1.00  0.00     0.038 C 
BRANCH  13  14
HETATM   14  C19 UNL     1       9.842  24.414   2.219  1.00  0.00    -0.012 C 
HETATM   15  C20 UNL     1       9.211  25.742   2.530  1.00  0.00     0.005 C 
HETATM   16  C21 UNL     1       8.012  25.949   1.605  1.00  0.00     0.000 C 
HETATM   17  C22 UNL     1       6.935  24.943   1.928  1.00  0.00     0.000 C 
HETATM   18  C23 UNL     1       7.478  23.954   2.926  1.00  0.00     0.000 C 
HETATM   19  C24 UNL     1       8.751  23.348   2.364  1.00  0.00     0.005 C 
ENDBRANCH  13  14
ENDBRANCH  12  13
BRANCH  12  20
HETATM   20  C25 UNL     1      11.368  22.507   4.954  1.00  0.00     0.205 C 
HETATM   21  O4  UNL     1      10.936  21.341   4.962  1.00  0.00    -0.288 OA
BRANCH  20  22
HETATM   22  C26 UNL     1      12.774  22.666   5.402  1.00  0.00     0.122 A 
HETATM   23  N4  UNL     1      13.347  22.257   6.518  1.00  0.00    -0.350 N 
HETATM   24  C27 UNL     1      14.599  22.482   6.725  1.00  0.00     0.024 A 
ATOM     25  H4  UNL     1      12.797  21.763   7.220  1.00  0.00     0.166 HD
HETATM   26  C32 UNL     1      15.300  23.154   5.749  1.00  0.00     0.077 A 
HETATM   27  S1  UNL     1      14.087  23.419   4.582  1.00  0.00    -0.079 SA
BRANCH  24  28
HETATM   28  C28 UNL     1      15.315  22.035   7.993  1.00  0.00    -0.008 C 
HETATM   29  C29 UNL     1      14.363  21.747   9.106  1.00  0.00     0.021 C 
HETATM   30  C30 UNL     1      16.293  23.101   8.402  1.00  0.00     0.021 C 
HETATM   31  C31 UNL     1      16.070  20.770   7.676  1.00  0.00     0.021 C 
ENDBRANCH  24  28
ENDBRANCH  20  22
ENDBRANCH  12  20
ENDBRANCH  10  12
ENDBRANCH   7   8
BRANCH   1  32
HETATM   32  C8  UNL     1       8.064  27.889   5.813  1.00  0.00     0.244 C 
HETATM   33  N2  UNL     1       6.725  27.471   5.822  1.00  0.00    -0.356 N 
ATOM     34  H2  UNL     1       6.393  26.998   6.662  1.00  0.00     0.162 HD
HETATM   35  O2  UNL     1       8.521  28.465   4.831  1.00  0.00    -0.268 OA
BRANCH  33  36
HETATM   36  C7  UNL     1       5.773  27.651   4.753  1.00  0.00     0.143 C 
BRANCH  36  37
HETATM   37  C6  UNL     1       4.513  26.804   5.053  1.00  0.00     0.072 C 
HETATM   38  C5  UNL     1       3.412  27.166   4.115  1.00  0.00     0.042 C 
HETATM   39  C4  UNL     1       3.052  25.955   3.343  1.00  0.00     0.127 C 
HETATM   40  N1  UNL     1       3.765  24.869   3.932  1.00  0.00    -0.347 N 
HETATM   41  C3  UNL     1       3.470  23.501   3.634  1.00  0.00     0.242 C 
HETATM   42  C34 UNL     1       4.775  25.366   4.817  1.00  0.00     0.146 C 
HETATM   43  O1  UNL     1       4.134  22.603   4.177  1.00  0.00    -0.268 OA
BRANCH  41  44
HETATM   44  C2  UNL     1       2.411  23.177   2.709  1.00  0.00     0.064 C 
HETATM   45  C1  UNL     1       2.658  22.714   1.486  1.00  0.00     0.017 C 
ENDBRANCH  41  44
BRANCH  37  46
HETATM   46  C33 UNL     1       4.089  27.001   6.450  1.00  0.00     0.243 C 
HETATM   47  N5  UNL     1       3.537  28.188   6.976  1.00  0.00    -0.061 NA
HETATM   48  O5  UNL     1       4.216  26.039   7.283  1.00  0.00    -0.276 OA
ENDBRANCH  37  46
ENDBRANCH  36  37
ENDBRANCH  33  36
ENDBRANCH   1  32
TORSDOF 12
ENDMDL
MODEL 4
REMARK VINA RESULT: -9.982023839      3.205     10.047
REMARK  12 active torsions:
REMARK  status: ('A' for Active; 'I' for Inactive)
REMARK    1  A    between atoms: C2_2  and  C3_3 
REMARK       I    between atoms: C3_3  and  N1_5 
REMARK    2  A    between atoms: C6_8  and  C7_9 
REMARK    3  A    between atoms: C6_8  and  C33_45 
REMARK    4  A    between atoms: C7_9  and  N2_10 
REMARK       I    between atoms: N2_10  and  C8_12 
REMARK    5  A    between atoms: C8_12  and  C9_14 
REMARK    6  A    between atoms: C15_20  and  C16_21 
REMARK       I    between atoms: C16_21  and  N3_23 
REMARK    7  A    between atoms: N3_23  and  C17_25 
REMARK    8  A    between atoms: C17_25  and  C18_26 
REMARK    9  A    between atoms: C17_25  and  C25_33 
REMARK   10  A    between atoms: C18_26  and  C19_27 
REMARK   11  A    between atoms: C25_33  and  C26_35 
REMARK   12  A    between atoms: C27_38  and  C28_39 
ROOT
HETATM    1  C9  UNL     1       9.532  26.098   7.828  1.00  0.00     0.005 C 
HETATM    2  C10 UNL     1      10.058  26.931   8.967  1.00  0.00     0.021 C 
HETATM    3  C11 UNL     1       9.675  28.352   9.022  1.00  0.00     0.014 C 
HETATM    4  C12 UNL     1       8.285  27.884   9.368  1.00  0.00    -0.012 C 
HETATM    5  C13 UNL     1       8.983  26.740  10.071  1.00  0.00     0.014 C 
HETATM    6  C14 UNL     1       7.491  27.373   8.233  1.00  0.00     0.023 C 
HETATM    7  C15 UNL     1       8.225  26.427   7.289  1.00  0.00     0.113 C 
ENDROOT
BRANCH   7   8
HETATM    8  C16 UNL     1       8.000  26.881   5.933  1.00  0.00     0.226 C 
HETATM    9  O3  UNL     1       8.193  28.107   5.582  1.00  0.00    -0.273 OA
HETATM   10  N3  UNL     1       7.570  26.030   4.897  1.00  0.00    -0.349 N 
ATOM     11  H3  UNL     1       7.363  25.049   5.085  1.00  0.00     0.163 HD
BRANCH  10  12
HETATM   12  C17 UNL     1       7.426  26.576   3.550  1.00  0.00     0.162 C 
BRANCH  12  13
HETATM   13  C18 UNL     1       8.370  25.856   2.605  1.00  0.00     0.038 C 
BRANCH  13  14
HETATM   14  C19 UNL     1       9.182  24.770   3.208  1.00  0.00    -0.012 C 
HETATM   15  C20 UNL     1      10.553  24.578   2.622  1.00  0.00     0.005 C 
HETATM   16  C21 UNL     1      11.198  23.351   3.265  1.00  0.00     0.000 C 
HETATM   17  C22 UNL     1      10.446  22.106   2.861  1.00  0.00     0.000 C 
HETATM   18  C23 UNL     1       9.202  22.511   2.114  1.00  0.00     0.000 C 
HETATM   19  C24 UNL     1       8.406  23.469   2.983  1.00  0.00     0.005 C 
ENDBRANCH  13  14
ENDBRANCH  12  13
BRANCH  12  20
HETATM   20  C25 UNL     1       6.062  26.368   3.072  1.00  0.00     0.205 C 
HETATM   21  O4  UNL     1       5.742  26.476   1.875  1.00  0.00    -0.288 OA
BRANCH  20  22
HETATM   22  C26 UNL     1       4.957  26.007   3.994  1.00  0.00     0.122 A 
HETATM   23  N4  UNL     1       4.348  26.749   4.900  1.00  0.00    -0.350 N 
HETATM   24  C27 UNL     1       3.389  26.255   5.606  1.00  0.00     0.024 A 
ATOM     25  H4  UNL     1       4.638  27.716   5.042  1.00  0.00     0.166 HD
HETATM   26  C32 UNL     1       3.034  24.944   5.377  1.00  0.00     0.077 A 
HETATM   27  S1  UNL     1       4.124  24.508   4.142  1.00  0.00    -0.079 SA
BRANCH  24  28
HETATM   28  C28 UNL     1       2.649  27.061   6.664  1.00  0.00    -0.008 C 
HETATM   29  C29 UNL     1       1.754  26.207   7.500  1.00  0.00     0.021 C 
HETATM   30  C30 UNL     1       1.857  28.144   5.987  1.00  0.00     0.021 C 
HETATM   31  C31 UNL     1       3.678  27.694   7.566  1.00  0.00     0.021 C 
ENDBRANCH  24  28
ENDBRANCH  20  22
ENDBRANCH  12  20
ENDBRANCH  10  12
ENDBRANCH   7   8
BRANCH   1  32
HETATM   32  C8  UNL     1      10.591  25.648   6.904  1.00  0.00     0.244 C 
HETATM   33  N2  UNL     1      11.444  24.609   7.305  1.00  0.00    -0.356 N 
ATOM     34  H2  UNL     1      11.285  24.211   8.230  1.00  0.00     0.162 HD
HETATM   35  O2  UNL     1      10.731  26.168   5.801  1.00  0.00    -0.268 OA
BRANCH  33  36
HETATM   36  C7  UNL     1      12.526  24.053   6.528  1.00  0.00     0.143 C 
BRANCH  36  37
HETATM   37  C6  UNL     1      12.703  22.563   6.909  1.00  0.00     0.072 C 
HETATM   38  C5  UNL     1      13.748  21.932   6.053  1.00  0.00     0.042 C 
HETATM   39  C4  UNL     1      14.834  21.450   6.937  1.00  0.00     0.127 C 
HETATM   40  N1  UNL     1      14.368  21.603   8.276  1.00  0.00    -0.347 N 
HETATM   41  C3  UNL     1      15.025  21.001   9.394  1.00  0.00     0.242 C 
HETATM   42  C34 UNL     1      13.197  22.428   8.298  1.00  0.00     0.146 C 
HETATM   43  O1  UNL     1      14.570  21.180  10.536  1.00  0.00    -0.268 OA
BRANCH  41  44
HETATM   44  C2  UNL     1      16.205  20.195   9.189  1.00  0.00     0.064 C 
HETATM   45  C1  UNL     1      16.569  19.245  10.048  1.00  0.00     0.017 C 
ENDBRANCH  41  44
BRANCH  37  46
HETATM   46  C33 UNL     1      11.423  21.848   6.775  1.00  0.00     0.243 C 
HETATM   47  N5  UNL     1      10.324  21.967   7.653  1.00  0.00    -0.061 NA
HETATM   48  O5  UNL     1      11.255  21.043   5.795  1.00  0.00    -0.276 OA
ENDBRANCH  37  46
ENDBRANCH  36  37
ENDBRANCH  33  36
ENDBRANCH   1  32
TORSDOF 12
ENDMDL
MODEL 5
REMARK VINA RESULT: -9.973718734      3.338     10.469
REMARK  12 active torsions:
REMARK  status: ('A' for Active; 'I' for Inactive)
REMARK    1  A    between atoms: C2_2  and  C3_3 
REMARK       I    between atoms: C3_3  and  N1_5 
REMARK    2  A    between atoms: C6_8  and  C7_9 
REMARK    3  A    between atoms: C6_8  and  C33_45 
REMARK    4  A    between atoms: C7_9  and  N2_10 
REMARK       I    between atoms: N2_10  and  C8_12 
REMARK    5  A    between atoms: C8_12  and  C9_14 
REMARK    6  A    between atoms: C15_20  and  C16_21 
REMARK       I    between atoms: C16_21  and  N3_23 
REMARK    7  A    between atoms: N3_23  and  C17_25 
REMARK    8  A    between atoms: C17_25  and  C18_26 
REMARK    9  A    between atoms: C17_25  and  C25_33 
REMARK   10  A    between atoms: C18_26  and  C19_27 
REMARK   11  A    between atoms: C25_33  and  C26_35 
REMARK   12  A    between atoms: C27_38  and  C28_39 
ROOT
HETATM    1  C9  UNL     1       8.290  26.095   8.645  1.00  0.00     0.005 C 
HETATM    2  C10 UNL     1       9.328  26.863   9.420  1.00  0.00     0.021 C 
HETATM    3  C11 UNL     1       9.809  28.137   8.860  1.00  0.00     0.014 C 
HETATM    4  C12 UNL     1       8.451  28.703   9.183  1.00  0.00    -0.012 C 
HETATM    5  C13 UNL     1       8.478  27.756  10.364  1.00  0.00     0.014 C 
HETATM    6  C14 UNL     1       7.372  28.322   8.252  1.00  0.00     0.023 C 
HETATM    7  C15 UNL     1       7.330  26.849   7.860  1.00  0.00     0.113 C 
ENDROOT
BRANCH   7   8
HETATM    8  C16 UNL     1       7.225  26.770   6.417  1.00  0.00     0.226 C 
HETATM    9  O3  UNL     1       8.111  27.293   5.639  1.00  0.00    -0.273 OA
HETATM   10  N3  UNL     1       6.170  26.116   5.756  1.00  0.00    -0.349 N 
ATOM     11  H3  UNL     1       5.406  25.697   6.286  1.00  0.00     0.163 HD
BRANCH  10  12
HETATM   12  C17 UNL     1       6.187  26.045   4.297  1.00  0.00     0.162 C 
BRANCH  12  13
HETATM   13  C18 UNL     1       6.269  24.596   3.857  1.00  0.00     0.038 C 
BRANCH  13  14
HETATM   14  C19 UNL     1       7.319  24.285   2.853  1.00  0.00    -0.012 C 
HETATM   15  C20 UNL     1       8.345  23.271   3.276  1.00  0.00     0.005 C 
HETATM   16  C21 UNL     1       9.412  23.165   2.187  1.00  0.00     0.000 C 
HETATM   17  C22 UNL     1      10.184  24.458   2.098  1.00  0.00     0.000 C 
HETATM   18  C23 UNL     1       9.521  25.482   2.982  1.00  0.00     0.000 C 
HETATM   19  C24 UNL     1       8.062  25.596   2.579  1.00  0.00     0.005 C 
ENDBRANCH  13  14
ENDBRANCH  12  13
BRANCH  12  20
HETATM   20  C25 UNL     1       4.955  26.612   3.757  1.00  0.00     0.205 C 
HETATM   21  O4  UNL     1       4.690  26.619   2.542  1.00  0.00    -0.288 OA
BRANCH  20  22
HETATM   22  C26 UNL     1       3.925  27.223   4.634  1.00  0.00     0.122 A 
HETATM   23  N4  UNL     1       3.997  28.314   5.373  1.00  0.00    -0.350 N 
HETATM   24  C27 UNL     1       2.980  28.696   6.067  1.00  0.00     0.024 A 
ATOM     25  H4  UNL     1       4.860  28.857   5.395  1.00  0.00     0.166 HD
HETATM   26  C32 UNL     1       1.837  27.929   6.005  1.00  0.00     0.077 A 
HETATM   27  S1  UNL     1       2.315  26.694   4.934  1.00  0.00    -0.079 SA
BRANCH  24  28
HETATM   28  C28 UNL     1       3.002  29.945   6.937  1.00  0.00    -0.008 C 
HETATM   29  C29 UNL     1       3.413  31.159   6.172  1.00  0.00     0.021 C 
HETATM   30  C30 UNL     1       3.933  29.716   8.095  1.00  0.00     0.021 C 
HETATM   31  C31 UNL     1       1.607  30.167   7.463  1.00  0.00     0.021 C 
ENDBRANCH  24  28
ENDBRANCH  20  22
ENDBRANCH  12  20
ENDBRANCH  10  12
ENDBRANCH   7   8
BRANCH   1  32
HETATM   32  C8  UNL     1       8.794  24.813   8.116  1.00  0.00     0.244 C 
HETATM   33  N2  UNL     1       9.455  24.804   6.878  1.00  0.00    -0.356 N 
ATOM     34  H2  UNL     1       9.556  25.700   6.401  1.00  0.00     0.162 HD
HETATM   35  O2  UNL     1       8.642  23.767   8.739  1.00  0.00    -0.268 OA
BRANCH  33  36
HETATM   36  C7  UNL     1      10.005  23.645   6.219  1.00  0.00     0.143 C 
BRANCH  36  37
HETATM   37  C6  UNL     1      11.548  23.764   6.197  1.00  0.00     0.072 C 
HETATM   38  C5  UNL     1      12.141  22.997   7.330  1.00  0.00     0.042 C 
HETATM   39  C4  UNL     1      13.022  21.951   6.762  1.00  0.00     0.127 C 
HETATM   40  N1  UNL     1      13.111  22.208   5.362  1.00  0.00    -0.347 N 
HETATM   41  C3  UNL     1      14.081  21.575   4.522  1.00  0.00     0.242 C 
HETATM   42  C34 UNL     1      12.107  23.151   4.970  1.00  0.00     0.146 C 
HETATM   43  O1  UNL     1      14.100  21.840   3.309  1.00  0.00    -0.268 OA
BRANCH  41  44
HETATM   44  C2  UNL     1      15.025  20.641   5.087  1.00  0.00     0.064 C 
HETATM   45  C1  UNL     1      15.671  19.750   4.339  1.00  0.00     0.017 C 
ENDBRANCH  41  44
BRANCH  37  46
HETATM   46  C33 UNL     1      11.950  25.179   6.263  1.00  0.00     0.243 C 
HETATM   47  N5  UNL     1      12.117  26.033   5.153  1.00  0.00    -0.061 NA
HETATM   48  O5  UNL     1      12.177  25.712   7.403  1.00  0.00    -0.276 OA
ENDBRANCH  37  46
ENDBRANCH  36  37
ENDBRANCH  33  36
ENDBRANCH   1  32
TORSDOF 12
ENDMDL
