MODEL 1
REMARK VINA RESULT: -10.394137948      0.000      0.000
REMARK  12 active torsions:
REMARK  status: ('A' for Active; 'I' for Inactive)
REMARK    1  A    between atoms: C2_2  and  N1_3 
REMARK       I    between atoms: N1_3  and  C3_5 
REMARK    2  A    between atoms: C3_5  and  C4_7 
REMARK    3  A    between atoms: C4_7  and  C5_8 
REMARK    4  A    between atoms: C5_8  and  N2_9 
REMARK    5  A    between atoms: C5_8  and  C13_20 
REMARK       I    between atoms: N2_9  and  C6_10 
REMARK    6  A    between atoms: C6_10  and  C7_12 
REMARK       I    between atoms: C13_20  and  N3_22 
REMARK    7  A    between atoms: N3_22  and  C14_24 
REMARK    8  A    between atoms: C14_24  and  C15_25 
REMARK    9  A    between atoms: C14_24  and  C22_32 
REMARK   10  A    between atoms: C15_25  and  C16_26 
REMARK   11  A    between atoms: C22_32  and  C23_34 
REMARK   12  A    between atoms: C23_34  and  C24_35 
REMARK       I    between atoms: C24_35  and  N4_37 
ROOT
HETATM    1  C14 UNL     1      12.330  22.646   5.107  1.00  0.00     0.178 C 
ENDROOT
BRANCH   1   2
HETATM    2  N3  UNL     1      13.317  21.502   5.286  1.00  0.00    -0.344 N 
HETATM    3  C13 UNL     1      14.273  21.212   4.314  1.00  0.00     0.255 C 
HETATM    4  O5  UNL     1      14.329  21.835   3.232  1.00  0.00    -0.270 OA
ATOM      5  H3  UNL     1      13.279  20.937   6.134  1.00  0.00     0.163 HD
BRANCH   3   6
HETATM    6  C5  UNL     1      15.273  20.146   4.536  1.00  0.00     0.267 C 
BRANCH   6   7
HETATM    7  C4  UNL     1      15.912  19.652   3.234  1.00  0.00     0.152 C 
BRANCH   7   8
HETATM    8  C3  UNL     1      16.976  18.650   3.552  1.00  0.00     0.221 C 
HETATM    9  N1  UNL     1      16.751  17.638   4.504  1.00  0.00    -0.361 N 
ATOM     10  H1  UNL     1      15.864  17.561   4.999  1.00  0.00     0.162 HD
HETATM   11  O1  UNL     1      18.063  18.733   2.961  1.00  0.00    -0.273 OA
BRANCH   9  12
HETATM   12  C2  UNL     1      17.837  16.709   4.750  1.00  0.00     0.118 C 
HETATM   13  C1  UNL     1      18.327  16.660   6.150  1.00  0.00     0.026 C 
ENDBRANCH   9  12
ENDBRANCH   7   8
ENDBRANCH   6   7
BRANCH   6  14
HETATM   14  N2  UNL     1      16.202  20.302   5.536  1.00  0.00    -0.399 NA
HETATM   15  C6  UNL     1      17.132  20.451   6.524  1.00  0.00     0.294 C 
HETATM   16  O2  UNL     1      18.354  20.102   6.492  1.00  0.00    -0.257 OA
BRANCH  15  17
HETATM   17  C7  UNL     1      16.786  21.093   7.856  1.00  0.00     0.125 C 
HETATM   18  C8  UNL     1      17.641  20.606   8.972  1.00  0.00     0.186 C 
HETATM   19  O3  UNL     1      16.911  19.816   9.825  1.00  0.00    -0.360 OA
HETATM   20  C9  UNL     1      15.590  19.789   9.399  1.00  0.00     0.264 C 
HETATM   21  O4  UNL     1      14.737  20.174  10.454  1.00  0.00    -0.361 OA
HETATM   22  C12 UNL     1      15.407  20.793   8.309  1.00  0.00     0.059 C 
HETATM   23  C10 UNL     1      14.788  21.554  10.525  1.00  0.00     0.171 C 
HETATM   24  C11 UNL     1      14.800  21.977   9.055  1.00  0.00     0.036 C 
ENDBRANCH  15  17
ENDBRANCH   6  14
ENDBRANCH   3   6
ENDBRANCH   1   2
BRANCH   1  25
HETATM   25  C15 UNL     1      11.200  22.078   4.372  1.00  0.00     0.008 C 
BRANCH  25  26
HETATM   26  C16 UNL     1      10.270  22.893   3.588  1.00  0.00    -0.081 C 
HETATM   27  C17 UNL     1      11.012  23.922   2.710  1.00  0.00     0.034 C 
HETATM   28  C18 UNL     1      10.179  25.166   2.560  1.00  0.00     0.004 C 
HETATM   29  C19 UNL     1       8.753  24.904   2.163  1.00  0.00     0.001 C 
HETATM   30  C20 UNL     1       8.118  23.750   2.881  1.00  0.00     0.004 C 
HETATM   31  C21 UNL     1       9.002  23.444   4.110  1.00  0.00     0.034 C 
ENDBRANCH  25  26
ENDBRANCH   1  25
BRANCH   1  32
HETATM   32  C22 UNL     1      12.140  23.119   6.487  1.00  0.00     0.161 C 
HETATM   33  O6  UNL     1      11.852  22.127   7.266  1.00  0.00    -0.295 OA
BRANCH  32  34
HETATM   34  C23 UNL     1      12.197  24.421   7.116  1.00  0.00     0.183 C 
BRANCH  34  35
HETATM   35  C24 UNL     1      11.248  25.380   6.443  1.00  0.00     0.226 C 
HETATM   36  O7  UNL     1      11.638  26.011   5.449  1.00  0.00    -0.273 OA
HETATM   37  N4  UNL     1       9.935  25.516   6.981  1.00  0.00    -0.351 N 
HETATM   38  C25 UNL     1       9.297  24.832   8.069  1.00  0.00     0.126 C 
HETATM   39  C34 UNL     1       8.989  26.464   6.428  1.00  0.00     0.135 C 
HETATM   40  C26 UNL     1       8.026  25.590   8.397  1.00  0.00     0.031 C 
HETATM   41  C27 UNL     1       8.099  26.853   7.572  1.00  0.00    -0.023 C 
HETATM   42  C28 UNL     1       8.611  27.978   8.409  1.00  0.00     0.011 C 
HETATM   43  C33 UNL     1       6.715  27.237   7.045  1.00  0.00     0.011 C 
HETATM   44  C29 UNL     1       7.419  28.722   9.031  1.00  0.00     0.005 C 
HETATM   45  C30 UNL     1       6.756  29.516   7.931  1.00  0.00    -0.019 C 
HETATM   46  C31 UNL     1       5.302  29.789   8.234  1.00  0.00     0.010 C 
HETATM   47  C32 UNL     1       6.839  28.691   6.632  1.00  0.00     0.005 C 
ENDBRANCH  34  35
ENDBRANCH  32  34
ENDBRANCH   1  32
TORSDOF 12
ENDMDL
MODEL 2
REMARK VINA RESULT: -10.385453142      1.606      3.788
REMARK  12 active torsions:
REMARK  status: ('A' for Active; 'I' for Inactive)
REMARK    1  A    between atoms: C2_2  and  N1_3 
REMARK       I    between atoms: N1_3  and  C3_5 
REMARK    2  A    between atoms: C3_5  and  C4_7 
REMARK    3  A    between atoms: C4_7  and  C5_8 
REMARK    4  A    between atoms: C5_8  and  N2_9 
REMARK    5  A    between atoms: C5_8  and  C13_20 
REMARK       I    between atoms: N2_9  and  C6_10 
REMARK    6  A    between atoms: C6_10  and  C7_12 
REMARK       I    between atoms: C13_20  and  N3_22 
REMARK    7  A    between atoms: N3_22  and  C14_24 
REMARK    8  A    between atoms: C14_24  and  C15_25 
REMARK    9  A    between atoms: C14_24  and  C22_32 
REMARK   10  A    between atoms: C15_25  and  C16_26 
REMARK   11  A    between atoms: C22_32  and  C23_34 
REMARK   12  A    between atoms: C23_34  and  C24_35 
REMARK       I    between atoms: C24_35  and  N4_37 
ROOT
HETATM    1  C14 UNL     1      13.253  22.518   5.910  1.00  0.00     0.178 C 
ENDROOT
BRANCH   1   2
HETATM    2  N3  UNL     1      14.242  21.576   6.579  1.00  0.00    -0.344 N 
HETATM    3  C13 UNL     1      15.417  22.052   7.159  1.00  0.00     0.255 C 
HETATM    4  O5  UNL     1      15.740  23.258   7.109  1.00  0.00    -0.270 OA
ATOM      5  H3  UNL     1      14.042  20.576   6.604  1.00  0.00     0.163 HD
BRANCH   3   6
HETATM    6  C5  UNL     1      16.330  21.133   7.872  1.00  0.00     0.267 C 
BRANCH   6   7
HETATM    7  C4  UNL     1      15.714  20.562   9.154  1.00  0.00     0.152 C 
BRANCH   7   8
HETATM    8  C3  UNL     1      16.662  19.582   9.767  1.00  0.00     0.221 C 
HETATM    9  N1  UNL     1      16.463  18.196   9.617  1.00  0.00    -0.361 N 
ATOM     10  H1  UNL     1      15.672  17.827   9.090  1.00  0.00     0.162 HD
HETATM   11  O1  UNL     1      17.627  20.016  10.414  1.00  0.00    -0.273 OA
BRANCH   9  12
HETATM   12  C2  UNL     1      17.430  17.317  10.244  1.00  0.00     0.118 C 
HETATM   13  C1  UNL     1      17.590  15.988   9.607  1.00  0.00     0.026 C 
ENDBRANCH   9  12
ENDBRANCH   7   8
ENDBRANCH   6   7
BRANCH   6  14
HETATM   14  N2  UNL     1      17.005  20.175   7.156  1.00  0.00    -0.399 NA
HETATM   15  C6  UNL     1      17.680  19.218   6.454  1.00  0.00     0.294 C 
HETATM   16  O2  UNL     1      18.340  18.239   6.924  1.00  0.00    -0.257 OA
BRANCH  15  17
HETATM   17  C7  UNL     1      17.718  19.220   4.936  1.00  0.00     0.125 C 
HETATM   18  C8  UNL     1      16.694  20.115   4.334  1.00  0.00     0.186 C 
HETATM   19  O3  UNL     1      15.708  19.377   3.727  1.00  0.00    -0.360 OA
HETATM   20  C9  UNL     1      16.030  18.030   3.818  1.00  0.00     0.264 C 
HETATM   21  O4  UNL     1      16.021  17.446   2.535  1.00  0.00    -0.361 OA
HETATM   22  C12 UNL     1      17.422  17.894   4.343  1.00  0.00     0.059 C 
HETATM   23  C10 UNL     1      17.215  17.792   1.930  1.00  0.00     0.171 C 
HETATM   24  C11 UNL     1      18.229  17.666   3.069  1.00  0.00     0.036 C 
ENDBRANCH  15  17
ENDBRANCH   6  14
ENDBRANCH   3   6
ENDBRANCH   1   2
BRANCH   1  25
HETATM   25  C15 UNL     1      12.639  21.743   4.832  1.00  0.00     0.008 C 
BRANCH  25  26
HETATM   26  C16 UNL     1      11.614  22.290   3.941  1.00  0.00    -0.081 C 
HETATM   27  C17 UNL     1      12.047  23.641   3.335  1.00  0.00     0.034 C 
HETATM   28  C18 UNL     1      10.843  24.517   3.118  1.00  0.00     0.004 C 
HETATM   29  C19 UNL     1       9.709  23.835   2.404  1.00  0.00     0.001 C 
HETATM   30  C20 UNL     1       9.449  22.431   2.867  1.00  0.00     0.004 C 
HETATM   31  C21 UNL     1      10.165  22.266   4.225  1.00  0.00     0.034 C 
ENDBRANCH  25  26
ENDBRANCH   1  25
BRANCH   1  32
HETATM   32  C22 UNL     1      12.432  22.972   7.043  1.00  0.00     0.161 C 
HETATM   33  O6  UNL     1      11.675  22.011   7.462  1.00  0.00    -0.295 OA
BRANCH  32  34
HETATM   34  C23 UNL     1      12.300  24.232   7.742  1.00  0.00     0.183 C 
BRANCH  34  35
HETATM   35  C24 UNL     1      11.430  25.185   6.964  1.00  0.00     0.226 C 
HETATM   36  O7  UNL     1      11.914  25.778   5.987  1.00  0.00    -0.273 OA
HETATM   37  N4  UNL     1      10.080  25.362   7.385  1.00  0.00    -0.351 N 
HETATM   38  C25 UNL     1       9.339  24.724   8.437  1.00  0.00     0.126 C 
HETATM   39  C34 UNL     1       9.202  26.308   6.726  1.00  0.00     0.135 C 
HETATM   40  C26 UNL     1       8.062  25.515   8.634  1.00  0.00     0.031 C 
HETATM   41  C27 UNL     1       8.229  26.749   7.780  1.00  0.00    -0.023 C 
HETATM   42  C28 UNL     1       8.692  27.891   8.623  1.00  0.00     0.011 C 
HETATM   43  C33 UNL     1       6.901  27.140   7.128  1.00  0.00     0.011 C 
HETATM   44  C29 UNL     1       7.468  28.676   9.120  1.00  0.00     0.005 C 
HETATM   45  C30 UNL     1       6.915  29.446   7.945  1.00  0.00    -0.019 C 
HETATM   46  C31 UNL     1       5.446  29.753   8.117  1.00  0.00     0.010 C 
HETATM   47  C32 UNL     1       7.088  28.579   6.683  1.00  0.00     0.005 C 
ENDBRANCH  34  35
ENDBRANCH  32  34
ENDBRANCH   1  32
TORSDOF 12
ENDMDL
MODEL 3
REMARK VINA RESULT: -10.243229854      1.593      2.555
REMARK  12 active torsions:
REMARK  status: ('A' for Active; 'I' for Inactive)
REMARK    1  A    between atoms: C2_2  and  N1_3 
REMARK       I    between atoms: N1_3  and  C3_5 
REMARK    2  A    between atoms: C3_5  and  C4_7 
REMARK    3  A    between atoms: C4_7  and  C5_8 
REMARK    4  A    between atoms: C5_8  and  N2_9 
REMARK    5  A    between atoms: C5_8  and  C13_20 
REMARK       I    between atoms: N2_9  and  C6_10 
REMARK    6  A    between atoms: C6_10  and  C7_12 
REMARK       I    between atoms: C13_20  and  N3_22 
REMARK    7  A    between atoms: N3_22  and  C14_24 
REMARK    8  A    between atoms: C14_24  and  C15_25 
REMARK    9  A    between atoms: C14_24  and  C22_32 
REMARK   10  A    between atoms: C15_25  and  C16_26 
REMARK   11  A    between atoms: C22_32  and  C23_34 
REMARK   12  A    between atoms: C23_34  and  C24_35 
REMARK       I    between atoms: C24_35  and  N4_37 
ROOT
HETATM    1  C14 UNL     1      13.003  22.932   5.478  1.00  0.00     0.178 C 
ENDROOT
BRANCH   1   2
HETATM    2  N3  UNL     1      13.801  21.755   6.018  1.00  0.00    -0.344 N 
HETATM    3  C13 UNL     1      15.103  21.918   6.489  1.00  0.00     0.255 C 
HETATM    4  O5  UNL     1      15.693  23.018   6.440  1.00  0.00    -0.270 OA
ATOM      5  H3  UNL     1      13.375  20.828   6.035  1.00  0.00     0.163 HD
BRANCH   3   6
HETATM    6  C5  UNL     1      15.837  20.779   7.081  1.00  0.00     0.267 C 
BRANCH   6   7
HETATM    7  C4  UNL     1      17.315  20.755   6.679  1.00  0.00     0.152 C 
BRANCH   7   8
HETATM    8  C3  UNL     1      17.505  19.805   5.539  1.00  0.00     0.221 C 
HETATM    9  N1  UNL     1      16.444  18.993   5.094  1.00  0.00    -0.361 N 
ATOM     10  H1  UNL     1      15.525  19.030   5.533  1.00  0.00     0.162 HD
HETATM   11  O1  UNL     1      18.618  19.745   4.996  1.00  0.00    -0.273 OA
BRANCH   9  12
HETATM   12  C2  UNL     1      16.715  18.101   3.983  1.00  0.00     0.118 C 
HETATM   13  C1  UNL     1      16.038  18.447   2.710  1.00  0.00     0.026 C 
ENDBRANCH   9  12
ENDBRANCH   7   8
ENDBRANCH   6   7
BRANCH   6  14
HETATM   14  N2  UNL     1      15.663  20.493   8.413  1.00  0.00    -0.399 NA
HETATM   15  C6  UNL     1      15.481  20.214   9.737  1.00  0.00     0.294 C 
HETATM   16  O2  UNL     1      14.516  20.584  10.477  1.00  0.00    -0.257 OA
BRANCH  15  17
HETATM   17  C7  UNL     1      16.476  19.377  10.521  1.00  0.00     0.125 C 
HETATM   18  C8  UNL     1      17.890  19.687  10.175  1.00  0.00     0.186 C 
HETATM   19  O3  UNL     1      18.451  18.646   9.477  1.00  0.00    -0.360 OA
HETATM   20  C9  UNL     1      17.528  17.614   9.384  1.00  0.00     0.264 C 
HETATM   21  O4  UNL     1      18.093  16.418   9.873  1.00  0.00    -0.361 OA
HETATM   22  C12 UNL     1      16.356  17.925  10.255  1.00  0.00     0.059 C 
HETATM   23  C10 UNL     1      18.029  16.482  11.253  1.00  0.00     0.171 C 
HETATM   24  C11 UNL     1      16.654  17.106  11.507  1.00  0.00     0.036 C 
ENDBRANCH  15  17
ENDBRANCH   6  14
ENDBRANCH   3   6
ENDBRANCH   1   2
BRANCH   1  25
HETATM   25  C15 UNL     1      12.246  22.406   4.342  1.00  0.00     0.008 C 
BRANCH  25  26
HETATM   26  C16 UNL     1      11.056  23.067   3.803  1.00  0.00    -0.081 C 
HETATM   27  C17 UNL     1       9.982  22.047   3.375  1.00  0.00     0.034 C 
HETATM   28  C18 UNL     1       9.208  22.578   2.199  1.00  0.00     0.004 C 
HETATM   29  C19 UNL     1       8.711  23.986   2.377  1.00  0.00     0.001 C 
HETATM   30  C20 UNL     1       9.710  24.914   3.003  1.00  0.00     0.004 C 
HETATM   31  C21 UNL     1      11.090  24.229   2.892  1.00  0.00     0.034 C 
ENDBRANCH  25  26
ENDBRANCH   1  25
BRANCH   1  32
HETATM   32  C22 UNL     1      12.289  23.406   6.675  1.00  0.00     0.161 C 
HETATM   33  O6  UNL     1      11.647  22.430   7.230  1.00  0.00    -0.295 OA
BRANCH  32  34
HETATM   34  C23 UNL     1      12.159  24.695   7.318  1.00  0.00     0.183 C 
BRANCH  34  35
HETATM   35  C24 UNL     1      11.173  25.563   6.579  1.00  0.00     0.226 C 
HETATM   36  O7  UNL     1      11.538  26.135   5.540  1.00  0.00    -0.273 OA
HETATM   37  N4  UNL     1       9.855  25.685   7.108  1.00  0.00    -0.351 N 
HETATM   38  C25 UNL     1       9.245  25.058   8.245  1.00  0.00     0.126 C 
HETATM   39  C34 UNL     1       8.872  26.551   6.489  1.00  0.00     0.135 C 
HETATM   40  C26 UNL     1       7.944  25.786   8.519  1.00  0.00     0.031 C 
HETATM   41  C27 UNL     1       7.967  26.986   7.604  1.00  0.00    -0.023 C 
HETATM   42  C28 UNL     1       8.432  28.190   8.355  1.00  0.00     0.011 C 
HETATM   43  C33 UNL     1       6.568  27.274   7.054  1.00  0.00     0.011 C 
HETATM   44  C29 UNL     1       7.211  28.929   8.924  1.00  0.00     0.005 C 
HETATM   45  C30 UNL     1       6.517  29.613   7.770  1.00  0.00    -0.019 C 
HETATM   46  C31 UNL     1       5.052  29.848   8.056  1.00  0.00     0.010 C 
HETATM   47  C32 UNL     1       6.634  28.699   6.535  1.00  0.00     0.005 C 
ENDBRANCH  34  35
ENDBRANCH  32  34
ENDBRANCH   1  32
TORSDOF 12
ENDMDL
MODEL 4
REMARK VINA RESULT: -10.067193671      1.541      2.497
REMARK  12 active torsions:
REMARK  status: ('A' for Active; 'I' for Inactive)
REMARK    1  A    between atoms: C2_2  and  N1_3 
REMARK       I    between atoms: N1_3  and  C3_5 
REMARK    2  A    between atoms: C3_5  and  C4_7 
REMARK    3  A    between atoms: C4_7  and  C5_8 
REMARK    4  A    between atoms: C5_8  and  N2_9 
REMARK    5  A    between atoms: C5_8  and  C13_20 
REMARK       I    between atoms: N2_9  and  C6_10 
REMARK    6  A    between atoms: C6_10  and  C7_12 
REMARK       I    between atoms: C13_20  and  N3_22 
REMARK    7  A    between atoms: N3_22  and  C14_24 
REMARK    8  A    between atoms: C14_24  and  C15_25 
REMARK    9  A    between atoms: C14_24  and  C22_32 
REMARK   10  A    between atoms: C15_25  and  C16_26 
REMARK   11  A    between atoms: C22_32  and  C23_34 
REMARK   12  A    between atoms: C23_34  and  C24_35 
REMARK       I    between atoms: C24_35  and  N4_37 
ROOT
HETATM    1  C14 UNL     1      12.138  23.632   4.762  1.00  0.00     0.178 C 
ENDROOT
BRANCH   1   2
HETATM    2  N3  UNL     1      12.991  22.637   5.534  1.00  0.00    -0.344 N 
HETATM    3  C13 UNL     1      14.046  21.961   4.922  1.00  0.00     0.255 C 
HETATM    4  O5  UNL     1      14.304  22.095   3.707  1.00  0.00    -0.270 OA
ATOM      5  H3  UNL     1      12.788  22.461   6.518  1.00  0.00     0.163 HD
BRANCH   3   6
HETATM    6  C5  UNL     1      14.914  21.055   5.705  1.00  0.00     0.267 C 
BRANCH   6   7
HETATM    7  C4  UNL     1      16.330  20.950   5.131  1.00  0.00     0.152 C 
BRANCH   7   8
HETATM    8  C3  UNL     1      16.527  19.592   4.537  1.00  0.00     0.221 C 
HETATM    9  N1  UNL     1      15.849  19.215   3.362  1.00  0.00    -0.361 N 
ATOM     10  H1  UNL     1      15.210  19.853   2.888  1.00  0.00     0.162 HD
HETATM   11  O1  UNL     1      17.297  18.802   5.104  1.00  0.00    -0.273 OA
BRANCH   9  12
HETATM   12  C2  UNL     1      16.097  17.880   2.854  1.00  0.00     0.118 C 
HETATM   13  C1  UNL     1      17.114  17.787   1.779  1.00  0.00     0.026 C 
ENDBRANCH   9  12
ENDBRANCH   7   8
ENDBRANCH   6   7
BRANCH   6  14
HETATM   14  N2  UNL     1      14.921  21.157   7.074  1.00  0.00    -0.399 NA
HETATM   15  C6  UNL     1      14.917  21.261   8.436  1.00  0.00     0.294 C 
HETATM   16  O2  UNL     1      13.940  21.581   9.182  1.00  0.00    -0.257 OA
BRANCH  15  17
HETATM   17  C7  UNL     1      16.163  20.988   9.260  1.00  0.00     0.125 C 
HETATM   18  C8  UNL     1      17.414  21.414   8.576  1.00  0.00     0.186 C 
HETATM   19  O3  UNL     1      18.142  20.318   8.183  1.00  0.00    -0.360 OA
HETATM   20  C9  UNL     1      17.499  19.168   8.618  1.00  0.00     0.264 C 
HETATM   21  O4  UNL     1      18.389  18.376   9.372  1.00  0.00    -0.361 OA
HETATM   22  C12 UNL     1      16.380  19.547   9.531  1.00  0.00     0.059 C 
HETATM   23  C10 UNL     1      18.450  18.937  10.634  1.00  0.00     0.171 C 
HETATM   24  C11 UNL     1      16.997  19.330  10.909  1.00  0.00     0.036 C 
ENDBRANCH  15  17
ENDBRANCH   6  14
ENDBRANCH   3   6
ENDBRANCH   1   2
BRANCH   1  25
HETATM   25  C15 UNL     1      10.983  22.871   4.285  1.00  0.00     0.008 C 
BRANCH  25  26
HETATM   26  C16 UNL     1       9.861  23.488   3.574  1.00  0.00    -0.081 C 
HETATM   27  C17 UNL     1      10.344  24.395   2.423  1.00  0.00     0.034 C 
HETATM   28  C18 UNL     1       9.392  25.546   2.242  1.00  0.00     0.004 C 
HETATM   29  C19 UNL     1       7.946  25.140   2.167  1.00  0.00     0.001 C 
HETATM   30  C20 UNL     1       7.552  24.089   3.162  1.00  0.00     0.004 C 
HETATM   31  C21 UNL     1       8.662  24.045   4.234  1.00  0.00     0.034 C 
ENDBRANCH  25  26
ENDBRANCH   1  25
BRANCH   1  32
HETATM   32  C22 UNL     1      11.946  24.712   5.742  1.00  0.00     0.161 C 
HETATM   33  O6  UNL     1      12.037  25.865   5.163  1.00  0.00    -0.295 OA
BRANCH  32  34
HETATM   34  C23 UNL     1      11.698  24.737   7.167  1.00  0.00     0.183 C 
BRANCH  34  35
HETATM   35  C24 UNL     1      10.220  24.654   7.454  1.00  0.00     0.226 C 
HETATM   36  O7  UNL     1       9.697  23.536   7.582  1.00  0.00    -0.273 OA
HETATM   37  N4  UNL     1       9.487  25.870   7.569  1.00  0.00    -0.351 N 
HETATM   38  C25 UNL     1       9.929  27.235   7.515  1.00  0.00     0.126 C 
HETATM   39  C34 UNL     1       8.054  25.869   7.781  1.00  0.00     0.135 C 
HETATM   40  C26 UNL     1       8.695  28.105   7.382  1.00  0.00     0.031 C 
HETATM   41  C27 UNL     1       7.558  27.138   7.153  1.00  0.00    -0.023 C 
HETATM   42  C28 UNL     1       7.259  27.042   5.693  1.00  0.00     0.011 C 
HETATM   43  C33 UNL     1       6.292  27.612   7.872  1.00  0.00     0.011 C 
HETATM   44  C29 UNL     1       6.167  28.062   5.336  1.00  0.00     0.005 C 
HETATM   45  C30 UNL     1       4.862  27.541   5.888  1.00  0.00    -0.019 C 
HETATM   46  C31 UNL     1       3.875  28.656   6.142  1.00  0.00     0.010 C 
HETATM   47  C32 UNL     1       5.158  26.837   7.227  1.00  0.00     0.005 C 
ENDBRANCH  34  35
ENDBRANCH  32  34
ENDBRANCH   1  32
TORSDOF 12
ENDMDL
MODEL 5
REMARK VINA RESULT: -10.065124983      1.777      3.981
REMARK  12 active torsions:
REMARK  status: ('A' for Active; 'I' for Inactive)
REMARK    1  A    between atoms: C2_2  and  N1_3 
REMARK       I    between atoms: N1_3  and  C3_5 
REMARK    2  A    between atoms: C3_5  and  C4_7 
REMARK    3  A    between atoms: C4_7  and  C5_8 
REMARK    4  A    between atoms: C5_8  and  N2_9 
REMARK    5  A    between atoms: C5_8  and  C13_20 
REMARK       I    between atoms: N2_9  and  C6_10 
REMARK    6  A    between atoms: C6_10  and  C7_12 
REMARK       I    between atoms: C13_20  and  N3_22 
REMARK    7  A    between atoms: N3_22  and  C14_24 
REMARK    8  A    between atoms: C14_24  and  C15_25 
REMARK    9  A    between atoms: C14_24  and  C22_32 
REMARK   10  A    between atoms: C15_25  and  C16_26 
REMARK   11  A    between atoms: C22_32  and  C23_34 
REMARK   12  A    between atoms: C23_34  and  C24_35 
REMARK       I    between atoms: C24_35  and  N4_37 
ROOT
HETATM    1  C14 UNL     1      13.657  22.610   5.868  1.00  0.00     0.178 C 
ENDROOT
BRANCH   1   2
HETATM    2  N3  UNL     1      14.715  21.678   6.441  1.00  0.00    -0.344 N 
HETATM    3  C13 UNL     1      15.843  22.177   7.090  1.00  0.00     0.255 C 
HETATM    4  O5  UNL     1      16.067  23.403   7.184  1.00  0.00    -0.270 OA
ATOM      5  H3  UNL     1      14.596  20.669   6.348  1.00  0.00     0.163 HD
BRANCH   3   6
HETATM    6  C5  UNL     1      16.823  21.258   7.708  1.00  0.00     0.267 C 
BRANCH   6   7
HETATM    7  C4  UNL     1      16.409  20.808   9.113  1.00  0.00     0.152 C 
BRANCH   7   8
HETATM    8  C3  UNL     1      17.310  19.705   9.567  1.00  0.00     0.221 C 
HETATM    9  N1  UNL     1      16.871  18.367   9.562  1.00  0.00    -0.361 N 
ATOM     10  H1  UNL     1      15.933  18.116   9.251  1.00  0.00     0.162 HD
HETATM   11  O1  UNL     1      18.453  19.994   9.951  1.00  0.00    -0.273 OA
BRANCH   9  12
HETATM   12  C2  UNL     1      17.810  17.361  10.018  1.00  0.00     0.118 C 
HETATM   13  C1  UNL     1      17.680  16.031   9.375  1.00  0.00     0.026 C 
ENDBRANCH   9  12
ENDBRANCH   7   8
ENDBRANCH   6   7
BRANCH   6  14
HETATM   14  N2  UNL     1      17.325  20.219   6.963  1.00  0.00    -0.399 NA
HETATM   15  C6  UNL     1      17.827  19.181   6.232  1.00  0.00     0.294 C 
HETATM   16  O2  UNL     1      18.382  18.126   6.671  1.00  0.00    -0.257 OA
BRANCH  15  17
HETATM   17  C7  UNL     1      17.773  19.175   4.714  1.00  0.00     0.125 C 
HETATM   18  C8  UNL     1      16.724  20.077   4.169  1.00  0.00     0.186 C 
HETATM   19  O3  UNL     1      15.696  19.345   3.628  1.00  0.00    -0.360 OA
HETATM   20  C9  UNL     1      16.011  17.996   3.707  1.00  0.00     0.264 C 
HETATM   21  O4  UNL     1      15.919  17.405   2.430  1.00  0.00    -0.361 OA
HETATM   22  C12 UNL     1      17.430  17.849   4.147  1.00  0.00     0.059 C 
HETATM   23  C10 UNL     1      17.077  17.736   1.752  1.00  0.00     0.171 C 
HETATM   24  C11 UNL     1      18.157  17.606   2.829  1.00  0.00     0.036 C 
ENDBRANCH  15  17
ENDBRANCH   6  14
ENDBRANCH   3   6
ENDBRANCH   1   2
BRANCH   1  25
HETATM   25  C15 UNL     1      13.021  21.862   4.783  1.00  0.00     0.008 C 
BRANCH  25  26
HETATM   26  C16 UNL     1      11.911  22.396   3.991  1.00  0.00    -0.081 C 
HETATM   27  C17 UNL     1      12.032  23.922   3.796  1.00  0.00     0.034 C 
HETATM   28  C18 UNL     1      10.661  24.540   3.726  1.00  0.00     0.004 C 
HETATM   29  C19 UNL     1       9.725  23.850   2.773  1.00  0.00     0.001 C 
HETATM   30  C20 UNL     1       9.787  22.352   2.830  1.00  0.00     0.004 C 
HETATM   31  C21 UNL     1      10.502  21.982   4.148  1.00  0.00     0.034 C 
ENDBRANCH  25  26
ENDBRANCH   1  25
BRANCH   1  32
HETATM   32  C22 UNL     1      12.875  22.972   7.061  1.00  0.00     0.161 C 
HETATM   33  O6  UNL     1      12.579  21.914   7.743  1.00  0.00    -0.295 OA
BRANCH  32  34
HETATM   34  C23 UNL     1      12.382  24.225   7.592  1.00  0.00     0.183 C 
BRANCH  34  35
HETATM   35  C24 UNL     1      10.875  24.262   7.558  1.00  0.00     0.226 C 
HETATM   36  O7  UNL     1      10.261  23.284   7.105  1.00  0.00    -0.273 OA
HETATM   37  N4  UNL     1      10.220  25.426   8.055  1.00  0.00    -0.351 N 
HETATM   38  C25 UNL     1      10.755  26.609   8.666  1.00  0.00     0.126 C 
HETATM   39  C34 UNL     1       8.779  25.561   7.998  1.00  0.00     0.135 C 
HETATM   40  C26 UNL     1       9.644  27.638   8.709  1.00  0.00     0.031 C 
HETATM   41  C27 UNL     1       8.521  27.036   7.899  1.00  0.00    -0.023 C 
HETATM   42  C28 UNL     1       8.545  27.585   6.510  1.00  0.00     0.011 C 
HETATM   43  C33 UNL     1       7.164  27.369   8.523  1.00  0.00     0.011 C 
HETATM   44  C29 UNL     1       7.631  28.819   6.442  1.00  0.00     0.005 C 
HETATM   45  C30 UNL     1       6.204  28.328   6.487  1.00  0.00    -0.019 C 
HETATM   46  C31 UNL     1       5.264  29.383   7.020  1.00  0.00     0.010 C 
HETATM   47  C32 UNL     1       6.149  27.106   7.426  1.00  0.00     0.005 C 
ENDBRANCH  34  35
ENDBRANCH  32  34
ENDBRANCH   1  32
TORSDOF 12
ENDMDL
