MODEL 1
REMARK VINA RESULT: -8.957615521      0.000      0.000
REMARK  15 active torsions:
REMARK  status: ('A' for Active; 'I' for Inactive)
REMARK    1  A    between atoms: O1_2  and  C2_3 
REMARK    2  A    between atoms: C2_3  and  C3_5 
REMARK    3  A    between atoms: C3_5  and  C4_6 
REMARK    4  A    between atoms: C4_6  and  C5_7 
REMARK    5  A    between atoms: C5_7  and  N1_8 
REMARK       I    between atoms: N1_8  and  C6_10 
REMARK    6  A    between atoms: C6_10  and  C7_12 
REMARK    7  A    between atoms: C7_12  and  C8_13 
REMARK    8  A    between atoms: C7_12  and  N2_20 
REMARK    9  A    between atoms: C8_13  and  C9_14 
REMARK   10  A    between atoms: N2_20  and  C15_22 
REMARK   11  A    between atoms: C15_22  and  C18_25 
REMARK   12  A    between atoms: C18_25  and  N3_27 
REMARK       I    between atoms: N3_27  and  C20_29 
REMARK       I    between atoms: C20_29  and  N4_31 
REMARK   13  A    between atoms: N4_31  and  C21_33 
REMARK   14  A    between atoms: C29_42  and  O5_43 
REMARK   15  A    between atoms: C29_42  and  N6_45 
ROOT
HETATM    1  C7  UNL     1       9.277  25.994   5.273  1.00  0.00     0.170 C 
ENDROOT
BRANCH   1   2
HETATM    2  C6  UNL     1       8.276  26.975   4.868  1.00  0.00     0.244 C 
HETATM    3  N1  UNL     1       6.911  26.595   4.919  1.00  0.00    -0.325 N 
ATOM      4  H1  UNL     1       6.621  25.914   4.217  1.00  0.00     0.169 HD
HETATM    5  O3  UNL     1       8.454  28.154   4.460  1.00  0.00    -0.271 OA
BRANCH   3   6
HETATM    6  C5  UNL     1       5.982  26.988   5.726  1.00  0.00     0.063 C 
HETATM    7  C29 UNL     1       4.668  27.291   5.250  1.00  0.00     0.161 C 
BRANCH   6   8
HETATM    8  C4  UNL     1       6.379  27.239   7.137  1.00  0.00     0.071 C 
BRANCH   8   9
HETATM    9  C3  UNL     1       6.612  28.706   7.412  1.00  0.00     0.117 C 
BRANCH   9  10
HETATM   10  C2  UNL     1       7.797  28.834   8.284  1.00  0.00     0.258 C 
HETATM   11  O2  UNL     1       8.919  29.041   7.762  1.00  0.00    -0.265 OA
BRANCH  10  12
HETATM   12  O1  UNL     1       7.740  28.734   9.663  1.00  0.00    -0.326 OA
HETATM   13  C1  UNL     1       8.864  28.738  10.522  1.00  0.00     0.213 C 
ENDBRANCH  10  12
ENDBRANCH   9  10
ENDBRANCH   8   9
ENDBRANCH   6   8
BRANCH   7  14
HETATM   14  O5  UNL     1       4.481  27.247   3.953  1.00  0.00    -0.345 OA
ATOM     15  H5  UNL     1       3.710  26.784   3.645  1.00  0.00     0.219 HD
ENDBRANCH   7  14
BRANCH   7  16
HETATM   16  N6  UNL     1       3.482  27.640   5.925  1.00  0.00    -0.356 N 
HETATM   17  C30 UNL     1       3.157  29.097   6.078  1.00  0.00     0.151 C 
HETATM   18  C31 UNL     1       2.728  29.353   7.498  1.00  0.00     0.187 C 
HETATM   19  O6  UNL     1       1.666  28.557   7.895  1.00  0.00    -0.388 OA
HETATM   20  C32 UNL     1       1.267  27.674   6.919  1.00  0.00     0.187 C 
HETATM   21  C33 UNL     1       2.447  26.795   6.455  1.00  0.00     0.151 C 
ENDBRANCH   7  16
ENDBRANCH   3   6
ENDBRANCH   1   2
BRANCH   1  22
HETATM   22  C8  UNL     1      10.447  26.045   4.316  1.00  0.00     0.039 C 
BRANCH  22  23
HETATM   23  C9  UNL     1      10.520  24.904   3.333  1.00  0.00    -0.012 C 
HETATM   24  C10 UNL     1       9.293  24.761   2.485  1.00  0.00     0.005 C 
HETATM   25  C11 UNL     1       8.491  23.509   2.767  1.00  0.00     0.000 C 
HETATM   26  C12 UNL     1       9.295  22.246   2.737  1.00  0.00     0.000 C 
HETATM   27  C13 UNL     1      10.618  22.386   3.463  1.00  0.00     0.000 C 
HETATM   28  C14 UNL     1      10.583  23.656   4.242  1.00  0.00     0.005 C 
ENDBRANCH  22  23
ENDBRANCH   1  22
BRANCH   1  29
HETATM   29  N2  UNL     1       9.692  26.029   6.572  1.00  0.00    -0.399 N 
ATOM     30  H2  UNL     1      10.057  26.943   6.840  1.00  0.00     0.154 HD
BRANCH  29  31
HETATM   31  C15 UNL     1       9.735  25.122   7.607  1.00  0.00     0.039 C 
HETATM   32  C16 UNL     1       8.990  25.478   8.873  1.00  0.00     0.039 C 
HETATM   33  C17 UNL     1       9.591  23.660   7.308  1.00  0.00     0.039 C 
BRANCH  31  34
HETATM   34  C18 UNL     1      11.232  25.243   8.100  1.00  0.00     0.109 C 
HETATM   35  C19 UNL     1      11.320  26.572   8.792  1.00  0.00     0.035 C 
BRANCH  34  36
HETATM   36  N3  UNL     1      12.125  25.162   7.007  1.00  0.00    -0.336 N 
HETATM   37  C20 UNL     1      13.119  24.065   6.896  1.00  0.00     0.316 C 
HETATM   38  O4  UNL     1      13.041  23.211   7.814  1.00  0.00    -0.247 OA
HETATM   39  N4  UNL     1      13.981  24.124   5.822  1.00  0.00    -0.338 N 
ATOM     40  H4  UNL     1      13.880  24.950   5.233  1.00  0.00     0.164 HD
ATOM     41  H3  UNL     1      12.085  25.874   6.278  1.00  0.00     0.164 HD
BRANCH  39  42
HETATM   42  C21 UNL     1      15.005  23.195   5.404  1.00  0.00     0.089 C 
HETATM   43  C22 UNL     1      14.915  22.715   4.001  1.00  0.00     0.055 C 
HETATM   44  C23 UNL     1      14.250  21.389   3.785  1.00  0.00     0.275 C 
HETATM   45  N5  UNL     1      14.587  20.379   4.716  1.00  0.00     0.093 N 
HETATM   46  C24 UNL     1      15.291  19.296   4.087  1.00  0.00     0.273 C 
HETATM   47  C27 UNL     1      15.343  20.721   5.854  1.00  0.00     0.225 C 
HETATM   48  C25 UNL     1      16.745  19.402   4.483  1.00  0.00     0.032 C 
HETATM   49  C26 UNL     1      16.802  20.457   5.534  1.00  0.00     0.037 C 
HETATM   50  C28 UNL     1      15.130  22.098   6.396  1.00  0.00     0.061 C 
ENDBRANCH  39  42
ENDBRANCH  34  36
ENDBRANCH  31  34
ENDBRANCH  29  31
ENDBRANCH   1  29
TORSDOF 15
ENDMDL
MODEL 2
REMARK VINA RESULT: -8.930224494      3.678      5.595
REMARK  15 active torsions:
REMARK  status: ('A' for Active; 'I' for Inactive)
REMARK    1  A    between atoms: O1_2  and  C2_3 
REMARK    2  A    between atoms: C2_3  and  C3_5 
REMARK    3  A    between atoms: C3_5  and  C4_6 
REMARK    4  A    between atoms: C4_6  and  C5_7 
REMARK    5  A    between atoms: C5_7  and  N1_8 
REMARK       I    between atoms: N1_8  and  C6_10 
REMARK    6  A    between atoms: C6_10  and  C7_12 
REMARK    7  A    between atoms: C7_12  and  C8_13 
REMARK    8  A    between atoms: C7_12  and  N2_20 
REMARK    9  A    between atoms: C8_13  and  C9_14 
REMARK   10  A    between atoms: N2_20  and  C15_22 
REMARK   11  A    between atoms: C15_22  and  C18_25 
REMARK   12  A    between atoms: C18_25  and  N3_27 
REMARK       I    between atoms: N3_27  and  C20_29 
REMARK       I    between atoms: C20_29  and  N4_31 
REMARK   13  A    between atoms: N4_31  and  C21_33 
REMARK   14  A    between atoms: C29_42  and  O5_43 
REMARK   15  A    between atoms: C29_42  and  N6_45 
ROOT
HETATM    1  C7  UNL     1      12.257  24.049   5.697  1.00  0.00     0.170 C 
ENDROOT
BRANCH   1   2
HETATM    2  C6  UNL     1      11.688  24.876   6.755  1.00  0.00     0.244 C 
HETATM    3  N1  UNL     1      11.074  26.100   6.389  1.00  0.00    -0.325 N 
ATOM      4  H1  UNL     1      11.711  26.831   6.072  1.00  0.00     0.169 HD
HETATM    5  O3  UNL     1      11.665  24.655   7.996  1.00  0.00    -0.271 OA
BRANCH   3   6
HETATM    6  C5  UNL     1       9.823  26.422   6.398  1.00  0.00     0.063 C 
HETATM    7  C29 UNL     1       9.244  27.108   7.512  1.00  0.00     0.161 C 
BRANCH   6   8
HETATM    8  C4  UNL     1       8.993  25.931   5.266  1.00  0.00     0.071 C 
BRANCH   8   9
HETATM    9  C3  UNL     1       8.573  27.048   4.340  1.00  0.00     0.117 C 
BRANCH   9  10
HETATM   10  C2  UNL     1       7.112  26.961   4.139  1.00  0.00     0.258 C 
HETATM   11  O2  UNL     1       6.444  28.019   4.052  1.00  0.00    -0.265 OA
BRANCH  10  12
HETATM   12  O1  UNL     1       6.429  25.761   4.042  1.00  0.00    -0.326 OA
HETATM   13  C1  UNL     1       5.695  25.337   2.911  1.00  0.00     0.213 C 
ENDBRANCH  10  12
ENDBRANCH   9  10
ENDBRANCH   8   9
ENDBRANCH   6   8
BRANCH   7  14
HETATM   14  O5  UNL     1      10.013  27.303   8.555  1.00  0.00    -0.345 OA
ATOM     15  H5  UNL     1       9.607  27.683   9.324  1.00  0.00     0.219 HD
ENDBRANCH   7  14
BRANCH   7  16
HETATM   16  N6  UNL     1       7.957  27.642   7.720  1.00  0.00    -0.356 N 
HETATM   17  C30 UNL     1       6.875  26.715   8.190  1.00  0.00     0.151 C 
HETATM   18  C31 UNL     1       5.635  26.961   7.373  1.00  0.00     0.187 C 
HETATM   19  O6  UNL     1       5.216  28.281   7.408  1.00  0.00    -0.388 OA
HETATM   20  C32 UNL     1       6.052  29.087   8.145  1.00  0.00     0.187 C 
HETATM   21  C33 UNL     1       7.501  29.001   7.621  1.00  0.00     0.151 C 
ENDBRANCH   7  16
ENDBRANCH   3   6
ENDBRANCH   1   2
BRANCH   1  22
HETATM   22  C8  UNL     1      12.070  24.738   4.365  1.00  0.00     0.039 C 
BRANCH  22  23
HETATM   23  C9  UNL     1      11.545  23.859   3.258  1.00  0.00    -0.012 C 
HETATM   24  C10 UNL     1      10.717  24.595   2.248  1.00  0.00     0.005 C 
HETATM   25  C11 UNL     1       9.252  24.216   2.257  1.00  0.00     0.000 C 
HETATM   26  C12 UNL     1       9.000  22.741   2.164  1.00  0.00     0.000 C 
HETATM   27  C13 UNL     1       9.918  21.941   3.066  1.00  0.00     0.000 C 
HETATM   28  C14 UNL     1      10.594  22.891   3.995  1.00  0.00     0.005 C 
ENDBRANCH  22  23
ENDBRANCH   1  22
BRANCH   1  29
HETATM   29  N2  UNL     1      13.543  23.624   5.863  1.00  0.00    -0.399 N 
ATOM     30  H2  UNL     1      14.202  24.399   5.948  1.00  0.00     0.154 HD
BRANCH  29  31
HETATM   31  C15 UNL     1      14.163  22.397   5.944  1.00  0.00     0.039 C 
HETATM   32  C16 UNL     1      13.277  21.174   6.000  1.00  0.00     0.039 C 
HETATM   33  C17 UNL     1      15.371  22.129   5.098  1.00  0.00     0.039 C 
BRANCH  31  34
HETATM   34  C18 UNL     1      14.747  22.409   7.413  1.00  0.00     0.109 C 
HETATM   35  C19 UNL     1      15.799  23.480   7.416  1.00  0.00     0.035 C 
BRANCH  34  36
HETATM   36  N3  UNL     1      15.286  21.146   7.745  1.00  0.00    -0.336 N 
HETATM   37  C20 UNL     1      15.374  20.685   9.154  1.00  0.00     0.316 C 
HETATM   38  O4  UNL     1      14.877  21.487   9.984  1.00  0.00    -0.247 OA
HETATM   39  N4  UNL     1      15.977  19.464   9.364  1.00  0.00    -0.338 N 
ATOM     40  H4  UNL     1      16.349  19.017   8.527  1.00  0.00     0.164 HD
ATOM     41  H3  UNL     1      15.622  20.535   7.000  1.00  0.00     0.164 HD
BRANCH  39  42
HETATM   42  C21 UNL     1      16.162  18.721  10.589  1.00  0.00     0.089 C 
HETATM   43  C22 UNL     1      17.451  18.941  11.295  1.00  0.00     0.055 C 
HETATM   44  C23 UNL     1      18.535  17.935  11.045  1.00  0.00     0.275 C 
HETATM   45  N5  UNL     1      18.117  16.584  11.018  1.00  0.00     0.093 N 
HETATM   46  C24 UNL     1      18.690  15.834  12.102  1.00  0.00     0.273 C 
HETATM   47  C27 UNL     1      16.740  16.291  11.034  1.00  0.00     0.225 C 
HETATM   48  C25 UNL     1      17.602  15.594  13.122  1.00  0.00     0.032 C 
HETATM   49  C26 UNL     1      16.337  16.047  12.477  1.00  0.00     0.037 C 
HETATM   50  C28 UNL     1      15.848  17.288  10.366  1.00  0.00     0.061 C 
ENDBRANCH  39  42
ENDBRANCH  34  36
ENDBRANCH  31  34
ENDBRANCH  29  31
ENDBRANCH   1  29
TORSDOF 15
ENDMDL
MODEL 3
REMARK VINA RESULT: -8.876911333      2.077     10.285
REMARK  15 active torsions:
REMARK  status: ('A' for Active; 'I' for Inactive)
REMARK    1  A    between atoms: O1_2  and  C2_3 
REMARK    2  A    between atoms: C2_3  and  C3_5 
REMARK    3  A    between atoms: C3_5  and  C4_6 
REMARK    4  A    between atoms: C4_6  and  C5_7 
REMARK    5  A    between atoms: C5_7  and  N1_8 
REMARK       I    between atoms: N1_8  and  C6_10 
REMARK    6  A    between atoms: C6_10  and  C7_12 
REMARK    7  A    between atoms: C7_12  and  C8_13 
REMARK    8  A    between atoms: C7_12  and  N2_20 
REMARK    9  A    between atoms: C8_13  and  C9_14 
REMARK   10  A    between atoms: N2_20  and  C15_22 
REMARK   11  A    between atoms: C15_22  and  C18_25 
REMARK   12  A    between atoms: C18_25  and  N3_27 
REMARK       I    between atoms: N3_27  and  C20_29 
REMARK       I    between atoms: C20_29  and  N4_31 
REMARK   13  A    between atoms: N4_31  and  C21_33 
REMARK   14  A    between atoms: C29_42  and  O5_43 
REMARK   15  A    between atoms: C29_42  and  N6_45 
ROOT
HETATM    1  C7  UNL     1      10.001  25.850   5.965  1.00  0.00     0.170 C 
ENDROOT
BRANCH   1   2
HETATM    2  C6  UNL     1      11.381  25.693   5.518  1.00  0.00     0.244 C 
HETATM    3  N1  UNL     1      12.324  25.166   6.436  1.00  0.00    -0.325 N 
ATOM      4  H1  UNL     1      12.577  25.785   7.206  1.00  0.00     0.169 HD
HETATM    5  O3  UNL     1      11.877  25.970   4.393  1.00  0.00    -0.271 OA
BRANCH   3   6
HETATM    6  C5  UNL     1      12.909  24.014   6.437  1.00  0.00     0.063 C 
HETATM    7  C29 UNL     1      13.920  23.697   5.477  1.00  0.00     0.161 C 
BRANCH   6   8
HETATM    8  C4  UNL     1      12.390  22.997   7.391  1.00  0.00     0.071 C 
BRANCH   8   9
HETATM    9  C3  UNL     1      11.031  22.476   6.984  1.00  0.00     0.117 C 
BRANCH   9  10
HETATM   10  C2  UNL     1      11.190  21.671   5.757  1.00  0.00     0.258 C 
HETATM   11  O2  UNL     1      11.951  20.674   5.774  1.00  0.00    -0.265 OA
BRANCH  10  12
HETATM   12  O1  UNL     1      10.539  21.960   4.570  1.00  0.00    -0.326 OA
HETATM   13  C1  UNL     1      11.147  22.547   3.436  1.00  0.00     0.213 C 
ENDBRANCH  10  12
ENDBRANCH   9  10
ENDBRANCH   8   9
ENDBRANCH   6   8
BRANCH   7  14
HETATM   14  O5  UNL     1      14.151  24.586   4.542  1.00  0.00    -0.345 OA
ATOM     15  H5  UNL     1      15.060  24.789   4.356  1.00  0.00     0.219 HD
ENDBRANCH   7  14
BRANCH   7  16
HETATM   16  N6  UNL     1      14.756  22.573   5.330  1.00  0.00    -0.356 N 
HETATM   17  C30 UNL     1      15.011  22.057   3.943  1.00  0.00     0.151 C 
HETATM   18  C31 UNL     1      14.860  20.560   3.946  1.00  0.00     0.187 C 
HETATM   19  O6  UNL     1      15.678  19.934   4.873  1.00  0.00    -0.388 OA
HETATM   20  C32 UNL     1      16.414  20.822   5.620  1.00  0.00     0.187 C 
HETATM   21  C33 UNL     1      15.496  21.845   6.323  1.00  0.00     0.151 C 
ENDBRANCH   7  16
ENDBRANCH   3   6
ENDBRANCH   1   2
BRANCH   1  22
HETATM   22  C8  UNL     1       9.080  25.106   5.026  1.00  0.00     0.039 C 
BRANCH  22  23
HETATM   23  C9  UNL     1       8.226  25.978   4.141  1.00  0.00    -0.012 C 
HETATM   24  C10 UNL     1       6.820  25.482   3.985  1.00  0.00     0.005 C 
HETATM   25  C11 UNL     1       6.489  24.997   2.591  1.00  0.00     0.000 C 
HETATM   26  C12 UNL     1       6.820  25.975   1.505  1.00  0.00     0.000 C 
HETATM   27  C13 UNL     1       8.181  26.614   1.700  1.00  0.00     0.000 C 
HETATM   28  C14 UNL     1       8.901  25.850   2.758  1.00  0.00     0.005 C 
ENDBRANCH  22  23
ENDBRANCH   1  22
BRANCH   1  29
HETATM   29  N2  UNL     1       9.732  25.554   7.269  1.00  0.00    -0.399 N 
ATOM     30  H2  UNL     1       9.795  24.554   7.462  1.00  0.00     0.154 HD
BRANCH  29  31
HETATM   31  C15 UNL     1       9.395  26.284   8.386  1.00  0.00     0.039 C 
HETATM   32  C16 UNL     1       8.536  25.604   9.427  1.00  0.00     0.039 C 
HETATM   33  C17 UNL     1      10.435  27.140   9.045  1.00  0.00     0.039 C 
BRANCH  31  34
HETATM   34  C18 UNL     1       8.375  27.342   7.804  1.00  0.00     0.109 C 
HETATM   35  C19 UNL     1       8.643  28.612   8.557  1.00  0.00     0.035 C 
BRANCH  34  36
HETATM   36  N3  UNL     1       7.044  26.900   7.980  1.00  0.00    -0.336 N 
HETATM   37  C20 UNL     1       5.944  27.381   7.106  1.00  0.00     0.316 C 
HETATM   38  O4  UNL     1       6.322  28.148   6.186  1.00  0.00    -0.247 OA
HETATM   39  N4  UNL     1       4.677  26.933   7.411  1.00  0.00    -0.338 N 
ATOM     40  H4  UNL     1       4.615  26.349   8.245  1.00  0.00     0.164 HD
ATOM     41  H3  UNL     1       6.834  26.235   8.725  1.00  0.00     0.164 HD
BRANCH  39  42
HETATM   42  C21 UNL     1       3.424  27.165   6.731  1.00  0.00     0.089 C 
HETATM   43  C22 UNL     1       2.926  28.565   6.744  1.00  0.00     0.055 C 
HETATM   44  C23 UNL     1       1.909  28.907   7.792  1.00  0.00     0.275 C 
HETATM   45  N5  UNL     1       0.901  27.937   8.002  1.00  0.00     0.093 N 
HETATM   46  C24 UNL     1      -0.395  28.435   7.634  1.00  0.00     0.273 C 
HETATM   47  C27 UNL     1       1.020  26.678   7.381  1.00  0.00     0.225 C 
HETATM   48  C25 UNL     1      -0.785  27.783   6.329  1.00  0.00     0.032 C 
HETATM   49  C26 UNL     1       0.241  26.731   6.079  1.00  0.00     0.037 C 
HETATM   50  C28 UNL     1       2.413  26.175   7.177  1.00  0.00     0.061 C 
ENDBRANCH  39  42
ENDBRANCH  34  36
ENDBRANCH  31  34
ENDBRANCH  29  31
ENDBRANCH   1  29
TORSDOF 15
ENDMDL
MODEL 4
REMARK VINA RESULT: -8.867601291      2.187     10.614
REMARK  15 active torsions:
REMARK  status: ('A' for Active; 'I' for Inactive)
REMARK    1  A    between atoms: O1_2  and  C2_3 
REMARK    2  A    between atoms: C2_3  and  C3_5 
REMARK    3  A    between atoms: C3_5  and  C4_6 
REMARK    4  A    between atoms: C4_6  and  C5_7 
REMARK    5  A    between atoms: C5_7  and  N1_8 
REMARK       I    between atoms: N1_8  and  C6_10 
REMARK    6  A    between atoms: C6_10  and  C7_12 
REMARK    7  A    between atoms: C7_12  and  C8_13 
REMARK    8  A    between atoms: C7_12  and  N2_20 
REMARK    9  A    between atoms: C8_13  and  C9_14 
REMARK   10  A    between atoms: N2_20  and  C15_22 
REMARK   11  A    between atoms: C15_22  and  C18_25 
REMARK   12  A    between atoms: C18_25  and  N3_27 
REMARK       I    between atoms: N3_27  and  C20_29 
REMARK       I    between atoms: C20_29  and  N4_31 
REMARK   13  A    between atoms: N4_31  and  C21_33 
REMARK   14  A    between atoms: C29_42  and  O5_43 
REMARK   15  A    between atoms: C29_42  and  N6_45 
ROOT
HETATM    1  C7  UNL     1       9.346  26.001   5.073  1.00  0.00     0.170 C 
ENDROOT
BRANCH   1   2
HETATM    2  C6  UNL     1      10.714  25.688   4.676  1.00  0.00     0.244 C 
HETATM    3  N1  UNL     1      11.724  25.731   5.669  1.00  0.00    -0.325 N 
ATOM      4  H1  UNL     1      11.967  26.663   6.004  1.00  0.00     0.169 HD
HETATM    5  O3  UNL     1      11.146  25.376   3.534  1.00  0.00    -0.271 OA
BRANCH   3   6
HETATM    6  C5  UNL     1      12.382  24.760   6.210  1.00  0.00     0.063 C 
HETATM    7  C29 UNL     1      13.541  24.209   5.579  1.00  0.00     0.161 C 
BRANCH   6   8
HETATM    8  C4  UNL     1      11.802  24.159   7.441  1.00  0.00     0.071 C 
BRANCH   8   9
HETATM    9  C3  UNL     1      10.559  23.351   7.151  1.00  0.00     0.117 C 
BRANCH   9  10
HETATM   10  C2  UNL     1      10.943  22.185   6.331  1.00  0.00     0.258 C 
HETATM   11  O2  UNL     1      11.679  21.301   6.834  1.00  0.00    -0.265 OA
BRANCH  10  12
HETATM   12  O1  UNL     1      10.535  22.009   5.020  1.00  0.00    -0.326 OA
HETATM   13  C1  UNL     1      11.405  21.862   3.915  1.00  0.00     0.213 C 
ENDBRANCH  10  12
ENDBRANCH   9  10
ENDBRANCH   8   9
ENDBRANCH   6   8
BRANCH   7  14
HETATM   14  O5  UNL     1      13.842  24.665   4.388  1.00  0.00    -0.345 OA
ATOM     15  H5  UNL     1      13.171  24.600   3.719  1.00  0.00     0.219 HD
ENDBRANCH   7  14
BRANCH   7  16
HETATM   16  N6  UNL     1      14.465  23.233   6.001  1.00  0.00    -0.356 N 
HETATM   17  C30 UNL     1      14.981  22.260   4.981  1.00  0.00     0.151 C 
HETATM   18  C31 UNL     1      14.935  20.874   5.565  1.00  0.00     0.187 C 
HETATM   19  O6  UNL     1      15.630  20.766   6.760  1.00  0.00    -0.388 OA
HETATM   20  C32 UNL     1      16.169  21.961   7.173  1.00  0.00     0.187 C 
HETATM   21  C33 UNL     1      15.079  23.047   7.286  1.00  0.00     0.151 C 
ENDBRANCH   7  16
ENDBRANCH   3   6
ENDBRANCH   1   2
BRANCH   1  22
HETATM   22  C8  UNL     1       9.355  27.175   6.025  1.00  0.00     0.039 C 
BRANCH  22  23
HETATM   23  C9  UNL     1       8.676  26.932   7.349  1.00  0.00    -0.012 C 
HETATM   24  C10 UNL     1       7.583  27.911   7.653  1.00  0.00     0.005 C 
HETATM   25  C11 UNL     1       7.890  28.840   8.807  1.00  0.00     0.000 C 
HETATM   26  C12 UNL     1       8.327  28.141  10.058  1.00  0.00     0.000 C 
HETATM   27  C13 UNL     1       9.332  27.040   9.783  1.00  0.00     0.000 C 
HETATM   28  C14 UNL     1       9.801  27.186   8.376  1.00  0.00     0.005 C 
ENDBRANCH  22  23
ENDBRANCH   1  22
BRANCH   1  29
HETATM   29  N2  UNL     1       8.432  26.173   4.075  1.00  0.00    -0.399 N 
ATOM     30  H2  UNL     1       8.166  27.151   3.956  1.00  0.00     0.154 HD
BRANCH  29  31
HETATM   31  C15 UNL     1       7.783  25.341   3.191  1.00  0.00     0.039 C 
HETATM   32  C16 UNL     1       7.978  25.607   1.716  1.00  0.00     0.039 C 
HETATM   33  C17 UNL     1       7.757  23.865   3.457  1.00  0.00     0.039 C 
BRANCH  31  34
HETATM   34  C18 UNL     1       6.272  25.766   3.372  1.00  0.00     0.109 C 
HETATM   35  C19 UNL     1       5.693  25.787   1.987  1.00  0.00     0.035 C 
BRANCH  34  36
HETATM   36  N3  UNL     1       6.181  27.030   3.997  1.00  0.00    -0.336 N 
HETATM   37  C20 UNL     1       4.988  27.421   4.790  1.00  0.00     0.316 C 
HETATM   38  O4  UNL     1       4.125  26.514   4.894  1.00  0.00    -0.247 OA
HETATM   39  N4  UNL     1       4.982  28.702   5.298  1.00  0.00    -0.338 N 
ATOM     40  H4  UNL     1       5.783  29.275   5.035  1.00  0.00     0.164 HD
ATOM     41  H3  UNL     1       6.954  27.690   3.901  1.00  0.00     0.164 HD
BRANCH  39  42
HETATM   42  C21 UNL     1       4.013  29.357   6.146  1.00  0.00     0.089 C 
HETATM   43  C22 UNL     1       3.868  28.802   7.517  1.00  0.00     0.055 C 
HETATM   44  C23 UNL     1       2.743  27.835   7.735  1.00  0.00     0.275 C 
HETATM   45  N5  UNL     1       1.516  28.178   7.122  1.00  0.00     0.093 N 
HETATM   46  C24 UNL     1       0.495  28.444   8.098  1.00  0.00     0.273 C 
HETATM   47  C27 UNL     1       1.479  29.261   6.222  1.00  0.00     0.225 C 
HETATM   48  C25 UNL     1       0.280  29.938   8.143  1.00  0.00     0.032 C 
HETATM   49  C26 UNL     1       1.060  30.494   7.001  1.00  0.00     0.037 C 
HETATM   50  C28 UNL     1       2.722  29.498   5.427  1.00  0.00     0.061 C 
ENDBRANCH  39  42
ENDBRANCH  34  36
ENDBRANCH  31  34
ENDBRANCH  29  31
ENDBRANCH   1  29
TORSDOF 15
ENDMDL
MODEL 5
REMARK VINA RESULT: -8.835919937      4.060      7.886
REMARK  15 active torsions:
REMARK  status: ('A' for Active; 'I' for Inactive)
REMARK    1  A    between atoms: O1_2  and  C2_3 
REMARK    2  A    between atoms: C2_3  and  C3_5 
REMARK    3  A    between atoms: C3_5  and  C4_6 
REMARK    4  A    between atoms: C4_6  and  C5_7 
REMARK    5  A    between atoms: C5_7  and  N1_8 
REMARK       I    between atoms: N1_8  and  C6_10 
REMARK    6  A    between atoms: C6_10  and  C7_12 
REMARK    7  A    between atoms: C7_12  and  C8_13 
REMARK    8  A    between atoms: C7_12  and  N2_20 
REMARK    9  A    between atoms: C8_13  and  C9_14 
REMARK   10  A    between atoms: N2_20  and  C15_22 
REMARK   11  A    between atoms: C15_22  and  C18_25 
REMARK   12  A    between atoms: C18_25  and  N3_27 
REMARK       I    between atoms: N3_27  and  C20_29 
REMARK       I    between atoms: C20_29  and  N4_31 
REMARK   13  A    between atoms: N4_31  and  C21_33 
REMARK   14  A    between atoms: C29_42  and  O5_43 
REMARK   15  A    between atoms: C29_42  and  N6_45 
ROOT
HETATM    1  C7  UNL     1      14.513  20.616   5.807  1.00  0.00     0.170 C 
ENDROOT
BRANCH   1   2
HETATM    2  C6  UNL     1      14.109  21.744   4.976  1.00  0.00     0.244 C 
HETATM    3  N1  UNL     1      12.769  21.787   4.514  1.00  0.00    -0.325 N 
ATOM      4  H1  UNL     1      12.531  21.095   3.803  1.00  0.00     0.169 HD
HETATM    5  O3  UNL     1      14.804  22.722   4.590  1.00  0.00    -0.271 OA
BRANCH   3   6
HETATM    6  C5  UNL     1      11.808  22.576   4.863  1.00  0.00     0.063 C 
HETATM    7  C29 UNL     1      11.476  23.728   4.084  1.00  0.00     0.161 C 
BRANCH   6   8
HETATM    8  C4  UNL     1      11.160  22.306   6.175  1.00  0.00     0.071 C 
BRANCH   8   9
HETATM    9  C3  UNL     1      11.747  23.145   7.285  1.00  0.00     0.117 C 
BRANCH   9  10
HETATM   10  C2  UNL     1      10.757  24.171   7.667  1.00  0.00     0.258 C 
HETATM   11  O2  UNL     1       9.534  23.899   7.588  1.00  0.00    -0.265 OA
BRANCH  10  12
HETATM   12  O1  UNL     1      11.104  25.435   8.111  1.00  0.00    -0.326 OA
HETATM   13  C1  UNL     1      10.185  26.453   8.455  1.00  0.00     0.213 C 
ENDBRANCH  10  12
ENDBRANCH   9  10
ENDBRANCH   8   9
ENDBRANCH   6   8
BRANCH   7  14
HETATM   14  O5  UNL     1      12.251  23.997   3.062  1.00  0.00    -0.345 OA
ATOM     15  H5  UNL     1      11.930  24.634   2.434  1.00  0.00     0.219 HD
ENDBRANCH   7  14
BRANCH   7  16
HETATM   16  N6  UNL     1      10.436  24.671   4.198  1.00  0.00    -0.356 N 
HETATM   17  C30 UNL     1       9.051  24.247   3.803  1.00  0.00     0.151 C 
HETATM   18  C31 UNL     1       8.437  25.324   2.951  1.00  0.00     0.187 C 
HETATM   19  O6  UNL     1       8.426  26.564   3.569  1.00  0.00    -0.388 OA
HETATM   20  C32 UNL     1       9.021  26.548   4.808  1.00  0.00     0.187 C 
HETATM   21  C33 UNL     1      10.464  26.009   4.719  1.00  0.00     0.151 C 
ENDBRANCH   7  16
ENDBRANCH   3   6
ENDBRANCH   1   2
BRANCH   1  22
HETATM   22  C8  UNL     1      14.766  19.410   4.930  1.00  0.00     0.039 C 
BRANCH  22  23
HETATM   23  C9  UNL     1      16.023  19.473   4.101  1.00  0.00    -0.012 C 
HETATM   24  C10 UNL     1      15.772  19.424   2.624  1.00  0.00     0.005 C 
HETATM   25  C11 UNL     1      16.265  18.158   1.957  1.00  0.00     0.000 C 
HETATM   26  C12 UNL     1      17.695  17.825   2.255  1.00  0.00     0.000 C 
HETATM   27  C13 UNL     1      18.035  18.000   3.721  1.00  0.00     0.000 C 
HETATM   28  C14 UNL     1      16.760  18.168   4.473  1.00  0.00     0.005 C 
ENDBRANCH  22  23
ENDBRANCH   1  22
BRANCH   1  29
HETATM   29  N2  UNL     1      15.542  20.823   6.680  1.00  0.00    -0.399 N 
ATOM     30  H2  UNL     1      16.406  20.375   6.376  1.00  0.00     0.154 HD
BRANCH  29  31
HETATM   31  C15 UNL     1      15.689  21.493   7.874  1.00  0.00     0.039 C 
HETATM   32  C16 UNL     1      16.285  22.881   7.822  1.00  0.00     0.039 C 
HETATM   33  C17 UNL     1      14.586  21.435   8.888  1.00  0.00     0.039 C 
BRANCH  31  34
HETATM   34  C18 UNL     1      16.860  20.692   8.569  1.00  0.00     0.109 C 
HETATM   35  C19 UNL     1      18.019  21.644   8.624  1.00  0.00     0.035 C 
BRANCH  34  36
HETATM   36  N3  UNL     1      17.174  19.528   7.832  1.00  0.00    -0.336 N 
HETATM   37  C20 UNL     1      17.630  18.283   8.502  1.00  0.00     0.316 C 
HETATM   38  O4  UNL     1      17.646  18.356   9.756  1.00  0.00    -0.247 OA
HETATM   39  N4  UNL     1      17.970  17.232   7.679  1.00  0.00    -0.338 N 
ATOM     40  H4  UNL     1      17.920  17.432   6.680  1.00  0.00     0.164 HD
ATOM     41  H3  UNL     1      17.085  19.542   6.816  1.00  0.00     0.164 HD
BRANCH  39  42
HETATM   42  C21 UNL     1      18.386  15.890   8.015  1.00  0.00     0.089 C 
HETATM   43  C22 UNL     1      19.533  15.781   8.954  1.00  0.00     0.055 C 
HETATM   44  C23 UNL     1      20.885  15.570   8.343  1.00  0.00     0.275 C 
HETATM   45  N5  UNL     1      20.933  14.650   7.270  1.00  0.00     0.093 N 
HETATM   46  C24 UNL     1      21.718  13.493   7.602  1.00  0.00     0.273 C 
HETATM   47  C27 UNL     1      19.726  14.155   6.737  1.00  0.00     0.225 C 
HETATM   48  C25 UNL     1      20.767  12.345   7.844  1.00  0.00     0.032 C 
HETATM   49  C26 UNL     1      19.424  12.837   7.426  1.00  0.00     0.037 C 
HETATM   50  C28 UNL     1      18.558  15.088   6.778  1.00  0.00     0.061 C 
ENDBRANCH  39  42
ENDBRANCH  34  36
ENDBRANCH  31  34
ENDBRANCH  29  31
ENDBRANCH   1  29
TORSDOF 15
ENDMDL
