MODEL 1
REMARK VINA RESULT: -7.543843937      0.000      0.000
REMARK  14 active torsions:
REMARK  status: ('A' for Active; 'I' for Inactive)
REMARK    1  A    between atoms: C2_2  and  C3_3 
REMARK    2  A    between atoms: C3_3  and  C4_4 
REMARK    3  A    between atoms: C4_4  and  C6_6 
REMARK    4  A    between atoms: C6_6  and  O1_7 
REMARK    5  A    between atoms: C6_6  and  N1_9 
REMARK    6  A    between atoms: C12_18  and  C13_19 
REMARK    7  A    between atoms: C12_18  and  C15_21 
REMARK    8  A    between atoms: C17_23  and  N2_24 
REMARK    9  A    between atoms: C21_28  and  N3_29 
REMARK   10  A    between atoms: N3_29  and  C22_31 
REMARK   11  A    between atoms: C22_31  and  O4_32 
REMARK   12  A    between atoms: C22_31  and  C23_34 
REMARK   13  A    between atoms: C23_34  and  N4_35 
REMARK   14  A    between atoms: C23_34  and  C24_39 
ROOT
HETATM    1  N1  UNL     1       7.779   4.741  18.928  1.00  0.00    -0.339 N 
ATOM      2  H1  UNL     1       8.745   4.991  19.139  1.00  0.00     0.167 HD
HETATM    3  C7  UNL     1       7.044   5.731  18.711  1.00  0.00     0.082 C 
HETATM    4  C8  UNL     1       5.623   5.459  18.393  1.00  0.00     0.094 C 
HETATM    5  C9  UNL     1       5.110   6.614  17.553  1.00  0.00     0.128 C 
HETATM    6  C10 UNL     1       3.892   6.206  16.744  1.00  0.00     0.040 C 
HETATM    7  O2  UNL     1       4.815   7.664  18.410  1.00  0.00    -0.338 OA
HETATM    8  C11 UNL     1       5.801   8.700  18.175  1.00  0.00     0.378 C 
HETATM    9  O3  UNL     1       5.274   9.816  18.690  1.00  0.00    -0.327 OA
HETATM   10  C12 UNL     1       5.778  11.057  18.418  1.00  0.00     0.102 C 
HETATM   11  C17 UNL     1       7.041  11.442  19.032  1.00  0.00     0.022 C 
HETATM   12  C20 UNL     1       7.943  10.518  19.717  1.00  0.00     0.042 C 
HETATM   13  C21 UNL     1       7.763   9.090  19.849  1.00  0.00     0.215 C 
HETATM   14  N5  UNL     1       6.996   8.344  18.898  1.00  0.00    -0.273 N 
HETATM   15  C27 UNL     1       7.656   7.080  18.846  1.00  0.00     0.272 C 
HETATM   16  O5  UNL     1       8.896   7.109  18.923  1.00  0.00    -0.266 OA
ENDROOT
BRANCH  13  17
HETATM   17  N3  UNL     1       7.184   8.726  21.149  1.00  0.00    -0.371 N 
ATOM     18  H3  UNL     1       6.196   8.875  21.353  1.00  0.00     0.158 HD
BRANCH  17  19
HETATM   19  C22 UNL     1       8.052   8.163  22.098  1.00  0.00     0.246 C 
BRANCH  19  20
HETATM   20  O4  UNL     1       7.819   6.862  22.510  1.00  0.00    -0.375 OA
ATOM     21  H4  UNL     1       8.416   6.183  22.216  1.00  0.00     0.212 HD
ENDBRANCH  19  20
BRANCH  19  22
HETATM   22  C23 UNL     1       8.217   8.986  23.372  1.00  0.00     0.234 C 
BRANCH  22  23
HETATM   23  N4  UNL     1       8.979  10.205  23.056  1.00  0.00    -0.071 N 
ATOM     24  H43 UNL     1       9.815  10.010  22.505  1.00  0.00     0.274 HD
ATOM     25  H42 UNL     1       8.499  10.800  22.381  1.00  0.00     0.274 HD
ATOM     26  H41 UNL     1       9.192  10.695  23.925  1.00  0.00     0.274 HD
ENDBRANCH  22  23
BRANCH  22  27
HETATM   27  C24 UNL     1       9.111   8.211  24.322  1.00  0.00     0.012 C 
HETATM   28  C25 UNL     1       8.514   7.947  25.661  1.00  0.00     0.012 C 
HETATM   29  C26 UNL     1      10.438   8.916  24.536  1.00  0.00     0.012 C 
ENDBRANCH  22  27
ENDBRANCH  19  22
ENDBRANCH  17  19
ENDBRANCH  13  17
BRANCH  11  30
HETATM   30  N2  UNL     1       7.049  12.704  19.748  1.00  0.00    -0.293 NA
HETATM   31  C18 UNL     1       8.102  13.608  19.254  1.00  0.00     0.116 C 
HETATM   32  C19 UNL     1       7.201  12.648  21.167  1.00  0.00     0.116 C 
ENDBRANCH  11  30
BRANCH  10  33
HETATM   33  C13 UNL     1       4.568  11.966  18.609  1.00  0.00     0.040 C 
HETATM   34  C14 UNL     1       3.462  11.368  19.445  1.00  0.00     0.008 C 
ENDBRANCH  10  33
BRANCH  10  35
HETATM   35  C15 UNL     1       5.895  11.034  16.859  1.00  0.00     0.040 C 
HETATM   36  C16 UNL     1       5.089  12.193  16.329  1.00  0.00     0.008 C 
ENDBRANCH  10  35
BRANCH   1  37
HETATM   37  C6  UNL     1       7.550   3.382  18.940  1.00  0.00     0.119 C 
BRANCH  37  38
HETATM   38  C4  UNL     1       7.795   2.364  17.913  1.00  0.00     0.056 C 
HETATM   39  C5  UNL     1       6.453   1.848  17.342  1.00  0.00     0.018 C 
BRANCH  38  40
HETATM   40  C3  UNL     1       8.500   1.123  18.404  1.00  0.00     0.012 C 
BRANCH  40  41
HETATM   41  C2  UNL     1       9.721   0.923  17.521  1.00  0.00    -0.004 C 
HETATM   42  C1  UNL     1       9.417  -0.076  16.434  1.00  0.00     0.005 C 
ENDBRANCH  40  41
ENDBRANCH  38  40
ENDBRANCH  37  38
BRANCH  37  43
HETATM   43  O1  UNL     1       7.025   2.900  20.037  1.00  0.00    -0.349 OA
ATOM     44  H1  UNL     1       6.952   3.541  20.735  1.00  0.00     0.219 HD
ENDBRANCH  37  43
ENDBRANCH   1  37
TORSDOF 14
ENDMDL
MODEL 2
REMARK VINA RESULT: -7.440504374      1.412      1.796
REMARK  14 active torsions:
REMARK  status: ('A' for Active; 'I' for Inactive)
REMARK    1  A    between atoms: C2_2  and  C3_3 
REMARK    2  A    between atoms: C3_3  and  C4_4 
REMARK    3  A    between atoms: C4_4  and  C6_6 
REMARK    4  A    between atoms: C6_6  and  O1_7 
REMARK    5  A    between atoms: C6_6  and  N1_9 
REMARK    6  A    between atoms: C12_18  and  C13_19 
REMARK    7  A    between atoms: C12_18  and  C15_21 
REMARK    8  A    between atoms: C17_23  and  N2_24 
REMARK    9  A    between atoms: C21_28  and  N3_29 
REMARK   10  A    between atoms: N3_29  and  C22_31 
REMARK   11  A    between atoms: C22_31  and  O4_32 
REMARK   12  A    between atoms: C22_31  and  C23_34 
REMARK   13  A    between atoms: C23_34  and  N4_35 
REMARK   14  A    between atoms: C23_34  and  C24_39 
ROOT
HETATM    1  N1  UNL     1       7.559   5.597  19.448  1.00  0.00    -0.339 N 
ATOM      2  H1  UNL     1       8.520   5.877  19.645  1.00  0.00     0.167 HD
HETATM    3  C7  UNL     1       6.830   6.546  19.080  1.00  0.00     0.082 C 
HETATM    4  C8  UNL     1       5.416   6.230  18.770  1.00  0.00     0.094 C 
HETATM    5  C9  UNL     1       4.924   7.256  17.768  1.00  0.00     0.128 C 
HETATM    6  C10 UNL     1       3.724   6.738  16.995  1.00  0.00     0.040 C 
HETATM    7  O2  UNL     1       4.609   8.414  18.466  1.00  0.00    -0.338 OA
HETATM    8  C11 UNL     1       5.601   9.410  18.113  1.00  0.00     0.378 C 
HETATM    9  O3  UNL     1       5.063  10.585  18.457  1.00  0.00    -0.327 OA
HETATM   10  C12 UNL     1       5.573  11.778  18.029  1.00  0.00     0.102 C 
HETATM   11  C17 UNL     1       6.822  12.247  18.613  1.00  0.00     0.022 C 
HETATM   12  C20 UNL     1       7.708  11.429  19.439  1.00  0.00     0.042 C 
HETATM   13  C21 UNL     1       7.524  10.032  19.762  1.00  0.00     0.215 C 
HETATM   14  N5  UNL     1       6.779   9.160  18.905  1.00  0.00    -0.273 N 
HETATM   15  C27 UNL     1       7.439   7.902  19.042  1.00  0.00     0.272 C 
HETATM   16  O5  UNL     1       8.677   7.945  19.143  1.00  0.00    -0.266 OA
ENDROOT
BRANCH  13  17
HETATM   17  N3  UNL     1       6.915   9.848  21.086  1.00  0.00    -0.371 N 
ATOM     18  H3  UNL     1       5.908   9.932  21.226  1.00  0.00     0.158 HD
BRANCH  17  19
HETATM   19  C22 UNL     1       7.781   9.552  22.150  1.00  0.00     0.246 C 
BRANCH  19  20
HETATM   20  O4  UNL     1       9.092   9.218  21.855  1.00  0.00    -0.375 OA
ATOM     21  H4  UNL     1       9.570   8.679  22.475  1.00  0.00     0.212 HD
ENDBRANCH  19  20
BRANCH  19  22
HETATM   22  C23 UNL     1       7.274   8.470  23.097  1.00  0.00     0.234 C 
BRANCH  22  23
HETATM   23  N4  UNL     1       7.695   7.155  22.587  1.00  0.00    -0.071 N 
ATOM     24  H43 UNL     1       8.706   7.089  22.467  1.00  0.00     0.274 HD
ATOM     25  H42 UNL     1       7.586   6.415  23.281  1.00  0.00     0.274 HD
ATOM     26  H41 UNL     1       7.187   6.957  21.725  1.00  0.00     0.274 HD
ENDBRANCH  22  23
BRANCH  22  27
HETATM   27  C24 UNL     1       5.759   8.443  23.018  1.00  0.00     0.012 C 
HETATM   28  C25 UNL     1       5.064   8.702  24.311  1.00  0.00     0.012 C 
HETATM   29  C26 UNL     1       5.252   7.119  22.475  1.00  0.00     0.012 C 
ENDBRANCH  22  27
ENDBRANCH  19  22
ENDBRANCH  17  19
ENDBRANCH  13  17
BRANCH  11  30
HETATM   30  N2  UNL     1       6.814  13.595  19.149  1.00  0.00    -0.293 NA
HETATM   31  C18 UNL     1       8.129  13.977  19.692  1.00  0.00     0.116 C 
HETATM   32  C19 UNL     1       5.857  13.886  20.169  1.00  0.00     0.116 C 
ENDBRANCH  11  30
BRANCH  10  33
HETATM   33  C13 UNL     1       4.359  12.701  18.066  1.00  0.00     0.040 C 
HETATM   34  C14 UNL     1       3.193  12.171  18.864  1.00  0.00     0.008 C 
ENDBRANCH  10  33
BRANCH  10  35
HETATM   35  C15 UNL     1       5.726  11.542  16.491  1.00  0.00     0.040 C 
HETATM   36  C16 UNL     1       4.688  12.389  15.799  1.00  0.00     0.008 C 
ENDBRANCH  10  35
BRANCH   1  37
HETATM   37  C6  UNL     1       7.329   4.253  19.641  1.00  0.00     0.119 C 
BRANCH  37  38
HETATM   38  C4  UNL     1       7.324   3.139  18.687  1.00  0.00     0.056 C 
HETATM   39  C5  UNL     1       6.684   1.887  19.333  1.00  0.00     0.018 C 
BRANCH  38  40
HETATM   40  C3  UNL     1       8.690   2.677  18.241  1.00  0.00     0.012 C 
BRANCH  40  41
HETATM   41  C2  UNL     1       8.680   1.158  18.273  1.00  0.00    -0.004 C 
HETATM   42  C1  UNL     1       9.881   0.616  17.539  1.00  0.00     0.005 C 
ENDBRANCH  40  41
ENDBRANCH  38  40
ENDBRANCH  37  38
BRANCH  37  43
HETATM   43  O1  UNL     1       7.068   3.888  20.871  1.00  0.00    -0.349 OA
ATOM     44  H1  UNL     1       6.181   3.571  20.991  1.00  0.00     0.219 HD
ENDBRANCH  37  43
ENDBRANCH   1  37
TORSDOF 14
ENDMDL
MODEL 3
REMARK VINA RESULT: -7.374693708      1.840      2.467
REMARK  14 active torsions:
REMARK  status: ('A' for Active; 'I' for Inactive)
REMARK    1  A    between atoms: C2_2  and  C3_3 
REMARK    2  A    between atoms: C3_3  and  C4_4 
REMARK    3  A    between atoms: C4_4  and  C6_6 
REMARK    4  A    between atoms: C6_6  and  O1_7 
REMARK    5  A    between atoms: C6_6  and  N1_9 
REMARK    6  A    between atoms: C12_18  and  C13_19 
REMARK    7  A    between atoms: C12_18  and  C15_21 
REMARK    8  A    between atoms: C17_23  and  N2_24 
REMARK    9  A    between atoms: C21_28  and  N3_29 
REMARK   10  A    between atoms: N3_29  and  C22_31 
REMARK   11  A    between atoms: C22_31  and  O4_32 
REMARK   12  A    between atoms: C22_31  and  C23_34 
REMARK   13  A    between atoms: C23_34  and  N4_35 
REMARK   14  A    between atoms: C23_34  and  C24_39 
ROOT
HETATM    1  N1  UNL     1       7.051   5.658  19.182  1.00  0.00    -0.339 N 
ATOM      2  H1  UNL     1       7.860   6.126  18.775  1.00  0.00     0.167 HD
HETATM    3  C7  UNL     1       6.020   6.368  19.196  1.00  0.00     0.082 C 
HETATM    4  C8  UNL     1       4.794   5.764  19.769  1.00  0.00     0.094 C 
HETATM    5  C9  UNL     1       3.602   6.442  19.122  1.00  0.00     0.128 C 
HETATM    6  C10 UNL     1       2.360   5.574  19.215  1.00  0.00     0.040 C 
HETATM    7  O2  UNL     1       3.411   7.661  19.756  1.00  0.00    -0.338 OA
HETATM    8  C11 UNL     1       3.769   8.698  18.808  1.00  0.00     0.378 C 
HETATM    9  O3  UNL     1       3.207   9.817  19.276  1.00  0.00    -0.327 OA
HETATM   10  C12 UNL     1       3.084  10.948  18.517  1.00  0.00     0.102 C 
HETATM   11  C17 UNL     1       4.281  11.733  18.246  1.00  0.00     0.022 C 
HETATM   12  C20 UNL     1       5.646  11.279  18.507  1.00  0.00     0.042 C 
HETATM   13  C21 UNL     1       6.031   9.982  19.015  1.00  0.00     0.215 C 
HETATM   14  N5  UNL     1       5.205   8.829  18.819  1.00  0.00    -0.273 N 
HETATM   15  C27 UNL     1       6.140   7.759  18.686  1.00  0.00     0.272 C 
HETATM   16  O5  UNL     1       7.185   8.023  18.068  1.00  0.00    -0.266 OA
ENDROOT
BRANCH  13  17
HETATM   17  N3  UNL     1       6.279  10.009  20.463  1.00  0.00    -0.371 N 
ATOM     18  H3  UNL     1       5.544   9.787  21.134  1.00  0.00     0.158 HD
BRANCH  17  19
HETATM   19  C22 UNL     1       7.574  10.355  20.880  1.00  0.00     0.246 C 
BRANCH  19  20
HETATM   20  O4  UNL     1       8.641  10.002  20.071  1.00  0.00    -0.375 OA
ATOM     21  H4  UNL     1       9.471   9.796  20.485  1.00  0.00     0.212 HD
ENDBRANCH  19  20
BRANCH  19  22
HETATM   22  C23 UNL     1       7.935   9.881  22.284  1.00  0.00     0.234 C 
BRANCH  22  23
HETATM   23  N4  UNL     1       9.272   9.267  22.250  1.00  0.00    -0.071 N 
ATOM     24  H43 UNL     1       9.288   8.342  22.682  1.00  0.00     0.274 HD
ATOM     25  H42 UNL     1       9.549   8.989  21.309  1.00  0.00     0.274 HD
ATOM     26  H41 UNL     1       9.940   9.907  22.680  1.00  0.00     0.274 HD
ENDBRANCH  22  23
BRANCH  22  27
HETATM   27  C24 UNL     1       7.002   8.743  22.654  1.00  0.00     0.012 C 
HETATM   28  C25 UNL     1       6.557   8.740  24.076  1.00  0.00     0.012 C 
HETATM   29  C26 UNL     1       7.628   7.391  22.360  1.00  0.00     0.012 C 
ENDBRANCH  22  27
ENDBRANCH  19  22
ENDBRANCH  17  19
ENDBRANCH  13  17
BRANCH  11  30
HETATM   30  N2  UNL     1       4.204  13.149  18.555  1.00  0.00    -0.293 NA
HETATM   31  C18 UNL     1       4.089  13.970  17.338  1.00  0.00     0.116 C 
HETATM   32  C19 UNL     1       5.272  13.709  19.319  1.00  0.00     0.116 C 
ENDBRANCH  11  30
BRANCH  10  33
HETATM   33  C13 UNL     1       1.879  11.646  19.139  1.00  0.00     0.040 C 
HETATM   34  C14 UNL     1       1.247  10.901  20.289  1.00  0.00     0.008 C 
ENDBRANCH  10  33
BRANCH  10  35
HETATM   35  C15 UNL     1       2.464  10.395  17.193  1.00  0.00     0.040 C 
HETATM   36  C16 UNL     1       1.527  11.448  16.660  1.00  0.00     0.008 C 
ENDBRANCH  10  35
BRANCH   1  37
HETATM   37  C6  UNL     1       7.318   4.374  19.604  1.00  0.00     0.119 C 
BRANCH  37  38
HETATM   38  C4  UNL     1       7.282   3.103  18.875  1.00  0.00     0.056 C 
HETATM   39  C5  UNL     1       6.919   1.946  19.835  1.00  0.00     0.018 C 
BRANCH  38  40
HETATM   40  C3  UNL     1       8.597   2.685  18.260  1.00  0.00     0.012 C 
BRANCH  40  41
HETATM   41  C2  UNL     1       8.646   1.167  18.301  1.00  0.00    -0.004 C 
HETATM   42  C1  UNL     1       9.842   0.666  17.533  1.00  0.00     0.005 C 
ENDBRANCH  40  41
ENDBRANCH  38  40
ENDBRANCH  37  38
BRANCH  37  43
HETATM   43  O1  UNL     1       7.657   4.245  20.862  1.00  0.00    -0.349 OA
ATOM     44  H1  UNL     1       6.985   4.534  21.467  1.00  0.00     0.219 HD
ENDBRANCH  37  43
ENDBRANCH   1  37
TORSDOF 14
ENDMDL
MODEL 4
REMARK VINA RESULT: -7.303627831      3.657      6.619
REMARK  14 active torsions:
REMARK  status: ('A' for Active; 'I' for Inactive)
REMARK    1  A    between atoms: C2_2  and  C3_3 
REMARK    2  A    between atoms: C3_3  and  C4_4 
REMARK    3  A    between atoms: C4_4  and  C6_6 
REMARK    4  A    between atoms: C6_6  and  O1_7 
REMARK    5  A    between atoms: C6_6  and  N1_9 
REMARK    6  A    between atoms: C12_18  and  C13_19 
REMARK    7  A    between atoms: C12_18  and  C15_21 
REMARK    8  A    between atoms: C17_23  and  N2_24 
REMARK    9  A    between atoms: C21_28  and  N3_29 
REMARK   10  A    between atoms: N3_29  and  C22_31 
REMARK   11  A    between atoms: C22_31  and  O4_32 
REMARK   12  A    between atoms: C22_31  and  C23_34 
REMARK   13  A    between atoms: C23_34  and  N4_35 
REMARK   14  A    between atoms: C23_34  and  C24_39 
ROOT
HETATM    1  N1  UNL     1       9.478   9.392  22.776  1.00  0.00    -0.339 N 
ATOM      2  H1  UNL     1      10.065   9.625  21.975  1.00  0.00     0.167 HD
HETATM    3  C7  UNL     1       8.285   9.166  22.470  1.00  0.00     0.082 C 
HETATM    4  C8  UNL     1       7.360   8.817  23.573  1.00  0.00     0.094 C 
HETATM    5  C9  UNL     1       6.243   7.974  22.989  1.00  0.00     0.128 C 
HETATM    6  C10 UNL     1       5.568   7.138  24.061  1.00  0.00     0.040 C 
HETATM    7  O2  UNL     1       5.340   8.832  22.377  1.00  0.00    -0.338 OA
HETATM    8  C11 UNL     1       5.450   8.623  20.947  1.00  0.00     0.378 C 
HETATM    9  O3  UNL     1       4.331   9.133  20.425  1.00  0.00    -0.327 OA
HETATM   10  C12 UNL     1       3.938   8.879  19.141  1.00  0.00     0.102 C 
HETATM   11  C17 UNL     1       4.666   9.522  18.055  1.00  0.00     0.022 C 
HETATM   12  C20 UNL     1       5.941  10.219  18.212  1.00  0.00     0.042 C 
HETATM   13  C21 UNL     1       6.703  10.339  19.434  1.00  0.00     0.215 C 
HETATM   14  N5  UNL     1       6.592   9.368  20.480  1.00  0.00    -0.273 N 
HETATM   15  C27 UNL     1       7.904   9.322  21.041  1.00  0.00     0.272 C 
HETATM   16  O5  UNL     1       8.845   9.425  20.236  1.00  0.00    -0.266 OA
ENDROOT
BRANCH  13  17
HETATM   17  N3  UNL     1       6.469  11.625  20.106  1.00  0.00    -0.371 N 
ATOM     18  H3  UNL     1       5.589  11.826  20.580  1.00  0.00     0.158 HD
BRANCH  17  19
HETATM   19  C22 UNL     1       7.511  12.564  20.064  1.00  0.00     0.246 C 
BRANCH  19  20
HETATM   20  O4  UNL     1       8.201  12.832  21.234  1.00  0.00    -0.375 OA
ATOM     21  H4  UNL     1       8.741  12.143  21.606  1.00  0.00     0.212 HD
ENDBRANCH  19  20
BRANCH  19  22
HETATM   22  C23 UNL     1       7.119  13.920  19.487  1.00  0.00     0.234 C 
BRANCH  22  23
HETATM   23  N4  UNL     1       8.032  14.946  20.016  1.00  0.00    -0.071 N 
ATOM     24  H43 UNL     1       8.102  15.759  19.404  1.00  0.00     0.274 HD
ATOM     25  H42 UNL     1       7.654  15.418  20.837  1.00  0.00     0.274 HD
ATOM     26  H41 UNL     1       8.940  14.517  20.197  1.00  0.00     0.274 HD
ENDBRANCH  22  23
BRANCH  22  27
HETATM   27  C24 UNL     1       5.759  14.296  20.044  1.00  0.00     0.012 C 
HETATM   28  C25 UNL     1       4.721  14.580  19.013  1.00  0.00     0.012 C 
HETATM   29  C26 UNL     1       5.846  15.504  20.960  1.00  0.00     0.012 C 
ENDBRANCH  22  27
ENDBRANCH  19  22
ENDBRANCH  17  19
ENDBRANCH  13  17
BRANCH  11  30
HETATM   30  N2  UNL     1       3.865  10.245  17.085  1.00  0.00    -0.293 NA
HETATM   31  C18 UNL     1       3.891   9.600  15.762  1.00  0.00     0.116 C 
HETATM   32  C19 UNL     1       4.187  11.620  16.869  1.00  0.00     0.116 C 
ENDBRANCH  11  30
BRANCH  10  33
HETATM   33  C13 UNL     1       2.424   9.051  19.206  1.00  0.00     0.040 C 
HETATM   34  C14 UNL     1       1.959  10.164  20.114  1.00  0.00     0.008 C 
ENDBRANCH  10  33
BRANCH  10  35
HETATM   35  C15 UNL     1       4.062   7.323  19.057  1.00  0.00     0.040 C 
HETATM   36  C16 UNL     1       2.944   6.828  18.175  1.00  0.00     0.008 C 
ENDBRANCH  10  35
BRANCH   1  37
HETATM   37  C6  UNL     1      10.160   9.391  23.973  1.00  0.00     0.119 C 
BRANCH  37  38
HETATM   38  C4  UNL     1      10.446   8.298  24.908  1.00  0.00     0.056 C 
HETATM   39  C5  UNL     1       9.164   7.910  25.682  1.00  0.00     0.018 C 
BRANCH  38  40
HETATM   40  C3  UNL     1      11.452   8.628  25.983  1.00  0.00     0.012 C 
BRANCH  40  41
HETATM   41  C2  UNL     1      12.140   7.327  26.364  1.00  0.00    -0.004 C 
HETATM   42  C1  UNL     1      13.629   7.448  26.159  1.00  0.00     0.005 C 
ENDBRANCH  40  41
ENDBRANCH  38  40
ENDBRANCH  37  38
BRANCH  37  43
HETATM   43  O1  UNL     1      10.638  10.547  24.359  1.00  0.00    -0.349 OA
ATOM     44  H1  UNL     1      10.195  11.290  23.967  1.00  0.00     0.219 HD
ENDBRANCH  37  43
ENDBRANCH   1  37
TORSDOF 14
ENDMDL
MODEL 5
REMARK VINA RESULT: -7.136694501      4.191      5.648
REMARK  14 active torsions:
REMARK  status: ('A' for Active; 'I' for Inactive)
REMARK    1  A    between atoms: C2_2  and  C3_3 
REMARK    2  A    between atoms: C3_3  and  C4_4 
REMARK    3  A    between atoms: C4_4  and  C6_6 
REMARK    4  A    between atoms: C6_6  and  O1_7 
REMARK    5  A    between atoms: C6_6  and  N1_9 
REMARK    6  A    between atoms: C12_18  and  C13_19 
REMARK    7  A    between atoms: C12_18  and  C15_21 
REMARK    8  A    between atoms: C17_23  and  N2_24 
REMARK    9  A    between atoms: C21_28  and  N3_29 
REMARK   10  A    between atoms: N3_29  and  C22_31 
REMARK   11  A    between atoms: C22_31  and  O4_32 
REMARK   12  A    between atoms: C22_31  and  C23_34 
REMARK   13  A    between atoms: C23_34  and  N4_35 
REMARK   14  A    between atoms: C23_34  and  C24_39 
ROOT
HETATM    1  N1  UNL     1       6.697   3.997  19.486  1.00  0.00    -0.339 N 
ATOM      2  H1  UNL     1       6.753   4.937  19.095  1.00  0.00     0.167 HD
HETATM    3  C7  UNL     1       5.845   3.887  20.397  1.00  0.00     0.082 C 
HETATM    4  C8  UNL     1       5.695   2.553  21.022  1.00  0.00     0.094 C 
HETATM    5  C9  UNL     1       4.278   2.450  21.553  1.00  0.00     0.128 C 
HETATM    6  C10 UNL     1       3.856   1.001  21.715  1.00  0.00     0.040 C 
HETATM    7  O2  UNL     1       4.228   3.126  22.764  1.00  0.00    -0.338 OA
HETATM    8  C11 UNL     1       3.437   4.322  22.555  1.00  0.00     0.378 C 
HETATM    9  O3  UNL     1       3.071   4.724  23.777  1.00  0.00    -0.327 OA
HETATM   10  C12 UNL     1       2.089   5.654  23.979  1.00  0.00     0.102 C 
HETATM   11  C17 UNL     1       2.381   7.047  23.673  1.00  0.00     0.022 C 
HETATM   12  C20 UNL     1       3.554   7.503  22.930  1.00  0.00     0.042 C 
HETATM   13  C21 UNL     1       4.571   6.661  22.340  1.00  0.00     0.215 C 
HETATM   14  N5  UNL     1       4.288   5.314  21.948  1.00  0.00    -0.273 N 
HETATM   15  C27 UNL     1       5.109   5.116  20.797  1.00  0.00     0.272 C 
HETATM   16  O5  UNL     1       5.224   6.090  20.035  1.00  0.00    -0.266 OA
ENDROOT
BRANCH  13  17
HETATM   17  N3  UNL     1       5.758   6.548  23.198  1.00  0.00    -0.371 N 
ATOM     18  H3  UNL     1       5.731   6.038  24.081  1.00  0.00     0.158 HD
BRANCH  17  19
HETATM   19  C22 UNL     1       6.931   7.174  22.748  1.00  0.00     0.246 C 
BRANCH  19  20
HETATM   20  O4  UNL     1       7.675   6.544  21.764  1.00  0.00    -0.375 OA
ATOM     21  H4  UNL     1       8.598   6.759  21.690  1.00  0.00     0.212 HD
ENDBRANCH  19  20
BRANCH  19  22
HETATM   22  C23 UNL     1       7.918   7.540  23.852  1.00  0.00     0.234 C 
BRANCH  22  23
HETATM   23  N4  UNL     1       7.280   7.306  25.158  1.00  0.00    -0.071 N 
ATOM     24  H43 UNL     1       6.311   6.998  25.068  1.00  0.00     0.274 HD
ATOM     25  H42 UNL     1       7.648   6.479  25.628  1.00  0.00     0.274 HD
ATOM     26  H41 UNL     1       7.369   8.149  25.725  1.00  0.00     0.274 HD
ENDBRANCH  22  23
BRANCH  22  27
HETATM   27  C24 UNL     1       8.147   9.039  23.803  1.00  0.00     0.012 C 
HETATM   28  C25 UNL     1       7.579   9.716  22.602  1.00  0.00     0.012 C 
HETATM   29  C26 UNL     1       9.625   9.379  23.871  1.00  0.00     0.012 C 
ENDBRANCH  22  27
ENDBRANCH  19  22
ENDBRANCH  17  19
ENDBRANCH  13  17
BRANCH  11  30
HETATM   30  N2  UNL     1       2.105   8.007  24.726  1.00  0.00    -0.293 NA
HETATM   31  C18 UNL     1       1.105   9.005  24.309  1.00  0.00     0.116 C 
HETATM   32  C19 UNL     1       3.214   8.742  25.245  1.00  0.00     0.116 C 
ENDBRANCH  11  30
BRANCH  10  33
HETATM   33  C13 UNL     1       1.572   5.306  25.371  1.00  0.00     0.040 C 
HETATM   34  C14 UNL     1       0.128   4.867  25.411  1.00  0.00     0.008 C 
ENDBRANCH  10  33
BRANCH  10  35
HETATM   35  C15 UNL     1       0.929   5.112  23.081  1.00  0.00     0.040 C 
HETATM   36  C16 UNL     1       0.538   6.218  22.135  1.00  0.00     0.008 C 
ENDBRANCH  10  35
BRANCH   1  37
HETATM   37  C6  UNL     1       7.574   3.109  18.904  1.00  0.00     0.119 C 
BRANCH  37  38
HETATM   38  C4  UNL     1       7.454   1.667  18.665  1.00  0.00     0.056 C 
HETATM   39  C5  UNL     1       8.823   1.079  18.248  1.00  0.00     0.018 C 
BRANCH  38  40
HETATM   40  C3  UNL     1       6.520   1.284  17.541  1.00  0.00     0.012 C 
BRANCH  40  41
HETATM   41  C2  UNL     1       7.384   0.794  16.391  1.00  0.00    -0.004 C 
HETATM   42  C1  UNL     1       6.516   0.370  15.234  1.00  0.00     0.005 C 
ENDBRANCH  40  41
ENDBRANCH  38  40
ENDBRANCH  37  38
BRANCH  37  43
HETATM   43  O1  UNL     1       8.709   3.613  18.492  1.00  0.00    -0.349 OA
ATOM     44  H1  UNL     1       8.699   4.560  18.419  1.00  0.00     0.219 HD
ENDBRANCH  37  43
ENDBRANCH   1  37
TORSDOF 14
ENDMDL
