MODEL 1
REMARK VINA RESULT: -8.313982205      0.000      0.000
REMARK  13 active torsions:
REMARK  status: ('A' for Active; 'I' for Inactive)
REMARK    1  A    between atoms: C3_3  and  N1_4 
REMARK       I    between atoms: N1_4  and  C4_6 
REMARK    2  A    between atoms: C4_6  and  C5_8 
REMARK    3  A    between atoms: C7_10  and  N2_11 
REMARK       I    between atoms: N2_11  and  C8_13 
REMARK    4  A    between atoms: C8_13  and  C9_15 
REMARK    5  A    between atoms: C9_15  and  C10_17 
REMARK    6  A    between atoms: C10_17  and  C11_18 
REMARK    7  A    between atoms: C13_20  and  O4_21 
REMARK    8  A    between atoms: C13_20  and  C14_23 
REMARK    9  A    between atoms: C14_23  and  C15_24 
REMARK   10  A    between atoms: C14_23  and  N3_28 
REMARK   11  A    between atoms: C15_24  and  C16_25 
REMARK       I    between atoms: N3_28  and  C19_30 
REMARK   12  A    between atoms: C19_30  and  O6_32 
REMARK   13  A    between atoms: O6_32  and  C20_33 
ROOT
HETATM    1  C1  UNL     1      10.409   7.517  26.111  1.00  0.00     0.014 C 
HETATM    2  C2  UNL     1      10.363   8.325  25.218  1.00  0.00    -0.098 C 
HETATM    3  C3  UNL     1      10.314   9.331  24.145  1.00  0.00     0.216 C 
ENDROOT
BRANCH   3   4
HETATM    4  N1  UNL     1       9.366   8.996  23.118  1.00  0.00    -0.350 N 
HETATM    5  C4  UNL     1       8.002   8.850  23.430  1.00  0.00     0.223 C 
HETATM    6  O1  UNL     1       7.599   9.016  24.625  1.00  0.00    -0.273 OA
ATOM      7  H1  UNL     1       9.683   8.864  22.158  1.00  0.00     0.163 HD
BRANCH   5   8
HETATM    8  C5  UNL     1       7.034   8.509  22.399  1.00  0.00     0.094 C 
HETATM    9  C6  UNL     1       7.456   7.275  21.581  1.00  0.00     0.040 C 
HETATM   10  C7  UNL     1       6.463   7.418  20.448  1.00  0.00     0.092 C 
HETATM   11  C24 UNL     1       6.703   8.823  20.008  1.00  0.00     0.047 C 
HETATM   12  C25 UNL     1       8.039   9.071  19.415  1.00  0.00     0.186 C 
HETATM   13  C27 UNL     1       6.791   9.561  21.354  1.00  0.00     0.106 C 
HETATM   14  O7  UNL     1       8.693  10.078  20.187  1.00  0.00    -0.321 OA
HETATM   15  C26 UNL     1       7.874  10.527  21.183  1.00  0.00     0.264 C 
HETATM   16  O8  UNL     1       8.026  11.586  21.835  1.00  0.00    -0.265 OA
BRANCH  10  17
HETATM   17  N2  UNL     1       6.571   6.416  19.432  1.00  0.00    -0.349 N 
HETATM   18  C8  UNL     1       5.619   5.385  19.236  1.00  0.00     0.292 C 
HETATM   19  O2  UNL     1       4.614   5.324  19.987  1.00  0.00    -0.264 OA
ATOM     20  H2  UNL     1       7.380   6.446  18.813  1.00  0.00     0.163 HD
BRANCH  18  21
HETATM   21  C9  UNL     1       5.827   4.408  18.157  1.00  0.00     0.247 C 
HETATM   22  O3  UNL     1       5.778   4.861  17.008  1.00  0.00    -0.282 OA
BRANCH  21  23
HETATM   23  C10 UNL     1       6.072   2.977  18.438  1.00  0.00     0.028 C 
HETATM   24  C13 UNL     1       5.961   2.027  17.372  1.00  0.00     0.076 C 
BRANCH  23  25
HETATM   25  C11 UNL     1       7.100   2.745  19.515  1.00  0.00     0.041 C 
HETATM   26  C12 UNL     1       6.601   2.115  20.776  1.00  0.00     0.010 C 
ENDBRANCH  23  25
BRANCH  24  27
HETATM   27  O4  UNL     1       4.841   1.325  17.565  1.00  0.00    -0.362 OA
ATOM     28  H4  UNL     1       4.106   1.923  17.495  1.00  0.00     0.217 HD
ENDBRANCH  24  27
BRANCH  24  29
HETATM   29  C14 UNL     1       6.571   1.537  16.177  1.00  0.00     0.144 C 
BRANCH  29  30
HETATM   30  C15 UNL     1       8.004   1.288  16.021  1.00  0.00     0.036 C 
BRANCH  30  31
HETATM   31  C16 UNL     1       8.774   0.464  16.962  1.00  0.00    -0.020 C 
HETATM   32  C17 UNL     1       9.583  -0.632  16.277  1.00  0.00     0.009 C 
HETATM   33  C18 UNL     1       9.848   1.388  17.571  1.00  0.00     0.009 C 
ENDBRANCH  30  31
ENDBRANCH  29  30
BRANCH  29  34
HETATM   34  N3  UNL     1       6.165   2.340  15.025  1.00  0.00    -0.326 N 
HETATM   35  C19 UNL     1       5.061   1.945  14.245  1.00  0.00     0.361 C 
HETATM   36  O5  UNL     1       4.411   0.880  14.540  1.00  0.00    -0.238 OA
ATOM     37  H3  UNL     1       6.681   3.187  14.786  1.00  0.00     0.165 HD
BRANCH  35  38
HETATM   38  O6  UNL     1       4.595   2.621  13.152  1.00  0.00    -0.294 OA
BRANCH  38  39
HETATM   39  C20 UNL     1       3.926   3.828  13.095  1.00  0.00     0.061 C 
HETATM   40  C21 UNL     1       3.090   4.142  14.311  1.00  0.00     0.046 C 
HETATM   41  C22 UNL     1       4.958   4.964  13.008  1.00  0.00     0.046 C 
HETATM   42  C23 UNL     1       3.080   3.926  11.851  1.00  0.00     0.046 C 
ENDBRANCH  38  39
ENDBRANCH  35  38
ENDBRANCH  29  34
ENDBRANCH  24  29
ENDBRANCH  21  23
ENDBRANCH  18  21
ENDBRANCH  10  17
ENDBRANCH   5   8
ENDBRANCH   3   4
TORSDOF 13
ENDMDL
MODEL 2
REMARK VINA RESULT: -8.183624132      2.228      4.329
REMARK  13 active torsions:
REMARK  status: ('A' for Active; 'I' for Inactive)
REMARK    1  A    between atoms: C3_3  and  N1_4 
REMARK       I    between atoms: N1_4  and  C4_6 
REMARK    2  A    between atoms: C4_6  and  C5_8 
REMARK    3  A    between atoms: C7_10  and  N2_11 
REMARK       I    between atoms: N2_11  and  C8_13 
REMARK    4  A    between atoms: C8_13  and  C9_15 
REMARK    5  A    between atoms: C9_15  and  C10_17 
REMARK    6  A    between atoms: C10_17  and  C11_18 
REMARK    7  A    between atoms: C13_20  and  O4_21 
REMARK    8  A    between atoms: C13_20  and  C14_23 
REMARK    9  A    between atoms: C14_23  and  C15_24 
REMARK   10  A    between atoms: C14_23  and  N3_28 
REMARK   11  A    between atoms: C15_24  and  C16_25 
REMARK       I    between atoms: N3_28  and  C19_30 
REMARK   12  A    between atoms: C19_30  and  O6_32 
REMARK   13  A    between atoms: O6_32  and  C20_33 
ROOT
HETATM    1  C1  UNL     1      10.967   8.640  25.494  1.00  0.00     0.014 C 
HETATM    2  C2  UNL     1       9.860   8.164  25.504  1.00  0.00    -0.098 C 
HETATM    3  C3  UNL     1       8.516   7.567  25.535  1.00  0.00     0.216 C 
ENDROOT
BRANCH   3   4
HETATM    4  N1  UNL     1       7.883   7.564  24.244  1.00  0.00    -0.350 N 
HETATM    5  C4  UNL     1       6.685   8.271  24.038  1.00  0.00     0.223 C 
HETATM    6  O1  UNL     1       6.154   8.921  24.994  1.00  0.00    -0.273 OA
ATOM      7  H1  UNL     1       8.306   7.046  23.473  1.00  0.00     0.163 HD
BRANCH   5   8
HETATM    8  C5  UNL     1       6.034   8.272  22.736  1.00  0.00     0.094 C 
HETATM    9  C6  UNL     1       6.083   6.894  22.054  1.00  0.00     0.040 C 
HETATM   10  C7  UNL     1       5.660   7.325  20.666  1.00  0.00     0.092 C 
HETATM   11  C24 UNL     1       6.629   8.424  20.381  1.00  0.00     0.047 C 
HETATM   12  C25 UNL     1       8.043   7.993  20.264  1.00  0.00     0.186 C 
HETATM   13  C27 UNL     1       6.624   9.197  21.710  1.00  0.00     0.106 C 
HETATM   14  O7  UNL     1       8.809   8.694  21.243  1.00  0.00    -0.321 OA
HETATM   15  C26 UNL     1       8.020   9.566  21.935  1.00  0.00     0.264 C 
HETATM   16  O8  UNL     1       8.425  10.518  22.642  1.00  0.00    -0.265 OA
BRANCH  10  17
HETATM   17  N2  UNL     1       5.610   6.269  19.703  1.00  0.00    -0.349 N 
HETATM   18  C8  UNL     1       4.413   5.632  19.292  1.00  0.00     0.292 C 
HETATM   19  O2  UNL     1       3.319   5.996  19.790  1.00  0.00    -0.264 OA
ATOM     20  H2  UNL     1       6.487   5.955  19.288  1.00  0.00     0.163 HD
BRANCH  18  21
HETATM   21  C9  UNL     1       4.476   4.556  18.291  1.00  0.00     0.247 C 
HETATM   22  O3  UNL     1       3.428   3.923  18.120  1.00  0.00    -0.282 OA
BRANCH  21  23
HETATM   23  C10 UNL     1       5.718   4.255  17.546  1.00  0.00     0.028 C 
HETATM   24  C13 UNL     1       6.794   3.596  18.220  1.00  0.00     0.076 C 
BRANCH  23  25
HETATM   25  C11 UNL     1       5.485   3.963  16.086  1.00  0.00     0.041 C 
HETATM   26  C12 UNL     1       5.280   2.526  15.727  1.00  0.00     0.010 C 
ENDBRANCH  23  25
BRANCH  24  27
HETATM   27  O4  UNL     1       7.764   4.493  18.420  1.00  0.00    -0.362 OA
ATOM     28  H4  UNL     1       8.526   4.213  17.928  1.00  0.00     0.217 HD
ENDBRANCH  24  27
BRANCH  24  29
HETATM   29  C14 UNL     1       7.241   2.356  18.772  1.00  0.00     0.144 C 
BRANCH  29  30
HETATM   30  C15 UNL     1       7.646   1.195  17.979  1.00  0.00     0.036 C 
BRANCH  30  31
HETATM   31  C16 UNL     1       8.739   1.245  17.000  1.00  0.00    -0.020 C 
HETATM   32  C17 UNL     1      10.075   0.782  17.568  1.00  0.00     0.009 C 
HETATM   33  C18 UNL     1       8.409   0.186  15.927  1.00  0.00     0.009 C 
ENDBRANCH  30  31
ENDBRANCH  29  30
BRANCH  29  34
HETATM   34  N3  UNL     1       6.290   1.864  19.768  1.00  0.00    -0.326 N 
HETATM   35  C19 UNL     1       6.107   2.567  20.975  1.00  0.00     0.361 C 
HETATM   36  O5  UNL     1       6.774   3.638  21.205  1.00  0.00    -0.238 OA
ATOM     37  H3  UNL     1       5.760   1.011  19.588  1.00  0.00     0.165 HD
BRANCH  35  38
HETATM   38  O6  UNL     1       5.245   2.198  21.969  1.00  0.00    -0.294 OA
BRANCH  38  39
HETATM   39  C20 UNL     1       3.931   2.573  22.165  1.00  0.00     0.061 C 
HETATM   40  C21 UNL     1       3.032   2.364  20.971  1.00  0.00     0.046 C 
HETATM   41  C22 UNL     1       3.329   1.704  23.282  1.00  0.00     0.046 C 
HETATM   42  C23 UNL     1       3.833   4.000  22.638  1.00  0.00     0.046 C 
ENDBRANCH  38  39
ENDBRANCH  35  38
ENDBRANCH  29  34
ENDBRANCH  24  29
ENDBRANCH  21  23
ENDBRANCH  18  21
ENDBRANCH  10  17
ENDBRANCH   5   8
ENDBRANCH   3   4
TORSDOF 13
ENDMDL
MODEL 3
REMARK VINA RESULT: -7.977658930      2.608      4.770
REMARK  13 active torsions:
REMARK  status: ('A' for Active; 'I' for Inactive)
REMARK    1  A    between atoms: C3_3  and  N1_4 
REMARK       I    between atoms: N1_4  and  C4_6 
REMARK    2  A    between atoms: C4_6  and  C5_8 
REMARK    3  A    between atoms: C7_10  and  N2_11 
REMARK       I    between atoms: N2_11  and  C8_13 
REMARK    4  A    between atoms: C8_13  and  C9_15 
REMARK    5  A    between atoms: C9_15  and  C10_17 
REMARK    6  A    between atoms: C10_17  and  C11_18 
REMARK    7  A    between atoms: C13_20  and  O4_21 
REMARK    8  A    between atoms: C13_20  and  C14_23 
REMARK    9  A    between atoms: C14_23  and  C15_24 
REMARK   10  A    between atoms: C14_23  and  N3_28 
REMARK   11  A    between atoms: C15_24  and  C16_25 
REMARK       I    between atoms: N3_28  and  C19_30 
REMARK   12  A    between atoms: C19_30  and  O6_32 
REMARK   13  A    between atoms: O6_32  and  C20_33 
ROOT
HETATM    1  C1  UNL     1      11.808   7.692  26.558  1.00  0.00     0.014 C 
HETATM    2  C2  UNL     1      11.338   8.283  25.619  1.00  0.00    -0.098 C 
HETATM    3  C3  UNL     1      10.776   9.025  24.479  1.00  0.00     0.216 C 
ENDROOT
BRANCH   3   4
HETATM    4  N1  UNL     1       9.456   8.580  24.127  1.00  0.00    -0.350 N 
HETATM    5  C4  UNL     1       8.544   9.466  23.526  1.00  0.00     0.223 C 
HETATM    6  O1  UNL     1       8.884  10.669  23.287  1.00  0.00    -0.273 OA
ATOM      7  H1  UNL     1       9.178   7.617  24.314  1.00  0.00     0.163 HD
BRANCH   5   8
HETATM    8  C5  UNL     1       7.204   9.027  23.168  1.00  0.00     0.094 C 
HETATM    9  C6  UNL     1       6.903   7.599  23.655  1.00  0.00     0.040 C 
HETATM   10  C7  UNL     1       5.644   7.358  22.850  1.00  0.00     0.092 C 
HETATM   11  C24 UNL     1       6.100   7.681  21.467  1.00  0.00     0.047 C 
HETATM   12  C25 UNL     1       7.121   6.759  20.915  1.00  0.00     0.186 C 
HETATM   13  C27 UNL     1       6.903   8.971  21.697  1.00  0.00     0.106 C 
HETATM   14  O7  UNL     1       8.283   7.520  20.585  1.00  0.00    -0.321 OA
HETATM   15  C26 UNL     1       8.072   8.846  20.829  1.00  0.00     0.264 C 
HETATM   16  O8  UNL     1       8.763   9.792  20.384  1.00  0.00    -0.265 OA
BRANCH  10  17
HETATM   17  N2  UNL     1       5.060   6.064  23.031  1.00  0.00    -0.349 N 
HETATM   18  C8  UNL     1       3.670   5.805  22.940  1.00  0.00     0.292 C 
HETATM   19  O2  UNL     1       2.883   6.752  22.690  1.00  0.00    -0.264 OA
ATOM     20  H2  UNL     1       5.681   5.282  23.238  1.00  0.00     0.163 HD
BRANCH  18  21
HETATM   21  C9  UNL     1       3.177   4.434  23.141  1.00  0.00     0.247 C 
HETATM   22  O3  UNL     1       2.616   4.221  24.222  1.00  0.00    -0.282 OA
BRANCH  21  23
HETATM   23  C10 UNL     1       3.350   3.385  22.114  1.00  0.00     0.028 C 
HETATM   24  C13 UNL     1       3.599   3.769  20.758  1.00  0.00     0.076 C 
BRANCH  23  25
HETATM   25  C11 UNL     1       3.991   2.127  22.644  1.00  0.00     0.041 C 
HETATM   26  C12 UNL     1       3.540   0.846  22.019  1.00  0.00     0.010 C 
ENDBRANCH  23  25
BRANCH  24  27
HETATM   27  O4  UNL     1       2.490   3.528  20.054  1.00  0.00    -0.362 OA
ATOM     28  H4  UNL     1       2.093   2.736  20.396  1.00  0.00     0.217 HD
ENDBRANCH  24  27
BRANCH  24  29
HETATM   29  C14 UNL     1       4.564   4.317  19.858  1.00  0.00     0.144 C 
BRANCH  29  30
HETATM   30  C15 UNL     1       4.267   5.324  18.838  1.00  0.00     0.036 C 
BRANCH  30  31
HETATM   31  C16 UNL     1       5.239   5.726  17.814  1.00  0.00    -0.020 C 
HETATM   32  C17 UNL     1       4.819   5.335  16.402  1.00  0.00     0.009 C 
HETATM   33  C18 UNL     1       5.229   7.268  17.788  1.00  0.00     0.009 C 
ENDBRANCH  30  31
ENDBRANCH  29  30
BRANCH  29  34
HETATM   34  N3  UNL     1       5.300   3.250  19.182  1.00  0.00    -0.326 N 
HETATM   35  C19 UNL     1       6.473   2.727  19.760  1.00  0.00     0.361 C 
HETATM   36  O5  UNL     1       6.900   3.186  20.879  1.00  0.00    -0.238 OA
ATOM     37  H3  UNL     1       4.964   2.884  18.291  1.00  0.00     0.165 HD
BRANCH  35  38
HETATM   38  O6  UNL     1       7.234   1.730  19.217  1.00  0.00    -0.294 OA
BRANCH  38  39
HETATM   39  C20 UNL     1       8.135   1.794  18.173  1.00  0.00     0.061 C 
HETATM   40  C21 UNL     1       9.189   0.714  18.184  1.00  0.00     0.046 C 
HETATM   41  C22 UNL     1       7.376   1.607  16.849  1.00  0.00     0.046 C 
HETATM   42  C23 UNL     1       8.791   3.150  18.098  1.00  0.00     0.046 C 
ENDBRANCH  38  39
ENDBRANCH  35  38
ENDBRANCH  29  34
ENDBRANCH  24  29
ENDBRANCH  21  23
ENDBRANCH  18  21
ENDBRANCH  10  17
ENDBRANCH   5   8
ENDBRANCH   3   4
TORSDOF 13
ENDMDL
MODEL 4
REMARK VINA RESULT: -7.967914037      1.990      4.216
REMARK  13 active torsions:
REMARK  status: ('A' for Active; 'I' for Inactive)
REMARK    1  A    between atoms: C3_3  and  N1_4 
REMARK       I    between atoms: N1_4  and  C4_6 
REMARK    2  A    between atoms: C4_6  and  C5_8 
REMARK    3  A    between atoms: C7_10  and  N2_11 
REMARK       I    between atoms: N2_11  and  C8_13 
REMARK    4  A    between atoms: C8_13  and  C9_15 
REMARK    5  A    between atoms: C9_15  and  C10_17 
REMARK    6  A    between atoms: C10_17  and  C11_18 
REMARK    7  A    between atoms: C13_20  and  O4_21 
REMARK    8  A    between atoms: C13_20  and  C14_23 
REMARK    9  A    between atoms: C14_23  and  C15_24 
REMARK   10  A    between atoms: C14_23  and  N3_28 
REMARK   11  A    between atoms: C15_24  and  C16_25 
REMARK       I    between atoms: N3_28  and  C19_30 
REMARK   12  A    between atoms: C19_30  and  O6_32 
REMARK   13  A    between atoms: O6_32  and  C20_33 
ROOT
HETATM    1  C1  UNL     1      10.144   9.102  24.090  1.00  0.00     0.014 C 
HETATM    2  C2  UNL     1       8.977   8.830  24.217  1.00  0.00    -0.098 C 
HETATM    3  C3  UNL     1       7.559   8.480  24.389  1.00  0.00     0.216 C 
ENDROOT
BRANCH   3   4
HETATM    4  N1  UNL     1       6.791   8.683  23.191  1.00  0.00    -0.350 N 
HETATM    5  C4  UNL     1       6.929   7.806  22.101  1.00  0.00     0.223 C 
HETATM    6  O1  UNL     1       7.736   6.824  22.169  1.00  0.00    -0.273 OA
ATOM      7  H1  UNL     1       6.141   9.467  23.132  1.00  0.00     0.163 HD
BRANCH   5   8
HETATM    8  C5  UNL     1       6.159   8.004  20.882  1.00  0.00     0.094 C 
HETATM    9  C6  UNL     1       6.345   6.855  19.876  1.00  0.00     0.040 C 
HETATM   10  C7  UNL     1       5.726   7.524  18.668  1.00  0.00     0.092 C 
HETATM   11  C24 UNL     1       6.486   8.807  18.608  1.00  0.00     0.047 C 
HETATM   12  C25 UNL     1       7.930   8.663  18.302  1.00  0.00     0.186 C 
HETATM   13  C27 UNL     1       6.498   9.231  20.086  1.00  0.00     0.106 C 
HETATM   14  O7  UNL     1       8.676   9.231  19.378  1.00  0.00    -0.321 OA
HETATM   15  C26 UNL     1       7.839   9.768  20.312  1.00  0.00     0.264 C 
HETATM   16  O8  UNL     1       8.165  10.581  21.208  1.00  0.00    -0.265 OA
BRANCH  10  17
HETATM   17  N2  UNL     1       5.738   6.732  17.476  1.00  0.00    -0.349 N 
HETATM   18  C8  UNL     1       4.571   6.232  16.849  1.00  0.00     0.292 C 
HETATM   19  O2  UNL     1       3.447   6.481  17.351  1.00  0.00    -0.264 OA
ATOM     20  H2  UNL     1       6.641   6.516  17.054  1.00  0.00     0.163 HD
BRANCH  18  21
HETATM   21  C9  UNL     1       4.699   5.429  15.623  1.00  0.00     0.247 C 
HETATM   22  O3  UNL     1       5.046   6.050  14.612  1.00  0.00    -0.282 OA
BRANCH  21  23
HETATM   23  C10 UNL     1       4.424   3.976  15.610  1.00  0.00     0.028 C 
HETATM   24  C13 UNL     1       5.448   3.068  16.030  1.00  0.00     0.076 C 
BRANCH  23  25
HETATM   25  C11 UNL     1       2.985   3.636  15.900  1.00  0.00     0.041 C 
HETATM   26  C12 UNL     1       2.585   2.215  15.664  1.00  0.00     0.010 C 
ENDBRANCH  23  25
BRANCH  24  27
HETATM   27  O4  UNL     1       5.918   2.449  14.943  1.00  0.00    -0.362 OA
ATOM     28  H4  UNL     1       6.819   2.724  14.818  1.00  0.00     0.217 HD
ENDBRANCH  24  27
BRANCH  24  29
HETATM   29  C14 UNL     1       6.173   2.565  17.153  1.00  0.00     0.144 C 
BRANCH  29  30
HETATM   30  C15 UNL     1       7.283   1.615  17.064  1.00  0.00     0.036 C 
BRANCH  30  31
HETATM   31  C16 UNL     1       8.336   1.527  18.083  1.00  0.00    -0.020 C 
HETATM   32  C17 UNL     1       9.614   0.874  17.569  1.00  0.00     0.009 C 
HETATM   33  C18 UNL     1       8.763   2.977  18.392  1.00  0.00     0.009 C 
ENDBRANCH  30  31
ENDBRANCH  29  30
BRANCH  29  34
HETATM   34  N3  UNL     1       5.257   2.035  18.161  1.00  0.00    -0.326 N 
HETATM   35  C19 UNL     1       4.842   2.849  19.233  1.00  0.00     0.361 C 
HETATM   36  O5  UNL     1       5.268   4.055  19.329  1.00  0.00    -0.238 OA
ATOM     37  H3  UNL     1       4.919   1.075  18.089  1.00  0.00     0.165 HD
BRANCH  35  38
HETATM   38  O6  UNL     1       3.989   2.457  20.226  1.00  0.00    -0.294 OA
BRANCH  38  39
HETATM   39  C20 UNL     1       4.274   2.107  21.531  1.00  0.00     0.061 C 
HETATM   40  C21 UNL     1       3.620   0.830  21.998  1.00  0.00     0.046 C 
HETATM   41  C22 UNL     1       5.785   1.860  21.659  1.00  0.00     0.046 C 
HETATM   42  C23 UNL     1       3.945   3.230  22.482  1.00  0.00     0.046 C 
ENDBRANCH  38  39
ENDBRANCH  35  38
ENDBRANCH  29  34
ENDBRANCH  24  29
ENDBRANCH  21  23
ENDBRANCH  18  21
ENDBRANCH  10  17
ENDBRANCH   5   8
ENDBRANCH   3   4
TORSDOF 13
ENDMDL
MODEL 5
REMARK VINA RESULT: -7.853826375      2.730      5.336
REMARK  13 active torsions:
REMARK  status: ('A' for Active; 'I' for Inactive)
REMARK    1  A    between atoms: C3_3  and  N1_4 
REMARK       I    between atoms: N1_4  and  C4_6 
REMARK    2  A    between atoms: C4_6  and  C5_8 
REMARK    3  A    between atoms: C7_10  and  N2_11 
REMARK       I    between atoms: N2_11  and  C8_13 
REMARK    4  A    between atoms: C8_13  and  C9_15 
REMARK    5  A    between atoms: C9_15  and  C10_17 
REMARK    6  A    between atoms: C10_17  and  C11_18 
REMARK    7  A    between atoms: C13_20  and  O4_21 
REMARK    8  A    between atoms: C13_20  and  C14_23 
REMARK    9  A    between atoms: C14_23  and  C15_24 
REMARK   10  A    between atoms: C14_23  and  N3_28 
REMARK   11  A    between atoms: C15_24  and  C16_25 
REMARK       I    between atoms: N3_28  and  C19_30 
REMARK   12  A    between atoms: C19_30  and  O6_32 
REMARK   13  A    between atoms: O6_32  and  C20_33 
ROOT
HETATM    1  C1  UNL     1      11.054   7.889  26.085  1.00  0.00     0.014 C 
HETATM    2  C2  UNL     1      10.745   8.675  25.226  1.00  0.00    -0.098 C 
HETATM    3  C3  UNL     1      10.370   9.654  24.194  1.00  0.00     0.216 C 
ENDROOT
BRANCH   3   4
HETATM    4  N1  UNL     1       9.463   9.110  23.220  1.00  0.00    -0.350 N 
HETATM    5  C4  UNL     1       8.091   9.003  23.508  1.00  0.00     0.223 C 
HETATM    6  O1  UNL     1       7.643   9.389  24.635  1.00  0.00    -0.273 OA
ATOM      7  H1  UNL     1       9.817   8.801  22.315  1.00  0.00     0.163 HD
BRANCH   5   8
HETATM    8  C5  UNL     1       7.165   8.451  22.531  1.00  0.00     0.094 C 
HETATM    9  C6  UNL     1       7.637   7.097  21.973  1.00  0.00     0.040 C 
HETATM   10  C7  UNL     1       6.681   7.001  20.804  1.00  0.00     0.092 C 
HETATM   11  C24 UNL     1       6.910   8.304  20.115  1.00  0.00     0.047 C 
HETATM   12  C25 UNL     1       8.261   8.469  19.527  1.00  0.00     0.186 C 
HETATM   13  C27 UNL     1       6.939   9.282  21.300  1.00  0.00     0.106 C 
HETATM   14  O7  UNL     1       8.870   9.619  20.115  1.00  0.00    -0.321 OA
HETATM   15  C26 UNL     1       8.009  10.226  20.983  1.00  0.00     0.264 C 
HETATM   16  O8  UNL     1       8.120  11.391  21.429  1.00  0.00    -0.265 OA
BRANCH  10  17
HETATM   17  N2  UNL     1       6.841   5.829  19.998  1.00  0.00    -0.349 N 
HETATM   18  C8  UNL     1       5.786   5.213  19.282  1.00  0.00     0.292 C 
HETATM   19  O2  UNL     1       4.631   5.703  19.344  1.00  0.00    -0.264 OA
ATOM     20  H2  UNL     1       7.770   5.413  19.935  1.00  0.00     0.163 HD
BRANCH  18  21
HETATM   21  C9  UNL     1       6.063   4.012  18.480  1.00  0.00     0.247 C 
HETATM   22  O3  UNL     1       6.143   4.191  17.259  1.00  0.00    -0.282 OA
BRANCH  21  23
HETATM   23  C10 UNL     1       6.229   2.680  19.102  1.00  0.00     0.028 C 
HETATM   24  C13 UNL     1       5.602   2.414  20.361  1.00  0.00     0.076 C 
BRANCH  23  25
HETATM   25  C11 UNL     1       6.353   1.562  18.099  1.00  0.00     0.041 C 
HETATM   26  C12 UNL     1       7.745   1.139  17.753  1.00  0.00     0.010 C 
ENDBRANCH  23  25
BRANCH  24  27
HETATM   27  O4  UNL     1       6.556   2.380  21.295  1.00  0.00    -0.362 OA
ATOM     28  H4  UNL     1       6.257   1.814  21.996  1.00  0.00     0.217 HD
ENDBRANCH  24  27
BRANCH  24  29
HETATM   29  C14 UNL     1       4.355   2.177  21.016  1.00  0.00     0.144 C 
BRANCH  29  30
HETATM   30  C15 UNL     1       3.400   1.139  20.628  1.00  0.00     0.036 C 
BRANCH  30  31
HETATM   31  C16 UNL     1       2.627   0.365  21.608  1.00  0.00    -0.020 C 
HETATM   32  C17 UNL     1       2.120  -0.963  21.057  1.00  0.00     0.009 C 
HETATM   33  C18 UNL     1       3.620  -0.051  22.713  1.00  0.00     0.009 C 
ENDBRANCH  30  31
ENDBRANCH  29  30
BRANCH  29  34
HETATM   34  N3  UNL     1       3.591   3.418  21.133  1.00  0.00    -0.326 N 
HETATM   35  C19 UNL     1       3.279   3.937  22.404  1.00  0.00     0.361 C 
HETATM   36  O5  UNL     1       3.661   3.321  23.463  1.00  0.00    -0.238 OA
ATOM     37  H3  UNL     1       3.284   3.908  20.293  1.00  0.00     0.165 HD
BRANCH  35  38
HETATM   38  O6  UNL     1       2.575   5.086  22.627  1.00  0.00    -0.294 OA
BRANCH  38  39
HETATM   39  C20 UNL     1       3.018   6.296  23.123  1.00  0.00     0.061 C 
HETATM   40  C21 UNL     1       4.418   6.271  23.685  1.00  0.00     0.046 C 
HETATM   41  C22 UNL     1       3.060   7.318  21.975  1.00  0.00     0.046 C 
HETATM   42  C23 UNL     1       2.063   6.850  24.150  1.00  0.00     0.046 C 
ENDBRANCH  38  39
ENDBRANCH  35  38
ENDBRANCH  29  34
ENDBRANCH  24  29
ENDBRANCH  21  23
ENDBRANCH  18  21
ENDBRANCH  10  17
ENDBRANCH   5   8
ENDBRANCH   3   4
TORSDOF 13
ENDMDL
