MODEL 1
REMARK VINA RESULT: -9.213479867      0.000      0.000
REMARK  14 active torsions:
REMARK  status: ('A' for Active; 'I' for Inactive)
REMARK    1  A    between atoms: C3_3  and  C4_4 
REMARK    2  A    between atoms: C3_3  and  N2_15 
REMARK    3  A    between atoms: C4_4  and  C5_5 
REMARK    4  A    between atoms: C5_5  and  C6_6 
REMARK    5  A    between atoms: C6_6  and  C7_7 
REMARK    6  A    between atoms: C7_7  and  C8_8 
REMARK    7  A    between atoms: C8_8  and  O1_9 
REMARK    8  A    between atoms: N1_11  and  O2_13 
REMARK       I    between atoms: N2_15  and  C9_17 
REMARK    9  A    between atoms: C9_17  and  C10_19 
REMARK       I    between atoms: N3_28  and  C19_29 
REMARK   10  A    between atoms: C19_29  and  C20_31 
REMARK   11  A    between atoms: C20_31  and  C21_32 
REMARK   12  A    between atoms: C21_32  and  C22_33 
REMARK   13  A    between atoms: C22_33  and  O6_35 
REMARK   14  A    between atoms: O6_35  and  C23_36 
ROOT
HETATM    1  C1  UNL     1       7.393  11.679  20.848  1.00  0.00     0.099 C 
HETATM    2  C2  UNL     1       7.368  10.530  21.295  1.00  0.00    -0.162 C 
HETATM    3  C3  UNL     1       7.313   9.169  21.766  1.00  0.00     0.151 C 
ENDROOT
BRANCH   3   4
HETATM    4  C4  UNL     1       8.591   8.730  22.387  1.00  0.00     0.037 C 
BRANCH   4   5
HETATM    5  C5  UNL     1       9.105   9.408  23.575  1.00  0.00     0.003 C 
BRANCH   5   6
HETATM    6  C6  UNL     1      10.235   8.844  24.344  1.00  0.00     0.008 C 
BRANCH   6   7
HETATM    7  C7  UNL     1       9.694   8.011  25.545  1.00  0.00     0.086 C 
BRANCH   7   8
HETATM    8  C8  UNL     1      10.851   7.470  26.299  1.00  0.00     0.135 C 
HETATM    9  N1  UNL     1      10.636   6.882  27.437  1.00  0.00    -0.251 N 
ATOM     10  H1  UNL     1      11.420   6.505  27.969  1.00  0.00     0.196 HD
BRANCH   8  11
HETATM   11  O1  UNL     1      12.150   7.567  25.836  1.00  0.00    -0.348 OA
ATOM     12  H1  UNL     1      12.422   8.233  25.215  1.00  0.00     0.219 HD
ENDBRANCH   8  11
BRANCH   9  13
HETATM   13  O2  UNL     1       9.351   6.766  27.932  1.00  0.00    -0.288 OA
ATOM     14  H2  UNL     1       9.203   6.671  28.866  1.00  0.00     0.244 HD
ENDBRANCH   9  13
ENDBRANCH   7   8
ENDBRANCH   6   7
ENDBRANCH   5   6
ENDBRANCH   4   5
ENDBRANCH   3   4
BRANCH   3  15
HETATM   15  N2  UNL     1       6.916   8.253  20.691  1.00  0.00    -0.345 N 
HETATM   16  C9  UNL     1       7.002   6.844  20.813  1.00  0.00     0.241 C 
HETATM   17  O3  UNL     1       7.440   6.373  21.890  1.00  0.00    -0.271 OA
ATOM     18  H2  UNL     1       6.563   8.646  19.819  1.00  0.00     0.163 HD
BRANCH  16  19
HETATM   19  C10 UNL     1       6.571   6.008  19.660  1.00  0.00     0.179 C 
HETATM   20  C11 UNL     1       7.701   5.356  18.974  1.00  0.00     0.040 C 
HETATM   21  C12 UNL     1       7.475   4.013  18.393  1.00  0.00    -0.006 C 
HETATM   22  C13 UNL     1       8.789   3.281  18.184  1.00  0.00     0.005 C 
HETATM   23  C17 UNL     1       6.552   3.107  19.128  1.00  0.00     0.008 C 
HETATM   24  C14 UNL     1       8.500   1.917  17.580  1.00  0.00     0.000 C 
HETATM   25  C15 UNL     1       7.989   1.066  18.740  1.00  0.00     0.000 C 
HETATM   26  C16 UNL     1       7.281   1.914  19.740  1.00  0.00     0.006 C 
HETATM   27  C18 UNL     1       5.809   3.746  20.261  1.00  0.00     0.131 C 
HETATM   28  N3  UNL     1       5.502   5.122  20.063  1.00  0.00    -0.338 N 
HETATM   29  C19 UNL     1       4.158   5.600  20.275  1.00  0.00     0.221 C 
HETATM   30  O4  UNL     1       3.975   6.826  20.085  1.00  0.00    -0.273 OA
BRANCH  29  31
HETATM   31  C20 UNL     1       3.082   4.684  20.688  1.00  0.00     0.112 C 
BRANCH  31  32
HETATM   32  C21 UNL     1       2.522   4.945  22.052  1.00  0.00     0.120 C 
BRANCH  32  33
HETATM   33  C22 UNL     1       3.513   4.670  23.121  1.00  0.00     0.260 C 
HETATM   34  O5  UNL     1       3.950   3.493  23.278  1.00  0.00    -0.265 OA
BRANCH  33  35
HETATM   35  O6  UNL     1       4.009   5.617  23.981  1.00  0.00    -0.308 OA
BRANCH  35  36
HETATM   36  C23 UNL     1       4.368   6.935  23.539  1.00  0.00     0.205 C 
HETATM   37  C24 UNL     1       5.414   7.432  24.547  1.00  0.00     0.066 C 
HETATM   38  C25 UNL     1       5.039   8.821  25.029  1.00  0.00     0.171 C 
HETATM   39  O7  UNL     1       3.876   8.799  25.792  1.00  0.00    -0.384 OA
HETATM   40  C26 UNL     1       2.834   8.150  25.133  1.00  0.00     0.248 C 
HETATM   41  C27 UNL     1       3.209   7.852  23.699  1.00  0.00     0.179 C 
HETATM   42  O8  UNL     1       2.605   8.332  22.765  1.00  0.00    -0.293 OA
ENDBRANCH  35  36
ENDBRANCH  33  35
ENDBRANCH  32  33
ENDBRANCH  31  32
ENDBRANCH  29  31
ENDBRANCH  16  19
ENDBRANCH   3  15
TORSDOF 14
ENDMDL
MODEL 2
REMARK VINA RESULT: -9.195868806      2.865      5.328
REMARK  14 active torsions:
REMARK  status: ('A' for Active; 'I' for Inactive)
REMARK    1  A    between atoms: C3_3  and  C4_4 
REMARK    2  A    between atoms: C3_3  and  N2_15 
REMARK    3  A    between atoms: C4_4  and  C5_5 
REMARK    4  A    between atoms: C5_5  and  C6_6 
REMARK    5  A    between atoms: C6_6  and  C7_7 
REMARK    6  A    between atoms: C7_7  and  C8_8 
REMARK    7  A    between atoms: C8_8  and  O1_9 
REMARK    8  A    between atoms: N1_11  and  O2_13 
REMARK       I    between atoms: N2_15  and  C9_17 
REMARK    9  A    between atoms: C9_17  and  C10_19 
REMARK       I    between atoms: N3_28  and  C19_29 
REMARK   10  A    between atoms: C19_29  and  C20_31 
REMARK   11  A    between atoms: C20_31  and  C21_32 
REMARK   12  A    between atoms: C21_32  and  C22_33 
REMARK   13  A    between atoms: C22_33  and  O6_35 
REMARK   14  A    between atoms: O6_35  and  C23_36 
ROOT
HETATM    1  C1  UNL     1       2.473   8.204  22.075  1.00  0.00     0.099 C 
HETATM    2  C2  UNL     1       3.270   7.454  22.641  1.00  0.00    -0.162 C 
HETATM    3  C3  UNL     1       4.233   6.571  23.251  1.00  0.00     0.151 C 
ENDROOT
BRANCH   3   4
HETATM    4  C4  UNL     1       4.721   7.079  24.561  1.00  0.00     0.037 C 
BRANCH   4   5
HETATM    5  C5  UNL     1       5.422   8.359  24.640  1.00  0.00     0.003 C 
BRANCH   5   6
HETATM    6  C6  UNL     1       6.899   8.415  24.685  1.00  0.00     0.008 C 
BRANCH   6   7
HETATM    7  C7  UNL     1       7.448   8.981  23.341  1.00  0.00     0.086 C 
BRANCH   7   8
HETATM    8  C8  UNL     1       8.902   9.229  23.496  1.00  0.00     0.135 C 
HETATM    9  N1  UNL     1       9.645   9.276  22.432  1.00  0.00    -0.251 N 
ATOM     10  H1  UNL     1      10.647   9.446  22.520  1.00  0.00     0.196 HD
BRANCH   8  11
HETATM   11  O1  UNL     1       9.496   9.414  24.730  1.00  0.00    -0.348 OA
ATOM     12  H1  UNL     1       9.130   9.058  25.531  1.00  0.00     0.219 HD
ENDBRANCH   8  11
BRANCH   9  13
HETATM   13  O2  UNL     1       9.087   9.097  21.180  1.00  0.00    -0.288 OA
ATOM     14  H2  UNL     1       9.639   9.067  20.408  1.00  0.00     0.244 HD
ENDBRANCH   9  13
ENDBRANCH   7   8
ENDBRANCH   6   7
ENDBRANCH   5   6
ENDBRANCH   4   5
ENDBRANCH   3   4
BRANCH   3  15
HETATM   15  N2  UNL     1       5.356   6.305  22.346  1.00  0.00    -0.345 N 
HETATM   16  C9  UNL     1       5.348   5.248  21.403  1.00  0.00     0.241 C 
HETATM   17  O3  UNL     1       4.333   4.514  21.352  1.00  0.00    -0.271 OA
ATOM     18  H2  UNL     1       6.178   6.907  22.398  1.00  0.00     0.163 HD
BRANCH  16  19
HETATM   19  C10 UNL     1       6.542   5.069  20.533  1.00  0.00     0.179 C 
HETATM   20  C11 UNL     1       6.993   3.668  20.462  1.00  0.00     0.040 C 
HETATM   21  C12 UNL     1       7.575   3.192  19.186  1.00  0.00    -0.006 C 
HETATM   22  C13 UNL     1       7.520   1.678  19.092  1.00  0.00     0.005 C 
HETATM   23  C17 UNL     1       7.003   3.755  17.933  1.00  0.00     0.008 C 
HETATM   24  C14 UNL     1       8.136   1.246  17.772  1.00  0.00     0.000 C 
HETATM   25  C15 UNL     1       7.072   1.542  16.718  1.00  0.00     0.000 C 
HETATM   26  C16 UNL     1       6.240   2.708  17.127  1.00  0.00     0.006 C 
HETATM   27  C18 UNL     1       6.042   4.888  18.129  1.00  0.00     0.131 C 
HETATM   28  N3  UNL     1       6.324   5.711  19.256  1.00  0.00    -0.338 N 
HETATM   29  C19 UNL     1       6.375   7.145  19.107  1.00  0.00     0.221 C 
HETATM   30  O4  UNL     1       6.624   7.797  20.150  1.00  0.00    -0.273 OA
BRANCH  29  31
HETATM   31  C20 UNL     1       6.148   7.782  17.800  1.00  0.00     0.112 C 
BRANCH  31  32
HETATM   32  C21 UNL     1       5.666   9.198  17.864  1.00  0.00     0.120 C 
BRANCH  32  33
HETATM   33  C22 UNL     1       6.695  10.157  17.394  1.00  0.00     0.260 C 
HETATM   34  O5  UNL     1       7.146  10.059  16.216  1.00  0.00    -0.265 OA
BRANCH  33  35
HETATM   35  O6  UNL     1       7.214  11.174  18.156  1.00  0.00    -0.308 OA
BRANCH  35  36
HETATM   36  C23 UNL     1       6.578  11.626  19.361  1.00  0.00     0.205 C 
HETATM   37  C24 UNL     1       5.677  12.793  18.933  1.00  0.00     0.066 C 
HETATM   38  C25 UNL     1       5.916  13.982  19.845  1.00  0.00     0.171 C 
HETATM   39  O7  UNL     1       7.191  14.510  19.670  1.00  0.00    -0.384 OA
HETATM   40  C26 UNL     1       8.178  13.532  19.779  1.00  0.00     0.248 C 
HETATM   41  C27 UNL     1       7.589  12.228  20.268  1.00  0.00     0.179 C 
HETATM   42  O8  UNL     1       7.924  11.728  21.320  1.00  0.00    -0.293 OA
ENDBRANCH  35  36
ENDBRANCH  33  35
ENDBRANCH  32  33
ENDBRANCH  31  32
ENDBRANCH  29  31
ENDBRANCH  16  19
ENDBRANCH   3  15
TORSDOF 14
ENDMDL
MODEL 3
REMARK VINA RESULT: -9.178086126      2.873      5.022
REMARK  14 active torsions:
REMARK  status: ('A' for Active; 'I' for Inactive)
REMARK    1  A    between atoms: C3_3  and  C4_4 
REMARK    2  A    between atoms: C3_3  and  N2_15 
REMARK    3  A    between atoms: C4_4  and  C5_5 
REMARK    4  A    between atoms: C5_5  and  C6_6 
REMARK    5  A    between atoms: C6_6  and  C7_7 
REMARK    6  A    between atoms: C7_7  and  C8_8 
REMARK    7  A    between atoms: C8_8  and  O1_9 
REMARK    8  A    between atoms: N1_11  and  O2_13 
REMARK       I    between atoms: N2_15  and  C9_17 
REMARK    9  A    between atoms: C9_17  and  C10_19 
REMARK       I    between atoms: N3_28  and  C19_29 
REMARK   10  A    between atoms: C19_29  and  C20_31 
REMARK   11  A    between atoms: C20_31  and  C21_32 
REMARK   12  A    between atoms: C21_32  and  C22_33 
REMARK   13  A    between atoms: C22_33  and  O6_35 
REMARK   14  A    between atoms: O6_35  and  C23_36 
ROOT
HETATM    1  C1  UNL     1       3.755   8.304  22.977  1.00  0.00     0.099 C 
HETATM    2  C2  UNL     1       4.854   7.854  23.308  1.00  0.00    -0.162 C 
HETATM    3  C3  UNL     1       6.147   7.309  23.639  1.00  0.00     0.151 C 
ENDROOT
BRANCH   3   4
HETATM    4  C4  UNL     1       6.975   8.252  24.437  1.00  0.00     0.037 C 
BRANCH   4   5
HETATM    5  C5  UNL     1       8.433   8.161  24.405  1.00  0.00     0.003 C 
BRANCH   5   6
HETATM    6  C6  UNL     1       9.204   7.872  25.633  1.00  0.00     0.008 C 
BRANCH   6   7
HETATM    7  C7  UNL     1      10.682   8.333  25.452  1.00  0.00     0.086 C 
BRANCH   7   8
HETATM    8  C8  UNL     1      11.542   7.513  26.339  1.00  0.00     0.135 C 
HETATM    9  N1  UNL     1      12.739   7.206  25.940  1.00  0.00    -0.251 N 
ATOM     10  H1  UNL     1      13.343   6.643  26.538  1.00  0.00     0.196 HD
BRANCH   8  11
HETATM   11  O1  UNL     1      11.118   7.065  27.576  1.00  0.00    -0.348 OA
ATOM     12  H1  UNL     1      10.250   7.250  27.916  1.00  0.00     0.219 HD
ENDBRANCH   8  11
BRANCH   9  13
HETATM   13  O2  UNL     1      13.198   7.637  24.710  1.00  0.00    -0.288 OA
ATOM     14  H2  UNL     1      13.439   7.008  24.040  1.00  0.00     0.244 HD
ENDBRANCH   9  13
ENDBRANCH   7   8
ENDBRANCH   6   7
ENDBRANCH   5   6
ENDBRANCH   4   5
ENDBRANCH   3   4
BRANCH   3  15
HETATM   15  N2  UNL     1       6.865   6.880  22.434  1.00  0.00    -0.345 N 
HETATM   16  C9  UNL     1       6.341   5.927  21.526  1.00  0.00     0.241 C 
HETATM   17  O3  UNL     1       5.216   5.434  21.778  1.00  0.00    -0.271 OA
ATOM     18  H2  UNL     1       7.781   7.286  22.240  1.00  0.00     0.163 HD
BRANCH  16  19
HETATM   19  C10 UNL     1       7.154   5.565  20.335  1.00  0.00     0.179 C 
HETATM   20  C11 UNL     1       7.471   4.127  20.274  1.00  0.00     0.040 C 
HETATM   21  C12 UNL     1       7.556   3.493  18.939  1.00  0.00    -0.006 C 
HETATM   22  C13 UNL     1       7.384   1.987  19.037  1.00  0.00     0.005 C 
HETATM   23  C17 UNL     1       6.625   3.997  17.893  1.00  0.00     0.008 C 
HETATM   24  C14 UNL     1       7.487   1.389  17.644  1.00  0.00     0.000 C 
HETATM   25  C15 UNL     1       6.147   1.691  16.979  1.00  0.00     0.000 C 
HETATM   26  C16 UNL     1       5.573   2.960  17.509  1.00  0.00     0.006 C 
HETATM   27  C18 UNL     1       5.856   5.226  18.271  1.00  0.00     0.131 C 
HETATM   28  N3  UNL     1       6.552   6.113  19.140  1.00  0.00    -0.338 N 
HETATM   29  C19 UNL     1       6.633   7.518  18.823  1.00  0.00     0.221 C 
HETATM   30  O4  UNL     1       7.260   8.231  19.644  1.00  0.00    -0.273 OA
BRANCH  29  31
HETATM   31  C20 UNL     1       6.012   8.059  17.604  1.00  0.00     0.112 C 
BRANCH  31  32
HETATM   32  C21 UNL     1       5.555   9.481  17.708  1.00  0.00     0.120 C 
BRANCH  32  33
HETATM   33  C22 UNL     1       6.579  10.433  17.212  1.00  0.00     0.260 C 
HETATM   34  O5  UNL     1       7.152  10.210  16.106  1.00  0.00    -0.265 OA
BRANCH  33  35
HETATM   35  O6  UNL     1       6.969  11.569  17.876  1.00  0.00    -0.308 OA
BRANCH  35  36
HETATM   36  C23 UNL     1       6.426  11.929  19.155  1.00  0.00     0.205 C 
HETATM   37  C24 UNL     1       5.677  13.249  18.922  1.00  0.00     0.066 C 
HETATM   38  C25 UNL     1       6.092  14.263  19.971  1.00  0.00     0.171 C 
HETATM   39  O7  UNL     1       7.421  14.644  19.816  1.00  0.00    -0.384 OA
HETATM   40  C26 UNL     1       8.272  13.542  19.755  1.00  0.00     0.248 C 
HETATM   41  C27 UNL     1       7.529  12.270  20.092  1.00  0.00     0.179 C 
HETATM   42  O8  UNL     1       7.819  11.592  21.054  1.00  0.00    -0.293 OA
ENDBRANCH  35  36
ENDBRANCH  33  35
ENDBRANCH  32  33
ENDBRANCH  31  32
ENDBRANCH  29  31
ENDBRANCH  16  19
ENDBRANCH   3  15
TORSDOF 14
ENDMDL
MODEL 4
REMARK VINA RESULT: -8.893066868      2.756      5.002
REMARK  14 active torsions:
REMARK  status: ('A' for Active; 'I' for Inactive)
REMARK    1  A    between atoms: C3_3  and  C4_4 
REMARK    2  A    between atoms: C3_3  and  N2_15 
REMARK    3  A    between atoms: C4_4  and  C5_5 
REMARK    4  A    between atoms: C5_5  and  C6_6 
REMARK    5  A    between atoms: C6_6  and  C7_7 
REMARK    6  A    between atoms: C7_7  and  C8_8 
REMARK    7  A    between atoms: C8_8  and  O1_9 
REMARK    8  A    between atoms: N1_11  and  O2_13 
REMARK       I    between atoms: N2_15  and  C9_17 
REMARK    9  A    between atoms: C9_17  and  C10_19 
REMARK       I    between atoms: N3_28  and  C19_29 
REMARK   10  A    between atoms: C19_29  and  C20_31 
REMARK   11  A    between atoms: C20_31  and  C21_32 
REMARK   12  A    between atoms: C21_32  and  C22_33 
REMARK   13  A    between atoms: C22_33  and  O6_35 
REMARK   14  A    between atoms: O6_35  and  C23_36 
ROOT
HETATM    1  C1  UNL     1       2.734   7.925  22.342  1.00  0.00     0.099 C 
HETATM    2  C2  UNL     1       3.676   7.324  22.861  1.00  0.00    -0.162 C 
HETATM    3  C3  UNL     1       4.800   6.611  23.414  1.00  0.00     0.151 C 
ENDROOT
BRANCH   3   4
HETATM    4  C4  UNL     1       5.407   7.316  24.574  1.00  0.00     0.037 C 
BRANCH   4   5
HETATM    5  C5  UNL     1       6.099   8.589  24.384  1.00  0.00     0.003 C 
BRANCH   5   6
HETATM    6  C6  UNL     1       7.576   8.655  24.359  1.00  0.00     0.008 C 
BRANCH   6   7
HETATM    7  C7  UNL     1       8.171   7.553  25.287  1.00  0.00     0.086 C 
BRANCH   7   8
HETATM    8  C8  UNL     1       9.577   7.908  25.596  1.00  0.00     0.135 C 
HETATM    9  N1  UNL     1      10.079   7.539  26.736  1.00  0.00    -0.251 N 
ATOM     10  H1  UNL     1      11.044   7.776  26.964  1.00  0.00     0.196 HD
BRANCH   8  11
HETATM   11  O1  UNL     1      10.374   8.617  24.717  1.00  0.00    -0.348 OA
ATOM     12  H1  UNL     1      10.237   8.599  23.776  1.00  0.00     0.219 HD
ENDBRANCH   8  11
BRANCH   9  13
HETATM   13  O2  UNL     1       9.313   6.829  27.640  1.00  0.00    -0.288 OA
ATOM     14  H2  UNL     1       8.377   6.980  27.699  1.00  0.00     0.244 HD
ENDBRANCH   9  13
ENDBRANCH   7   8
ENDBRANCH   6   7
ENDBRANCH   5   6
ENDBRANCH   4   5
ENDBRANCH   3   4
BRANCH   3  15
HETATM   15  N2  UNL     1       5.811   6.338  22.386  1.00  0.00    -0.345 N 
HETATM   16  C9  UNL     1       5.715   5.249  21.485  1.00  0.00     0.241 C 
HETATM   17  O3  UNL     1       4.720   4.493  21.582  1.00  0.00    -0.271 OA
ATOM     18  H2  UNL     1       6.618   6.959  22.318  1.00  0.00     0.163 HD
BRANCH  16  19
HETATM   19  C10 UNL     1       6.798   5.066  20.481  1.00  0.00     0.179 C 
HETATM   20  C11 UNL     1       7.231   3.663  20.357  1.00  0.00     0.040 C 
HETATM   21  C12 UNL     1       7.658   3.186  19.022  1.00  0.00    -0.006 C 
HETATM   22  C13 UNL     1       7.586   1.672  18.934  1.00  0.00     0.005 C 
HETATM   23  C17 UNL     1       6.946   3.752  17.844  1.00  0.00     0.008 C 
HETATM   24  C14 UNL     1       8.041   1.238  17.551  1.00  0.00     0.000 C 
HETATM   25  C15 UNL     1       6.862   1.540  16.629  1.00  0.00     0.000 C 
HETATM   26  C16 UNL     1       6.089   2.710  17.133  1.00  0.00     0.006 C 
HETATM   27  C18 UNL     1       6.019   4.889  18.152  1.00  0.00     0.131 C 
HETATM   28  N3  UNL     1       6.435   5.711  19.239  1.00  0.00    -0.338 N 
HETATM   29  C19 UNL     1       6.475   7.144  19.085  1.00  0.00     0.221 C 
HETATM   30  O4  UNL     1       6.847   7.794  20.092  1.00  0.00    -0.273 OA
BRANCH  29  31
HETATM   31  C20 UNL     1       6.099   7.783  17.813  1.00  0.00     0.112 C 
BRANCH  31  32
HETATM   32  C21 UNL     1       5.654   9.208  17.932  1.00  0.00     0.120 C 
BRANCH  32  33
HETATM   33  C22 UNL     1       6.670  10.153  17.408  1.00  0.00     0.260 C 
HETATM   34  O5  UNL     1       7.352   9.833  16.392  1.00  0.00    -0.265 OA
BRANCH  33  35
HETATM   35  O6  UNL     1       6.940  11.383  17.953  1.00  0.00    -0.308 OA
BRANCH  35  36
HETATM   36  C23 UNL     1       6.406  11.789  19.222  1.00  0.00     0.205 C 
HETATM   37  C24 UNL     1       5.633  13.086  18.944  1.00  0.00     0.066 C 
HETATM   38  C25 UNL     1       6.044  14.149  19.945  1.00  0.00     0.171 C 
HETATM   39  O7  UNL     1       7.365  14.543  19.758  1.00  0.00    -0.384 OA
HETATM   40  C26 UNL     1       8.233  13.453  19.733  1.00  0.00     0.248 C 
HETATM   41  C27 UNL     1       7.513  12.185  20.131  1.00  0.00     0.179 C 
HETATM   42  O8  UNL     1       7.825  11.552  21.117  1.00  0.00    -0.293 OA
ENDBRANCH  35  36
ENDBRANCH  33  35
ENDBRANCH  32  33
ENDBRANCH  31  32
ENDBRANCH  29  31
ENDBRANCH  16  19
ENDBRANCH   3  15
TORSDOF 14
ENDMDL
MODEL 5
REMARK VINA RESULT: -8.817175538      3.653      7.837
REMARK  14 active torsions:
REMARK  status: ('A' for Active; 'I' for Inactive)
REMARK    1  A    between atoms: C3_3  and  C4_4 
REMARK    2  A    between atoms: C3_3  and  N2_15 
REMARK    3  A    between atoms: C4_4  and  C5_5 
REMARK    4  A    between atoms: C5_5  and  C6_6 
REMARK    5  A    between atoms: C6_6  and  C7_7 
REMARK    6  A    between atoms: C7_7  and  C8_8 
REMARK    7  A    between atoms: C8_8  and  O1_9 
REMARK    8  A    between atoms: N1_11  and  O2_13 
REMARK       I    between atoms: N2_15  and  C9_17 
REMARK    9  A    between atoms: C9_17  and  C10_19 
REMARK       I    between atoms: N3_28  and  C19_29 
REMARK   10  A    between atoms: C19_29  and  C20_31 
REMARK   11  A    between atoms: C20_31  and  C21_32 
REMARK   12  A    between atoms: C21_32  and  C22_33 
REMARK   13  A    between atoms: C22_33  and  O6_35 
REMARK   14  A    between atoms: O6_35  and  C23_36 
ROOT
HETATM    1  C1  UNL     1       6.411   1.859  20.997  1.00  0.00     0.099 C 
HETATM    2  C2  UNL     1       6.818   2.507  20.031  1.00  0.00    -0.162 C 
HETATM    3  C3  UNL     1       7.286   3.316  18.934  1.00  0.00     0.151 C 
ENDROOT
BRANCH   3   4
HETATM    4  C4  UNL     1       8.509   2.758  18.297  1.00  0.00     0.037 C 
BRANCH   4   5
HETATM    5  C5  UNL     1       8.709   1.312  18.227  1.00  0.00     0.003 C 
BRANCH   5   6
HETATM    6  C6  UNL     1       9.857   0.738  17.493  1.00  0.00     0.008 C 
BRANCH   6   7
HETATM    7  C7  UNL     1       9.345  -0.197  16.356  1.00  0.00     0.086 C 
BRANCH   7   8
HETATM    8  C8  UNL     1      10.273  -1.347  16.240  1.00  0.00     0.135 C 
HETATM    9  N1  UNL     1       9.984  -2.303  15.409  1.00  0.00    -0.251 N 
ATOM     10  H1  UNL     1      10.612  -3.101  15.317  1.00  0.00     0.196 HD
BRANCH   8  11
HETATM   11  O1  UNL     1      11.436  -1.441  16.982  1.00  0.00    -0.348 OA
ATOM     12  H1  UNL     1      12.084  -2.120  16.832  1.00  0.00     0.219 HD
ENDBRANCH   8  11
BRANCH   9  13
HETATM   13  O2  UNL     1       8.831  -2.244  14.650  1.00  0.00    -0.288 OA
ATOM     14  H2  UNL     1       8.733  -2.795  13.882  1.00  0.00     0.244 HD
ENDBRANCH   9  13
ENDBRANCH   7   8
ENDBRANCH   6   7
ENDBRANCH   5   6
ENDBRANCH   4   5
ENDBRANCH   3   4
BRANCH   3  15
HETATM   15  N2  UNL     1       7.508   4.703  19.355  1.00  0.00    -0.345 N 
HETATM   16  C9  UNL     1       6.813   5.799  18.786  1.00  0.00     0.241 C 
HETATM   17  O3  UNL     1       5.978   5.558  17.882  1.00  0.00    -0.271 OA
ATOM     18  H2  UNL     1       8.192   4.888  20.090  1.00  0.00     0.163 HD
BRANCH  16  19
HETATM   19  C10 UNL     1       7.116   7.165  19.290  1.00  0.00     0.179 C 
HETATM   20  C11 UNL     1       7.349   8.136  18.205  1.00  0.00     0.040 C 
HETATM   21  C12 UNL     1       6.914   9.534  18.423  1.00  0.00    -0.006 C 
HETATM   22  C13 UNL     1       6.750  10.267  17.103  1.00  0.00     0.005 C 
HETATM   23  C17 UNL     1       5.675   9.739  19.222  1.00  0.00     0.008 C 
HETATM   24  C14 UNL     1       6.313  11.695  17.385  1.00  0.00     0.000 C 
HETATM   25  C15 UNL     1       4.830  11.597  17.734  1.00  0.00     0.000 C 
HETATM   26  C16 UNL     1       4.529  10.287  18.378  1.00  0.00     0.006 C 
HETATM   27  C18 UNL     1       5.135   8.504  19.877  1.00  0.00     0.131 C 
HETATM   28  N3  UNL     1       6.128   7.562  20.268  1.00  0.00    -0.338 N 
HETATM   29  C19 UNL     1       6.124   7.022  21.606  1.00  0.00     0.221 C 
HETATM   30  O4  UNL     1       7.029   6.194  21.867  1.00  0.00    -0.273 OA
BRANCH  29  31
HETATM   31  C20 UNL     1       5.109   7.436  22.589  1.00  0.00     0.112 C 
BRANCH  31  32
HETATM   32  C21 UNL     1       5.463   7.152  24.016  1.00  0.00     0.120 C 
BRANCH  32  33
HETATM   33  C22 UNL     1       5.876   8.379  24.740  1.00  0.00     0.260 C 
HETATM   34  O5  UNL     1       4.993   9.154  25.208  1.00  0.00    -0.265 OA
BRANCH  33  35
HETATM   35  O6  UNL     1       7.180   8.754  24.949  1.00  0.00    -0.308 OA
BRANCH  35  36
HETATM   36  C23 UNL     1       8.285   7.932  24.545  1.00  0.00     0.205 C 
HETATM   37  C24 UNL     1       9.141   7.752  25.806  1.00  0.00     0.066 C 
HETATM   38  C25 UNL     1      10.593   8.056  25.485  1.00  0.00     0.171 C 
HETATM   39  O7  UNL     1      10.778   9.403  25.189  1.00  0.00    -0.384 OA
HETATM   40  C26 UNL     1       9.896   9.844  24.203  1.00  0.00     0.248 C 
HETATM   41  C27 UNL     1       9.147   8.681  23.594  1.00  0.00     0.179 C 
HETATM   42  O8  UNL     1       9.253   8.392  22.421  1.00  0.00    -0.293 OA
ENDBRANCH  35  36
ENDBRANCH  33  35
ENDBRANCH  32  33
ENDBRANCH  31  32
ENDBRANCH  29  31
ENDBRANCH  16  19
ENDBRANCH   3  15
TORSDOF 14
ENDMDL
