MODEL 1
REMARK VINA RESULT: -6.731170350      0.000      0.000
REMARK  5 active torsions:
REMARK  status: ('A' for Active; 'I' for Inactive)
REMARK    1  A    between atoms: C2_2  and  N1_3 
REMARK    2  A    between atoms: C2_2  and  C10_25 
REMARK       I    between atoms: N1_3  and  C3_5 
REMARK       I    between atoms: C3_5  and  N2_7 
REMARK    3  A    between atoms: C6_10  and  C7_11 
REMARK       I    between atoms: C7_11  and  N3_13 
REMARK    4  A    between atoms: N3_13  and  N4_15 
REMARK    5  A    between atoms: N5_20  and  N6_22 
ROOT
HETATM    1  N1  UNL     1      55.800  17.709  43.195  1.00  0.00    -0.332 N 
ATOM      2  H1  UNL     1      55.490  18.646  42.937  1.00  0.00     0.165 HD
HETATM    3  C3  UNL     1      55.785  16.679  42.196  1.00  0.00     0.324 C 
HETATM    4  O1  UNL     1      56.179  15.545  42.561  1.00  0.00    -0.247 OA
HETATM    5  N2  UNL     1      55.349  16.938  40.871  1.00  0.00    -0.288 N 
HETATM    6  C4  UNL     1      54.826  18.277  40.574  1.00  0.00     0.136 C 
HETATM    7  C5  UNL     1      54.030  18.371  39.331  1.00  0.00     0.035 C 
HETATM    8  C6  UNL     1      54.102  17.258  38.364  1.00  0.00     0.088 C 
HETATM    9  C8  UNL     1      54.227  15.876  38.945  1.00  0.00     0.092 C 
HETATM   10  C9  UNL     1      55.434  15.961  39.857  1.00  0.00     0.102 C 
HETATM   11  N5  UNL     1      56.443  15.247  39.676  1.00  0.00    -0.295 N 
ATOM     12  H5  UNL     1      56.300  14.604  38.896  1.00  0.00     0.187 HD
ENDROOT
BRANCH   1  13
HETATM   13  C2  UNL     1      56.237  17.474  44.548  1.00  0.00     0.146 C 
HETATM   14  C1  UNL     1      56.210  15.988  44.881  1.00  0.00     0.040 C 
BRANCH  13  15
HETATM   15  C10 UNL     1      57.620  17.973  44.794  1.00  0.00     0.109 C 
HETATM   16  N7  UNL     1      58.047  19.096  44.371  1.00  0.00    -0.389 N 
ATOM     17  H72 UNL     1      57.400  19.676  43.839  1.00  0.00     0.157 HD
ATOM     18  H71 UNL     1      58.993  19.437  44.539  1.00  0.00     0.157 HD
HETATM   19  N8  UNL     1      58.527  17.160  45.540  1.00  0.00    -0.086 NA
ENDBRANCH  13  15
ENDBRANCH   1  13
BRANCH  11  20
HETATM   20  N6  UNL     1      57.660  15.085  40.214  1.00  0.00    -0.344 N 
ATOM     21  H62 UNL     1      57.799  14.103  40.454  1.00  0.00     0.176 HD
ATOM     22  H61 UNL     1      58.471  15.660  40.445  1.00  0.00     0.176 HD
ENDBRANCH  11  20
BRANCH   8  23
HETATM   23  C7  UNL     1      52.993  17.273  37.377  1.00  0.00     0.240 C 
HETATM   24  O2  UNL     1      53.237  17.147  36.150  1.00  0.00    -0.271 OA
HETATM   25  N3  UNL     1      51.638  17.426  37.766  1.00  0.00    -0.276 N 
ATOM     26  H3  UNL     1      51.417  17.529  38.756  1.00  0.00     0.189 HD
BRANCH  25  27
HETATM   27  N4  UNL     1      50.598  17.440  36.838  1.00  0.00    -0.343 N 
ATOM     28  H42 UNL     1      50.786  17.079  35.903  1.00  0.00     0.176 HD
ATOM     29  H41 UNL     1      49.670  17.797  37.069  1.00  0.00     0.176 HD
ENDBRANCH  25  27
ENDBRANCH   8  23
TORSDOF 5
ENDMDL
MODEL 2
REMARK VINA RESULT: -6.498178152      2.092      2.881
REMARK  5 active torsions:
REMARK  status: ('A' for Active; 'I' for Inactive)
REMARK    1  A    between atoms: C2_2  and  N1_3 
REMARK    2  A    between atoms: C2_2  and  C10_25 
REMARK       I    between atoms: N1_3  and  C3_5 
REMARK       I    between atoms: C3_5  and  N2_7 
REMARK    3  A    between atoms: C6_10  and  C7_11 
REMARK       I    between atoms: C7_11  and  N3_13 
REMARK    4  A    between atoms: N3_13  and  N4_15 
REMARK    5  A    between atoms: N5_20  and  N6_22 
ROOT
HETATM    1  N1  UNL     1      58.755  17.116  43.043  1.00  0.00    -0.332 N 
ATOM      2  H1  UNL     1      59.146  16.957  42.114  1.00  0.00     0.165 HD
HETATM    3  C3  UNL     1      57.328  17.166  43.189  1.00  0.00     0.324 C 
HETATM    4  O1  UNL     1      56.895  17.360  44.350  1.00  0.00    -0.247 OA
HETATM    5  N2  UNL     1      56.463  17.002  42.077  1.00  0.00    -0.288 N 
HETATM    6  C4  UNL     1      57.075  16.868  40.749  1.00  0.00     0.136 C 
HETATM    7  C5  UNL     1      56.156  17.104  39.615  1.00  0.00     0.035 C 
HETATM    8  C6  UNL     1      54.703  17.119  39.878  1.00  0.00     0.088 C 
HETATM    9  C8  UNL     1      54.268  17.710  41.192  1.00  0.00     0.092 C 
HETATM   10  C9  UNL     1      55.061  16.940  42.229  1.00  0.00     0.102 C 
HETATM   11  N5  UNL     1      54.497  16.263  43.114  1.00  0.00    -0.295 N 
ATOM     12  H5  UNL     1      53.482  16.357  43.054  1.00  0.00     0.187 HD
ENDROOT
BRANCH   1  13
HETATM   13  C2  UNL     1      59.657  17.280  44.155  1.00  0.00     0.146 C 
HETATM   14  C1  UNL     1      61.084  16.928  43.758  1.00  0.00     0.040 C 
BRANCH  13  15
HETATM   15  C10 UNL     1      59.660  18.675  44.682  1.00  0.00     0.109 C 
HETATM   16  N7  UNL     1      58.739  19.520  44.438  1.00  0.00    -0.389 N 
ATOM     17  H72 UNL     1      57.962  19.215  43.851  1.00  0.00     0.157 HD
ATOM     18  H71 UNL     1      58.740  20.474  44.799  1.00  0.00     0.157 HD
HETATM   19  N8  UNL     1      60.746  19.101  45.505  1.00  0.00    -0.086 NA
ENDBRANCH  13  15
ENDBRANCH   1  13
BRANCH  11  20
HETATM   20  N6  UNL     1      54.844  15.448  44.120  1.00  0.00    -0.344 N 
ATOM     21  H62 UNL     1      55.504  15.926  44.734  1.00  0.00     0.176 HD
ATOM     22  H61 UNL     1      54.636  14.500  44.436  1.00  0.00     0.176 HD
ENDBRANCH  11  20
BRANCH   8  23
HETATM   23  C7  UNL     1      53.920  17.742  38.781  1.00  0.00     0.240 C 
HETATM   24  O2  UNL     1      53.746  18.986  38.757  1.00  0.00    -0.271 OA
HETATM   25  N3  UNL     1      53.347  16.976  37.735  1.00  0.00    -0.276 N 
ATOM     26  H3  UNL     1      53.476  15.965  37.735  1.00  0.00     0.189 HD
BRANCH  25  27
HETATM   27  N4  UNL     1      52.611  17.562  36.705  1.00  0.00    -0.343 N 
ATOM     28  H42 UNL     1      52.215  18.488  36.868  1.00  0.00     0.176 HD
ATOM     29  H41 UNL     1      52.463  17.094  35.811  1.00  0.00     0.176 HD
ENDBRANCH  25  27
ENDBRANCH   8  23
TORSDOF 5
ENDMDL
MODEL 3
REMARK VINA RESULT: -6.436979167      2.279      7.152
REMARK  5 active torsions:
REMARK  status: ('A' for Active; 'I' for Inactive)
REMARK    1  A    between atoms: C2_2  and  N1_3 
REMARK    2  A    between atoms: C2_2  and  C10_25 
REMARK       I    between atoms: N1_3  and  C3_5 
REMARK       I    between atoms: C3_5  and  N2_7 
REMARK    3  A    between atoms: C6_10  and  C7_11 
REMARK       I    between atoms: C7_11  and  N3_13 
REMARK    4  A    between atoms: N3_13  and  N4_15 
REMARK    5  A    between atoms: N5_20  and  N6_22 
ROOT
HETATM    1  N1  UNL     1      55.176  16.983  39.750  1.00  0.00    -0.332 N 
ATOM      2  H1  UNL     1      55.099  17.975  39.973  1.00  0.00     0.165 HD
HETATM    3  C3  UNL     1      55.880  16.126  40.660  1.00  0.00     0.324 C 
HETATM    4  O1  UNL     1      55.946  14.914  40.344  1.00  0.00    -0.247 OA
HETATM    5  N2  UNL     1      56.465  16.629  41.850  1.00  0.00    -0.288 N 
HETATM    6  C4  UNL     1      56.406  18.078  42.080  1.00  0.00     0.136 C 
HETATM    7  C5  UNL     1      57.355  18.585  43.095  1.00  0.00     0.035 C 
HETATM    8  C6  UNL     1      58.012  17.613  43.991  1.00  0.00     0.088 C 
HETATM    9  C8  UNL     1      58.366  16.281  43.388  1.00  0.00     0.092 C 
HETATM   10  C9  UNL     1      57.063  15.777  42.803  1.00  0.00     0.102 C 
HETATM   11  N5  UNL     1      56.543  14.708  43.187  1.00  0.00    -0.295 N 
ATOM     12  H5  UNL     1      57.135  14.240  43.874  1.00  0.00     0.187 HD
ENDROOT
BRANCH   1  13
HETATM   13  C2  UNL     1      54.574  16.499  38.533  1.00  0.00     0.146 C 
HETATM   14  C1  UNL     1      53.640  15.328  38.814  1.00  0.00     0.040 C 
BRANCH  13  15
HETATM   15  C10 UNL     1      53.788  17.552  37.830  1.00  0.00     0.109 C 
HETATM   16  N7  UNL     1      53.754  18.770  38.202  1.00  0.00    -0.389 N 
ATOM     17  H72 UNL     1      54.299  19.026  39.025  1.00  0.00     0.157 HD
ATOM     18  H71 UNL     1      53.217  19.490  37.721  1.00  0.00     0.157 HD
HETATM   19  N8  UNL     1      53.026  17.193  36.676  1.00  0.00    -0.086 NA
ENDBRANCH  13  15
ENDBRANCH   1  13
BRANCH  11  20
HETATM   20  N6  UNL     1      55.429  13.999  42.954  1.00  0.00    -0.344 N 
ATOM     21  H62 UNL     1      54.649  14.636  42.789  1.00  0.00     0.176 HD
ATOM     22  H61 UNL     1      55.150  13.020  42.896  1.00  0.00     0.176 HD
ENDBRANCH  11  20
BRANCH   8  23
HETATM   23  C7  UNL     1      59.205  18.170  44.678  1.00  0.00     0.240 C 
HETATM   24  O2  UNL     1      59.245  19.386  44.989  1.00  0.00    -0.271 OA
HETATM   25  N3  UNL     1      60.328  17.369  45.006  1.00  0.00    -0.276 N 
ATOM     26  H3  UNL     1      60.317  16.379  44.763  1.00  0.00     0.189 HD
BRANCH  25  27
HETATM   27  N4  UNL     1      61.448  17.893  45.651  1.00  0.00    -0.343 N 
ATOM     28  H42 UNL     1      61.321  18.720  46.233  1.00  0.00     0.176 HD
ATOM     29  H41 UNL     1      62.374  17.475  45.554  1.00  0.00     0.176 HD
ENDBRANCH  25  27
ENDBRANCH   8  23
TORSDOF 5
ENDMDL
MODEL 4
REMARK VINA RESULT: -6.369238189      1.094      1.102
REMARK  5 active torsions:
REMARK  status: ('A' for Active; 'I' for Inactive)
REMARK    1  A    between atoms: C2_2  and  N1_3 
REMARK    2  A    between atoms: C2_2  and  C10_25 
REMARK       I    between atoms: N1_3  and  C3_5 
REMARK       I    between atoms: C3_5  and  N2_7 
REMARK    3  A    between atoms: C6_10  and  C7_11 
REMARK       I    between atoms: C7_11  and  N3_13 
REMARK    4  A    between atoms: N3_13  and  N4_15 
REMARK    5  A    between atoms: N5_20  and  N6_22 
ROOT
HETATM    1  N1  UNL     1      56.512  17.846  43.190  1.00  0.00    -0.332 N 
ATOM      2  H1  UNL     1      56.228  18.795  42.948  1.00  0.00     0.165 HD
HETATM    3  C3  UNL     1      56.290  16.797  42.236  1.00  0.00     0.324 C 
HETATM    4  O1  UNL     1      56.659  15.648  42.579  1.00  0.00    -0.247 OA
HETATM    5  N2  UNL     1      55.688  17.054  40.978  1.00  0.00    -0.288 N 
HETATM    6  C4  UNL     1      55.214  18.418  40.714  1.00  0.00     0.136 C 
HETATM    7  C5  UNL     1      54.257  18.537  39.593  1.00  0.00     0.035 C 
HETATM    8  C6  UNL     1      54.121  17.400  38.661  1.00  0.00     0.088 C 
HETATM    9  C8  UNL     1      54.239  16.026  39.262  1.00  0.00     0.092 C 
HETATM   10  C9  UNL     1      55.567  16.051  39.993  1.00  0.00     0.102 C 
HETATM   11  N5  UNL     1      56.493  15.267  39.695  1.00  0.00    -0.295 N 
ATOM     12  H5  UNL     1      56.201  14.618  38.964  1.00  0.00     0.187 HD
ENDROOT
BRANCH   1  13
HETATM   13  C2  UNL     1      57.121  17.612  44.476  1.00  0.00     0.146 C 
HETATM   14  C1  UNL     1      56.521  16.385  45.149  1.00  0.00     0.040 C 
BRANCH  13  15
HETATM   15  C10 UNL     1      58.594  17.407  44.378  1.00  0.00     0.109 C 
HETATM   16  N7  UNL     1      59.226  17.373  43.273  1.00  0.00    -0.389 N 
ATOM     17  H72 UNL     1      58.686  17.495  42.417  1.00  0.00     0.157 HD
ATOM     18  H71 UNL     1      60.234  17.232  43.206  1.00  0.00     0.157 HD
HETATM   19  N8  UNL     1      59.350  17.236  45.578  1.00  0.00    -0.086 NA
ENDBRANCH  13  15
ENDBRANCH   1  13
BRANCH  11  20
HETATM   20  N6  UNL     1      57.761  15.036  40.063  1.00  0.00    -0.344 N 
ATOM     21  H62 UNL     1      57.776  14.373  40.838  1.00  0.00     0.176 HD
ATOM     22  H61 UNL     1      58.698  15.333  39.788  1.00  0.00     0.176 HD
ENDBRANCH  11  20
BRANCH   8  23
HETATM   23  C7  UNL     1      52.886  17.467  37.839  1.00  0.00     0.240 C 
HETATM   24  O2  UNL     1      51.767  17.231  38.359  1.00  0.00    -0.271 OA
HETATM   25  N3  UNL     1      52.916  17.794  36.460  1.00  0.00    -0.276 N 
ATOM     26  H3  UNL     1      53.813  17.990  36.017  1.00  0.00     0.189 HD
BRANCH  25  27
HETATM   27  N4  UNL     1      51.756  17.856  35.688  1.00  0.00    -0.343 N 
ATOM     28  H42 UNL     1      51.280  16.981  35.470  1.00  0.00     0.176 HD
ATOM     29  H41 UNL     1      51.380  18.740  35.344  1.00  0.00     0.176 HD
ENDBRANCH  25  27
ENDBRANCH   8  23
TORSDOF 5
ENDMDL
MODEL 5
REMARK VINA RESULT: -6.111774677      1.234      1.576
REMARK  5 active torsions:
REMARK  status: ('A' for Active; 'I' for Inactive)
REMARK    1  A    between atoms: C2_2  and  N1_3 
REMARK    2  A    between atoms: C2_2  and  C10_25 
REMARK       I    between atoms: N1_3  and  C3_5 
REMARK       I    between atoms: C3_5  and  N2_7 
REMARK    3  A    between atoms: C6_10  and  C7_11 
REMARK       I    between atoms: C7_11  and  N3_13 
REMARK    4  A    between atoms: N3_13  and  N4_15 
REMARK    5  A    between atoms: N5_20  and  N6_22 
ROOT
HETATM    1  N1  UNL     1      57.229  17.863  42.774  1.00  0.00    -0.332 N 
ATOM      2  H1  UNL     1      56.985  18.817  42.508  1.00  0.00     0.165 HD
HETATM    3  C3  UNL     1      56.810  16.784  41.926  1.00  0.00     0.324 C 
HETATM    4  O1  UNL     1      57.137  15.630  42.295  1.00  0.00    -0.247 OA
HETATM    5  N2  UNL     1      56.071  17.017  40.739  1.00  0.00    -0.288 N 
HETATM    6  C4  UNL     1      55.665  18.398  40.448  1.00  0.00     0.136 C 
HETATM    7  C5  UNL     1      54.583  18.530  39.449  1.00  0.00     0.035 C 
HETATM    8  C6  UNL     1      54.246  17.357  38.618  1.00  0.00     0.088 C 
HETATM    9  C8  UNL     1      54.342  16.014  39.288  1.00  0.00     0.092 C 
HETATM   10  C9  UNL     1      55.751  15.974  39.845  1.00  0.00     0.102 C 
HETATM   11  N5  UNL     1      56.572  15.103  39.486  1.00  0.00    -0.295 N 
ATOM     12  H5  UNL     1      56.142  14.440  38.841  1.00  0.00     0.187 HD
ENDROOT
BRANCH   1  13
HETATM   13  C2  UNL     1      57.980  17.654  43.987  1.00  0.00     0.146 C 
HETATM   14  C1  UNL     1      58.618  18.951  44.466  1.00  0.00     0.040 C 
BRANCH  13  15
HETATM   15  C10 UNL     1      57.135  17.123  45.094  1.00  0.00     0.109 C 
HETATM   16  N7  UNL     1      55.862  17.147  45.079  1.00  0.00    -0.389 N 
ATOM     17  H72 UNL     1      55.407  17.552  44.261  1.00  0.00     0.157 HD
ATOM     18  H71 UNL     1      55.283  16.784  45.836  1.00  0.00     0.157 HD
HETATM   19  N8  UNL     1      57.772  16.556  46.240  1.00  0.00    -0.086 NA
ENDBRANCH  13  15
ENDBRANCH   1  13
BRANCH  11  20
HETATM   20  N6  UNL     1      57.857  14.793  39.707  1.00  0.00    -0.344 N 
ATOM     21  H62 UNL     1      57.966  14.448  40.661  1.00  0.00     0.176 HD
ATOM     22  H61 UNL     1      58.740  14.804  39.195  1.00  0.00     0.176 HD
ENDBRANCH  11  20
BRANCH   8  23
HETATM   23  C7  UNL     1      52.923  17.476  37.954  1.00  0.00     0.240 C 
HETATM   24  O2  UNL     1      51.871  17.506  38.641  1.00  0.00    -0.271 OA
HETATM   25  N3  UNL     1      52.792  17.560  36.545  1.00  0.00    -0.276 N 
ATOM     26  H3  UNL     1      53.633  17.539  35.968  1.00  0.00     0.189 HD
BRANCH  25  27
HETATM   27  N4  UNL     1      51.549  17.672  35.922  1.00  0.00    -0.343 N 
ATOM     28  H42 UNL     1      50.806  18.159  36.422  1.00  0.00     0.176 HD
ATOM     29  H41 UNL     1      51.371  17.284  34.995  1.00  0.00     0.176 HD
ENDBRANCH  25  27
ENDBRANCH   8  23
TORSDOF 5
ENDMDL
