MODEL 1
REMARK VINA RESULT: -8.506878565      0.000      0.000
REMARK  8 active torsions:
REMARK  status: ('A' for Active; 'I' for Inactive)
REMARK    1  A    between atoms: N1_1  and  N2_4 
REMARK    2  A    between atoms: C1_6  and  N3_7 
REMARK    3  A    between atoms: C1_6  and  C9_25 
REMARK    4  A    between atoms: N3_7  and  N4_9 
REMARK    5  A    between atoms: N4_9  and  C2_11 
REMARK    6  A    between atoms: C2_11  and  N5_13 
REMARK    7  A    between atoms: N5_13  and  C3_15 
REMARK    8  A    between atoms: C8_20  and  N6_21 
ROOT
HETATM    1  C2  UNL     1      56.241  16.485  43.179  1.00  0.00     0.186 C 
HETATM    2  S1  UNL     1      55.292  15.374  43.898  1.00  0.00    -0.040 SA
ENDROOT
BRANCH   1   3
HETATM    3  N4  UNL     1      57.655  16.335  43.278  1.00  0.00    -0.275 N 
ATOM      4  H4  UNL     1      58.032  15.476  43.679  1.00  0.00     0.189 HD
BRANCH   3   5
HETATM    5  N3  UNL     1      58.537  17.322  42.846  1.00  0.00    -0.278 N 
ATOM      6  H3  UNL     1      58.574  17.526  41.847  1.00  0.00     0.189 HD
BRANCH   5   7
HETATM    7  C1  UNL     1      59.381  18.056  43.701  1.00  0.00     0.200 C 
HETATM    8  N2  UNL     1      59.824  19.202  43.329  1.00  0.00    -0.287 N 
ATOM      9  H2  UNL     1      60.436  19.739  43.943  1.00  0.00     0.188 HD
BRANCH   8  10
HETATM   10  N1  UNL     1      59.463  19.708  42.082  1.00  0.00    -0.343 N 
ATOM     11  H12 UNL     1      59.472  19.088  41.271  1.00  0.00     0.176 HD
ATOM     12  H11 UNL     1      59.197  20.688  41.994  1.00  0.00     0.176 HD
ENDBRANCH   8  10
BRANCH   7  13
HETATM   13  C9  UNL     1      59.757  17.527  45.003  1.00  0.00     0.301 C 
HETATM   14  N7  UNL     1      61.088  17.462  45.464  1.00  0.00    -0.054 NA
HETATM   15  O1  UNL     1      58.864  17.092  45.797  1.00  0.00    -0.268 OA
ENDBRANCH   7  13
ENDBRANCH   5   7
ENDBRANCH   3   5
ENDBRANCH   1   3
BRANCH   1  16
HETATM   16  N5  UNL     1      55.635  17.567  42.497  1.00  0.00    -0.359 N 
ATOM     17  H5  UNL     1      55.752  18.517  42.850  1.00  0.00     0.162 HD
BRANCH  16  18
HETATM   18  C3  UNL     1      54.859  17.340  41.315  1.00  0.00     0.114 C 
HETATM   19  C4  UNL     1      54.485  18.656  40.669  1.00  0.00     0.027 C 
HETATM   20  C5  UNL     1      53.895  18.524  39.312  1.00  0.00     0.002 C 
HETATM   21  C6  UNL     1      54.321  17.384  38.491  1.00  0.00     0.002 C 
HETATM   22  C7  UNL     1      54.795  16.157  39.226  1.00  0.00     0.035 C 
HETATM   23  C8  UNL     1      55.764  16.646  40.294  1.00  0.00     0.206 C 
BRANCH  23  24
HETATM   24  N6  UNL     1      56.562  17.690  39.627  1.00  0.00    -0.073 N 
ATOM     25  H63 UNL     1      56.124  18.611  39.666  1.00  0.00     0.274 HD
ATOM     26  H62 UNL     1      57.414  17.925  40.136  1.00  0.00     0.274 HD
ATOM     27  H61 UNL     1      56.742  17.376  38.674  1.00  0.00     0.274 HD
ENDBRANCH  23  24
ENDBRANCH  16  18
ENDBRANCH   1  16
TORSDOF 8
ENDMDL
MODEL 2
REMARK VINA RESULT: -7.711128196      1.264      2.067
REMARK  8 active torsions:
REMARK  status: ('A' for Active; 'I' for Inactive)
REMARK    1  A    between atoms: N1_1  and  N2_4 
REMARK    2  A    between atoms: C1_6  and  N3_7 
REMARK    3  A    between atoms: C1_6  and  C9_25 
REMARK    4  A    between atoms: N3_7  and  N4_9 
REMARK    5  A    between atoms: N4_9  and  C2_11 
REMARK    6  A    between atoms: C2_11  and  N5_13 
REMARK    7  A    between atoms: N5_13  and  C3_15 
REMARK    8  A    between atoms: C8_20  and  N6_21 
ROOT
HETATM    1  C2  UNL     1      56.552  15.851  43.413  1.00  0.00     0.186 C 
HETATM    2  S1  UNL     1      55.189  15.197  44.017  1.00  0.00    -0.040 SA
ENDROOT
BRANCH   1   3
HETATM    3  N4  UNL     1      57.535  16.331  44.327  1.00  0.00    -0.275 N 
ATOM      4  H4  UNL     1      57.302  16.387  45.318  1.00  0.00     0.189 HD
BRANCH   3   5
HETATM    5  N3  UNL     1      58.804  16.725  43.910  1.00  0.00    -0.278 N 
ATOM      6  H3  UNL     1      59.447  16.002  43.586  1.00  0.00     0.189 HD
BRANCH   5   7
HETATM    7  C1  UNL     1      59.256  18.058  43.908  1.00  0.00     0.200 C 
HETATM    8  N2  UNL     1      60.249  18.396  44.649  1.00  0.00    -0.287 N 
ATOM      9  H2  UNL     1      60.582  19.360  44.652  1.00  0.00     0.188 HD
BRANCH   8  10
HETATM   10  N1  UNL     1      60.869  17.437  45.448  1.00  0.00    -0.343 N 
ATOM     11  H12 UNL     1      61.088  16.523  45.051  1.00  0.00     0.176 HD
ATOM     12  H11 UNL     1      61.096  17.660  46.417  1.00  0.00     0.176 HD
ENDBRANCH   8  10
BRANCH   7  13
HETATM   13  C9  UNL     1      58.609  19.058  43.073  1.00  0.00     0.301 C 
HETATM   14  N7  UNL     1      59.284  20.162  42.512  1.00  0.00    -0.054 NA
HETATM   15  O1  UNL     1      57.368  18.964  42.812  1.00  0.00    -0.268 OA
ENDBRANCH   7  13
ENDBRANCH   5   7
ENDBRANCH   3   5
ENDBRANCH   1   3
BRANCH   1  16
HETATM   16  N5  UNL     1      56.709  15.938  42.009  1.00  0.00    -0.359 N 
ATOM     17  H5  UNL     1      57.617  15.742  41.589  1.00  0.00     0.162 HD
BRANCH  16  18
HETATM   18  C3  UNL     1      55.603  16.297  41.174  1.00  0.00     0.114 C 
HETATM   19  C4  UNL     1      55.049  17.645  41.581  1.00  0.00     0.027 C 
HETATM   20  C5  UNL     1      54.066  18.216  40.625  1.00  0.00     0.002 C 
HETATM   21  C6  UNL     1      54.212  17.867  39.207  1.00  0.00     0.002 C 
HETATM   22  C7  UNL     1      54.889  16.557  38.896  1.00  0.00     0.035 C 
HETATM   23  C8  UNL     1      56.143  16.508  39.757  1.00  0.00     0.206 C 
BRANCH  23  24
HETATM   24  N6  UNL     1      56.696  17.872  39.693  1.00  0.00    -0.073 N 
ATOM     25  H63 UNL     1      56.016  18.563  39.373  1.00  0.00     0.274 HD
ATOM     26  H62 UNL     1      56.872  18.274  40.613  1.00  0.00     0.274 HD
ATOM     27  H61 UNL     1      57.531  17.837  39.108  1.00  0.00     0.274 HD
ENDBRANCH  23  24
ENDBRANCH  16  18
ENDBRANCH   1  16
TORSDOF 8
ENDMDL
MODEL 3
REMARK VINA RESULT: -7.693536486      1.272      2.055
REMARK  8 active torsions:
REMARK  status: ('A' for Active; 'I' for Inactive)
REMARK    1  A    between atoms: N1_1  and  N2_4 
REMARK    2  A    between atoms: C1_6  and  N3_7 
REMARK    3  A    between atoms: C1_6  and  C9_25 
REMARK    4  A    between atoms: N3_7  and  N4_9 
REMARK    5  A    between atoms: N4_9  and  C2_11 
REMARK    6  A    between atoms: C2_11  and  N5_13 
REMARK    7  A    between atoms: N5_13  and  C3_15 
REMARK    8  A    between atoms: C8_20  and  N6_21 
ROOT
HETATM    1  C2  UNL     1      56.355  16.261  42.622  1.00  0.00     0.186 C 
HETATM    2  S1  UNL     1      55.728  14.819  43.045  1.00  0.00    -0.040 SA
ENDROOT
BRANCH   1   3
HETATM    3  N4  UNL     1      57.774  16.399  42.591  1.00  0.00    -0.275 N 
ATOM      4  H4  UNL     1      58.235  16.553  41.694  1.00  0.00     0.189 HD
BRANCH   3   5
HETATM    5  N3  UNL     1      58.550  16.331  43.745  1.00  0.00    -0.278 N 
ATOM      6  H3  UNL     1      59.113  15.493  43.893  1.00  0.00     0.189 HD
BRANCH   5   7
HETATM    7  C1  UNL     1      58.607  17.345  44.720  1.00  0.00     0.200 C 
HETATM    8  N2  UNL     1      58.042  17.167  45.859  1.00  0.00    -0.287 N 
ATOM      9  H2  UNL     1      58.078  17.897  46.570  1.00  0.00     0.188 HD
BRANCH   8  10
HETATM   10  N1  UNL     1      57.377  15.969  46.118  1.00  0.00    -0.343 N 
ATOM     11  H12 UNL     1      56.514  15.759  45.617  1.00  0.00     0.176 HD
ATOM     12  H11 UNL     1      57.761  15.318  46.803  1.00  0.00     0.176 HD
ENDBRANCH   8  10
BRANCH   7  13
HETATM   13  C9  UNL     1      59.300  18.594  44.449  1.00  0.00     0.301 C 
HETATM   14  N7  UNL     1      58.843  19.556  43.525  1.00  0.00    -0.054 NA
HETATM   15  O1  UNL     1      60.381  18.869  45.061  1.00  0.00    -0.268 OA
ENDBRANCH   7  13
ENDBRANCH   5   7
ENDBRANCH   3   5
ENDBRANCH   1   3
BRANCH   1  16
HETATM   16  N5  UNL     1      55.478  17.329  42.317  1.00  0.00    -0.359 N 
ATOM     17  H5  UNL     1      55.410  18.124  42.952  1.00  0.00     0.162 HD
BRANCH  16  18
HETATM   18  C3  UNL     1      54.685  17.303  41.125  1.00  0.00     0.114 C 
HETATM   19  C4  UNL     1      54.429  18.709  40.631  1.00  0.00     0.027 C 
HETATM   20  C5  UNL     1      53.830  18.780  39.273  1.00  0.00     0.002 C 
HETATM   21  C6  UNL     1      54.153  17.704  38.328  1.00  0.00     0.002 C 
HETATM   22  C7  UNL     1      54.517  16.367  38.920  1.00  0.00     0.035 C 
HETATM   23  C8  UNL     1      55.525  16.647  40.025  1.00  0.00     0.206 C 
BRANCH  23  24
HETATM   24  N6  UNL     1      56.412  17.684  39.469  1.00  0.00    -0.073 N 
ATOM     25  H63 UNL     1      55.941  18.579  39.331  1.00  0.00     0.274 HD
ATOM     26  H62 UNL     1      57.115  18.005  40.135  1.00  0.00     0.274 HD
ATOM     27  H61 UNL     1      56.818  17.313  38.611  1.00  0.00     0.274 HD
ENDBRANCH  23  24
ENDBRANCH  16  18
ENDBRANCH   1  16
TORSDOF 8
ENDMDL
MODEL 4
REMARK VINA RESULT: -7.665175569      1.092      1.101
REMARK  8 active torsions:
REMARK  status: ('A' for Active; 'I' for Inactive)
REMARK    1  A    between atoms: N1_1  and  N2_4 
REMARK    2  A    between atoms: C1_6  and  N3_7 
REMARK    3  A    between atoms: C1_6  and  C9_25 
REMARK    4  A    between atoms: N3_7  and  N4_9 
REMARK    5  A    between atoms: N4_9  and  C2_11 
REMARK    6  A    between atoms: C2_11  and  N5_13 
REMARK    7  A    between atoms: N5_13  and  C3_15 
REMARK    8  A    between atoms: C8_20  and  N6_21 
ROOT
HETATM    1  C2  UNL     1      56.233  16.353  42.890  1.00  0.00     0.186 C 
HETATM    2  S1  UNL     1      55.404  15.230  43.729  1.00  0.00    -0.040 SA
ENDROOT
BRANCH   1   3
HETATM    3  N4  UNL     1      57.639  16.180  42.735  1.00  0.00    -0.275 N 
ATOM      4  H4  UNL     1      58.004  15.247  42.544  1.00  0.00     0.189 HD
BRANCH   3   5
HETATM    5  N3  UNL     1      58.532  17.244  42.837  1.00  0.00    -0.278 N 
ATOM      6  H3  UNL     1      59.283  17.306  42.149  1.00  0.00     0.189 HD
BRANCH   5   7
HETATM    7  C1  UNL     1      58.463  18.241  43.829  1.00  0.00     0.200 C 
HETATM    8  N2  UNL     1      58.963  19.402  43.603  1.00  0.00    -0.287 N 
ATOM      9  H2  UNL     1      58.917  20.128  44.317  1.00  0.00     0.188 HD
BRANCH   8  10
HETATM   10  N1  UNL     1      59.570  19.662  42.375  1.00  0.00    -0.343 N 
ATOM     11  H12 UNL     1      58.987  19.776  41.545  1.00  0.00     0.176 HD
ATOM     12  H11 UNL     1      60.586  19.735  42.321  1.00  0.00     0.176 HD
ENDBRANCH   8  10
BRANCH   7  13
HETATM   13  C9  UNL     1      57.830  17.968  45.110  1.00  0.00     0.301 C 
HETATM   14  N7  UNL     1      58.253  16.950  45.988  1.00  0.00    -0.054 NA
HETATM   15  O1  UNL     1      56.838  18.666  45.492  1.00  0.00    -0.268 OA
ENDBRANCH   7  13
ENDBRANCH   5   7
ENDBRANCH   3   5
ENDBRANCH   1   3
BRANCH   1  16
HETATM   16  N5  UNL     1      55.538  17.465  42.359  1.00  0.00    -0.359 N 
ATOM     17  H5  UNL     1      55.602  18.371  42.824  1.00  0.00     0.162 HD
BRANCH  16  18
HETATM   18  C3  UNL     1      54.746  17.331  41.174  1.00  0.00     0.114 C 
HETATM   19  C4  UNL     1      54.424  18.692  40.598  1.00  0.00     0.027 C 
HETATM   20  C5  UNL     1      53.820  18.654  39.241  1.00  0.00     0.002 C 
HETATM   21  C6  UNL     1      54.192  17.539  38.360  1.00  0.00     0.002 C 
HETATM   22  C7  UNL     1      54.618  16.258  39.029  1.00  0.00     0.035 C 
HETATM   23  C8  UNL     1      55.613  16.651  40.112  1.00  0.00     0.206 C 
BRANCH  23  24
HETATM   24  N6  UNL     1      56.450  17.693  39.491  1.00  0.00    -0.073 N 
ATOM     25  H63 UNL     1      55.944  18.256  38.807  1.00  0.00     0.274 HD
ATOM     26  H62 UNL     1      56.689  18.447  40.135  1.00  0.00     0.274 HD
ATOM     27  H61 UNL     1      57.270  17.233  39.096  1.00  0.00     0.274 HD
ENDBRANCH  23  24
ENDBRANCH  16  18
ENDBRANCH   1  16
TORSDOF 8
ENDMDL
MODEL 5
REMARK VINA RESULT: -7.566831231      1.379      1.537
REMARK  8 active torsions:
REMARK  status: ('A' for Active; 'I' for Inactive)
REMARK    1  A    between atoms: N1_1  and  N2_4 
REMARK    2  A    between atoms: C1_6  and  N3_7 
REMARK    3  A    between atoms: C1_6  and  C9_25 
REMARK    4  A    between atoms: N3_7  and  N4_9 
REMARK    5  A    between atoms: N4_9  and  C2_11 
REMARK    6  A    between atoms: C2_11  and  N5_13 
REMARK    7  A    between atoms: N5_13  and  C3_15 
REMARK    8  A    between atoms: C8_20  and  N6_21 
ROOT
HETATM    1  C2  UNL     1      56.496  15.868  43.500  1.00  0.00     0.186 C 
HETATM    2  S1  UNL     1      55.016  15.319  43.902  1.00  0.00    -0.040 SA
ENDROOT
BRANCH   1   3
HETATM    3  N4  UNL     1      57.566  15.661  44.418  1.00  0.00    -0.275 N 
ATOM      4  H4  UNL     1      58.007  14.743  44.463  1.00  0.00     0.189 HD
BRANCH   3   5
HETATM    5  N3  UNL     1      58.030  16.673  45.255  1.00  0.00    -0.278 N 
ATOM      6  H3  UNL     1      57.717  16.671  46.226  1.00  0.00     0.189 HD
BRANCH   5   7
HETATM    7  C1  UNL     1      58.903  17.699  44.846  1.00  0.00     0.200 C 
HETATM    8  N2  UNL     1      58.437  18.865  44.579  1.00  0.00    -0.287 N 
ATOM      9  H2  UNL     1      59.063  19.613  44.282  1.00  0.00     0.188 HD
BRANCH   8  10
HETATM   10  N1  UNL     1      57.069  19.103  44.700  1.00  0.00    -0.343 N 
ATOM     11  H12 UNL     1      56.486  19.095  43.862  1.00  0.00     0.176 HD
ATOM     12  H11 UNL     1      56.668  19.282  45.620  1.00  0.00     0.176 HD
ENDBRANCH   8  10
BRANCH   7  13
HETATM   13  C9  UNL     1      60.331  17.450  44.721  1.00  0.00     0.301 C 
HETATM   14  N7  UNL     1      61.222  17.457  45.813  1.00  0.00    -0.054 NA
HETATM   15  O1  UNL     1      60.839  17.208  43.580  1.00  0.00    -0.268 OA
ENDBRANCH   7  13
ENDBRANCH   5   7
ENDBRANCH   3   5
ENDBRANCH   1   3
BRANCH   1  16
HETATM   16  N5  UNL     1      56.666  16.542  42.268  1.00  0.00    -0.359 N 
ATOM     17  H5  UNL     1      57.583  16.911  42.016  1.00  0.00     0.162 HD
BRANCH  16  18
HETATM   18  C3  UNL     1      55.562  16.712  41.372  1.00  0.00     0.114 C 
HETATM   19  C4  UNL     1      55.079  18.145  41.396  1.00  0.00     0.027 C 
HETATM   20  C5  UNL     1      54.106  18.480  40.325  1.00  0.00     0.002 C 
HETATM   21  C6  UNL     1      54.209  17.748  39.056  1.00  0.00     0.002 C 
HETATM   22  C7  UNL     1      54.819  16.372  39.114  1.00  0.00     0.035 C 
HETATM   23  C8  UNL     1      56.086  16.499  39.949  1.00  0.00     0.206 C 
BRANCH  23  24
HETATM   24  N6  UNL     1      56.699  17.765  39.509  1.00  0.00    -0.073 N 
ATOM     25  H63 UNL     1      56.948  18.378  40.286  1.00  0.00     0.274 HD
ATOM     26  H62 UNL     1      57.638  17.641  39.131  1.00  0.00     0.274 HD
ATOM     27  H61 UNL     1      56.059  18.202  38.846  1.00  0.00     0.274 HD
ENDBRANCH  23  24
ENDBRANCH  16  18
ENDBRANCH   1  16
TORSDOF 8
ENDMDL
