MODEL 1
REMARK VINA RESULT: -5.748391584      0.000      0.000
REMARK  3 active torsions:
REMARK  status: ('A' for Active; 'I' for Inactive)
REMARK       I    between atoms: N1_5  and  C5_6 
REMARK       I    between atoms: C5_6  and  N2_8 
REMARK    1  A    between atoms: N2_8  and  N3_10 
REMARK       I    between atoms: N3_10  and  C6_12 
REMARK    2  A    between atoms: N6_18  and  N7_20 
REMARK    3  A    between atoms: C8_23  and  C9_24 
ROOT
HETATM    1  C1  UNL     1      55.861  14.299  43.191  1.00  0.00     0.018 C 
HETATM    2  C2  UNL     1      55.182  15.620  43.066  1.00  0.00    -0.011 C 
HETATM    3  C3  UNL     1      53.803  15.454  43.690  1.00  0.00     0.018 C 
HETATM    4  C4  UNL     1      55.937  16.595  43.931  1.00  0.00     0.145 C 
HETATM    5  N1  UNL     1      56.515  17.573  43.035  1.00  0.00    -0.285 N 
HETATM    6  C5  UNL     1      57.661  18.341  43.337  1.00  0.00     0.342 C 
HETATM    7  O1  UNL     1      58.096  19.137  42.509  1.00  0.00    -0.245 OA
HETATM    8  N2  UNL     1      58.283  18.178  44.598  1.00  0.00    -0.249 N 
ATOM      9  H2  UNL     1      57.888  17.508  45.258  1.00  0.00     0.192 HD
HETATM   10  C7  UNL     1      55.711  17.613  41.836  1.00  0.00     0.117 C 
HETATM   11  N6  UNL     1      55.604  18.660  41.137  1.00  0.00    -0.294 N 
ATOM     12  H6  UNL     1      56.105  19.497  41.433  1.00  0.00     0.187 HD
HETATM   13  C8  UNL     1      55.143  16.254  41.733  1.00  0.00     0.165 C 
ENDROOT
BRANCH   8  14
HETATM   14  N3  UNL     1      59.407  18.895  44.968  1.00  0.00    -0.270 N 
HETATM   15  C6  UNL     1      60.693  18.317  44.872  1.00  0.00     0.200 C 
HETATM   16  N4  UNL     1      61.418  18.643  43.839  1.00  0.00    -0.372 N 
HETATM   17  N5  UNL     1      61.201  17.421  45.846  1.00  0.00    -0.062 NA
ATOM     18  H42 UNL     1      61.053  19.287  43.138  1.00  0.00     0.158 HD
ATOM     19  H41 UNL     1      62.346  18.226  43.770  1.00  0.00     0.158 HD
ATOM     20  H3  UNL     1      59.307  19.849  45.313  1.00  0.00     0.189 HD
ENDBRANCH   8  14
BRANCH  11  21
HETATM   21  N7  UNL     1      54.840  18.718  39.989  1.00  0.00    -0.344 N 
ATOM     22  H72 UNL     1      53.835  18.572  40.083  1.00  0.00     0.176 HD
ATOM     23  H71 UNL     1      55.240  18.899  39.068  1.00  0.00     0.176 HD
ENDBRANCH  11  21
BRANCH  13  24
HETATM   24  C9  UNL     1      55.767  15.520  40.649  1.00  0.00     0.185 C 
HETATM   25  O2  UNL     1      56.993  15.315  40.450  1.00  0.00    -0.647 OA
HETATM   26  O3  UNL     1      54.942  14.947  39.671  1.00  0.00    -0.647 OA
ENDBRANCH  13  24
TORSDOF 3
ENDMDL
MODEL 2
REMARK VINA RESULT: -5.430528155      2.442      5.928
REMARK  3 active torsions:
REMARK  status: ('A' for Active; 'I' for Inactive)
REMARK       I    between atoms: N1_5  and  C5_6 
REMARK       I    between atoms: C5_6  and  N2_8 
REMARK    1  A    between atoms: N2_8  and  N3_10 
REMARK       I    between atoms: N3_10  and  C6_12 
REMARK    2  A    between atoms: N6_18  and  N7_20 
REMARK    3  A    between atoms: C8_23  and  C9_24 
ROOT
HETATM    1  C1  UNL     1      55.417  14.921  43.997  1.00  0.00     0.018 C 
HETATM    2  C2  UNL     1      56.583  15.422  43.216  1.00  0.00    -0.011 C 
HETATM    3  C3  UNL     1      57.534  14.243  43.060  1.00  0.00     0.018 C 
HETATM    4  C4  UNL     1      56.084  15.765  41.837  1.00  0.00     0.145 C 
HETATM    5  N1  UNL     1      56.238  17.197  41.691  1.00  0.00    -0.285 N 
HETATM    6  C5  UNL     1      55.473  17.987  40.804  1.00  0.00     0.342 C 
HETATM    7  O1  UNL     1      55.657  19.200  40.758  1.00  0.00    -0.245 OA
HETATM    8  N2  UNL     1      54.510  17.356  39.980  1.00  0.00    -0.249 N 
ATOM      9  H2  UNL     1      54.391  16.345  40.047  1.00  0.00     0.192 HD
HETATM   10  C7  UNL     1      57.290  17.627  42.582  1.00  0.00     0.117 C 
HETATM   11  N6  UNL     1      58.009  18.634  42.328  1.00  0.00    -0.294 N 
ATOM     12  H6  UNL     1      57.835  19.155  41.468  1.00  0.00     0.187 HD
HETATM   13  C8  UNL     1      57.254  16.650  43.688  1.00  0.00     0.165 C 
ENDROOT
BRANCH   8  14
HETATM   14  N3  UNL     1      53.726  18.062  39.085  1.00  0.00    -0.270 N 
HETATM   15  C6  UNL     1      53.161  17.418  37.961  1.00  0.00     0.200 C 
HETATM   16  N4  UNL     1      51.907  17.070  38.040  1.00  0.00    -0.372 N 
HETATM   17  N5  UNL     1      53.902  17.154  36.781  1.00  0.00    -0.062 NA
ATOM     18  H42 UNL     1      51.374  17.259  38.889  1.00  0.00     0.158 HD
ATOM     19  H41 UNL     1      51.499  16.605  37.228  1.00  0.00     0.158 HD
ATOM     20  H3  UNL     1      53.553  19.055  39.238  1.00  0.00     0.189 HD
ENDBRANCH   8  14
BRANCH  11  21
HETATM   21  N7  UNL     1      59.020  19.061  43.165  1.00  0.00    -0.344 N 
ATOM     22  H72 UNL     1      59.639  18.352  43.558  1.00  0.00     0.176 HD
ATOM     23  H71 UNL     1      59.166  20.043  43.399  1.00  0.00     0.176 HD
ENDBRANCH  11  21
BRANCH  13  24
HETATM   24  C9  UNL     1      56.718  17.259  44.889  1.00  0.00     0.185 C 
HETATM   25  O2  UNL     1      55.650  17.911  45.024  1.00  0.00    -0.647 OA
HETATM   26  O3  UNL     1      57.446  17.133  46.081  1.00  0.00    -0.647 OA
ENDBRANCH  13  24
TORSDOF 3
ENDMDL
MODEL 3
REMARK VINA RESULT: -4.661264176      2.640      6.070
REMARK  3 active torsions:
REMARK  status: ('A' for Active; 'I' for Inactive)
REMARK       I    between atoms: N1_5  and  C5_6 
REMARK       I    between atoms: C5_6  and  N2_8 
REMARK    1  A    between atoms: N2_8  and  N3_10 
REMARK       I    between atoms: N3_10  and  C6_12 
REMARK    2  A    between atoms: N6_18  and  N7_20 
REMARK    3  A    between atoms: C8_23  and  C9_24 
ROOT
HETATM    1  C1  UNL     1      59.248  19.368  43.507  1.00  0.00     0.018 C 
HETATM    2  C2  UNL     1      58.228  18.858  44.465  1.00  0.00    -0.011 C 
HETATM    3  C3  UNL     1      57.720  20.068  45.237  1.00  0.00     0.018 C 
HETATM    4  C4  UNL     1      57.069  18.342  43.652  1.00  0.00     0.145 C 
HETATM    5  N1  UNL     1      57.011  16.915  43.884  1.00  0.00    -0.285 N 
HETATM    6  C5  UNL     1      56.434  15.992  42.983  1.00  0.00     0.342 C 
HETATM    7  O1  UNL     1      56.444  14.793  43.251  1.00  0.00    -0.245 OA
HETATM    8  N2  UNL     1      55.849  16.474  41.787  1.00  0.00    -0.249 N 
ATOM      9  H2  UNL     1      55.860  17.478  41.604  1.00  0.00     0.192 HD
HETATM   10  C7  UNL     1      57.617  16.643  45.166  1.00  0.00     0.117 C 
HETATM   11  N6  UNL     1      57.266  15.660  45.876  1.00  0.00    -0.294 N 
ATOM     12  H6  UNL     1      56.533  15.043  45.527  1.00  0.00     0.187 HD
HETATM   13  C8  UNL     1      58.604  17.728  45.339  1.00  0.00     0.165 C 
ENDROOT
BRANCH   8  14
HETATM   14  N3  UNL     1      55.263  15.633  40.858  1.00  0.00    -0.270 N 
HETATM   15  C6  UNL     1      55.527  15.790  39.479  1.00  0.00     0.200 C 
HETATM   16  N4  UNL     1      56.398  14.984  38.942  1.00  0.00    -0.372 N 
HETATM   17  N5  UNL     1      54.880  16.773  38.686  1.00  0.00    -0.062 NA
ATOM     18  H42 UNL     1      56.863  14.277  39.511  1.00  0.00     0.158 HD
ATOM     19  H41 UNL     1      56.588  15.097  37.946  1.00  0.00     0.158 HD
ATOM     20  H3  UNL     1      54.636  14.892  41.171  1.00  0.00     0.189 HD
ENDBRANCH   8  14
BRANCH  11  21
HETATM   21  N7  UNL     1      57.832  15.384  47.105  1.00  0.00    -0.344 N 
ATOM     22  H72 UNL     1      57.489  15.907  47.910  1.00  0.00     0.176 HD
ATOM     23  H71 UNL     1      58.568  14.689  47.230  1.00  0.00     0.176 HD
ENDBRANCH  11  21
BRANCH  13  24
HETATM   24  C9  UNL     1      59.953  17.218  45.192  1.00  0.00     0.185 C 
HETATM   25  O2  UNL     1      60.869  17.173  46.054  1.00  0.00    -0.647 OA
HETATM   26  O3  UNL     1      60.336  16.698  43.947  1.00  0.00    -0.647 OA
ENDBRANCH  13  24
TORSDOF 3
ENDMDL
MODEL 4
REMARK VINA RESULT: -4.458706328      2.690      5.890
REMARK  3 active torsions:
REMARK  status: ('A' for Active; 'I' for Inactive)
REMARK       I    between atoms: N1_5  and  C5_6 
REMARK       I    between atoms: C5_6  and  N2_8 
REMARK    1  A    between atoms: N2_8  and  N3_10 
REMARK       I    between atoms: N3_10  and  C6_12 
REMARK    2  A    between atoms: N6_18  and  N7_20 
REMARK    3  A    between atoms: C8_23  and  C9_24 
ROOT
HETATM    1  C1  UNL     1      57.657  19.291  44.445  1.00  0.00     0.018 C 
HETATM    2  C2  UNL     1      56.977  17.965  44.447  1.00  0.00    -0.011 C 
HETATM    3  C3  UNL     1      56.104  17.931  45.694  1.00  0.00     0.018 C 
HETATM    4  C4  UNL     1      56.047  17.938  43.262  1.00  0.00     0.145 C 
HETATM    5  N1  UNL     1      56.551  16.917  42.370  1.00  0.00    -0.285 N 
HETATM    6  C5  UNL     1      56.306  16.892  40.978  1.00  0.00     0.342 C 
HETATM    7  O1  UNL     1      56.789  15.996  40.292  1.00  0.00    -0.245 OA
HETATM    8  N2  UNL     1      55.499  17.905  40.406  1.00  0.00    -0.249 N 
ATOM      9  H2  UNL     1      55.115  18.630  41.013  1.00  0.00     0.192 HD
HETATM   10  C7  UNL     1      57.304  15.967  43.155  1.00  0.00     0.117 C 
HETATM   11  N6  UNL     1      57.403  14.753  42.820  1.00  0.00    -0.294 N 
ATOM     12  H6  UNL     1      56.937  14.442  41.969  1.00  0.00     0.187 HD
HETATM   13  C8  UNL     1      57.815  16.758  44.292  1.00  0.00     0.165 C 
ENDROOT
BRANCH   8  14
HETATM   14  N3  UNL     1      55.212  17.947  39.053  1.00  0.00    -0.270 N 
HETATM   15  C6  UNL     1      54.046  17.332  38.546  1.00  0.00     0.200 C 
HETATM   16  N4  UNL     1      53.026  18.102  38.293  1.00  0.00    -0.372 N 
HETATM   17  N5  UNL     1      53.963  15.936  38.307  1.00  0.00    -0.062 NA
ATOM     18  H42 UNL     1      53.086  19.106  38.465  1.00  0.00     0.158 HD
ATOM     19  H41 UNL     1      52.184  17.658  37.926  1.00  0.00     0.158 HD
ATOM     20  H3  UNL     1      55.848  18.427  38.417  1.00  0.00     0.189 HD
ENDBRANCH   8  14
BRANCH  11  21
HETATM   21  N7  UNL     1      58.117  13.830  43.558  1.00  0.00    -0.344 N 
ATOM     22  H72 UNL     1      58.020  12.847  43.304  1.00  0.00     0.176 HD
ATOM     23  H71 UNL     1      58.725  14.093  44.333  1.00  0.00     0.176 HD
ENDBRANCH  11  21
BRANCH  13  24
HETATM   24  C9  UNL     1      59.242  16.975  44.163  1.00  0.00     0.185 C 
HETATM   25  O2  UNL     1      59.935  17.003  43.112  1.00  0.00    -0.647 OA
HETATM   26  O3  UNL     1      59.993  17.184  45.329  1.00  0.00    -0.647 OA
ENDBRANCH  13  24
TORSDOF 3
ENDMDL
MODEL 5
REMARK VINA RESULT: -4.200630984      3.053      5.730
REMARK  3 active torsions:
REMARK  status: ('A' for Active; 'I' for Inactive)
REMARK       I    between atoms: N1_5  and  C5_6 
REMARK       I    between atoms: C5_6  and  N2_8 
REMARK    1  A    between atoms: N2_8  and  N3_10 
REMARK       I    between atoms: N3_10  and  C6_12 
REMARK    2  A    between atoms: N6_18  and  N7_20 
REMARK    3  A    between atoms: C8_23  and  C9_24 
ROOT
HETATM    1  C1  UNL     1      58.575  18.537  43.181  1.00  0.00     0.018 C 
HETATM    2  C2  UNL     1      57.226  18.213  43.726  1.00  0.00    -0.011 C 
HETATM    3  C3  UNL     1      57.073  19.025  45.005  1.00  0.00     0.018 C 
HETATM    4  C4  UNL     1      56.210  18.742  42.749  1.00  0.00     0.145 C 
HETATM    5  N1  UNL     1      55.521  17.589  42.211  1.00  0.00    -0.285 N 
HETATM    6  C5  UNL     1      54.872  17.571  40.956  1.00  0.00     0.342 C 
HETATM    7  O1  UNL     1      54.327  16.541  40.568  1.00  0.00    -0.245 OA
HETATM    8  N2  UNL     1      54.862  18.750  40.172  1.00  0.00    -0.249 N 
ATOM      9  H2  UNL     1      55.325  19.584  40.533  1.00  0.00     0.192 HD
HETATM   10  C7  UNL     1      55.614  16.520  43.177  1.00  0.00     0.117 C 
HETATM   11  N6  UNL     1      54.725  15.628  43.275  1.00  0.00    -0.294 N 
ATOM     12  H6  UNL     1      53.921  15.669  42.648  1.00  0.00     0.187 HD
HETATM   13  C8  UNL     1      56.875  16.788  43.898  1.00  0.00     0.165 C 
ENDROOT
BRANCH   8  14
HETATM   14  N3  UNL     1      54.246  18.811  38.935  1.00  0.00    -0.270 N 
HETATM   15  C6  UNL     1      53.767  17.637  38.311  1.00  0.00     0.200 C 
HETATM   16  N4  UNL     1      52.489  17.394  38.397  1.00  0.00    -0.372 N 
HETATM   17  N5  UNL     1      54.617  16.744  37.611  1.00  0.00    -0.062 NA
ATOM     18  H42 UNL     1      51.877  18.036  38.900  1.00  0.00     0.158 HD
ATOM     19  H41 UNL     1      52.143  16.547  37.946  1.00  0.00     0.158 HD
ATOM     20  H3  UNL     1      54.136  19.711  38.468  1.00  0.00     0.189 HD
ENDBRANCH   8  14
BRANCH  11  21
HETATM   21  N7  UNL     1      54.794  14.600  44.193  1.00  0.00    -0.344 N 
ATOM     22  H72 UNL     1      55.667  14.074  44.247  1.00  0.00     0.176 HD
ATOM     23  H71 UNL     1      54.018  14.353  44.805  1.00  0.00     0.176 HD
ENDBRANCH  11  21
BRANCH  13  24
HETATM   24  C9  UNL     1      57.890  15.823  43.526  1.00  0.00     0.185 C 
HETATM   25  O2  UNL     1      59.112  16.022  43.302  1.00  0.00    -0.647 OA
HETATM   26  O3  UNL     1      57.512  14.480  43.386  1.00  0.00    -0.647 OA
ENDBRANCH  13  24
TORSDOF 3
ENDMDL
