MODEL 1
REMARK VINA RESULT: -5.782686091      0.000      0.000
REMARK  6 active torsions:
REMARK  status: ('A' for Active; 'I' for Inactive)
REMARK    1  A    between atoms: N1_2  and  C3_4 
REMARK    2  A    between atoms: C3_4  and  C4_5 
REMARK    3  A    between atoms: C4_5  and  O1_6 
REMARK    4  A    between atoms: C4_5  and  N2_8 
REMARK    5  A    between atoms: N2_8  and  N3_9 
REMARK       I    between atoms: N3_9  and  C5_11 
REMARK       I    between atoms: C5_11  and  N4_13 
REMARK    6  A    between atoms: N4_13  and  N5_15 
REMARK       I    between atoms: N5_15  and  C6_17 
ROOT
HETATM    1  N3  UNL     1      54.770  17.617  40.585  1.00  0.00    -0.181 N 
ATOM      2  H3  UNL     1      53.855  17.885  40.947  1.00  0.00     0.207 HD
HETATM    3  C5  UNL     1      54.644  17.192  39.209  1.00  0.00     0.363 C 
HETATM    4  O2  UNL     1      55.728  16.642  38.775  1.00  0.00    -0.243 OA
HETATM    5  N4  UNL     1      53.439  17.452  38.678  1.00  0.00    -0.247 N 
ATOM      6  H4  UNL     1      52.950  17.959  39.415  1.00  0.00     0.192 HD
ENDROOT
BRANCH   1   7
HETATM    7  N2  UNL     1      55.653  17.766  41.495  1.00  0.00    -0.295 NA
BRANCH   7   8
HETATM    8  C4  UNL     1      56.552  17.880  42.401  1.00  0.00     0.286 C 
BRANCH   8   9
HETATM    9  C3  UNL     1      56.867  17.524  43.777  1.00  0.00     0.430 C 
HETATM   10  C7  UNL     1      55.685  17.328  44.659  1.00  0.00     0.116 C 
HETATM   11  C8  UNL     1      55.661  15.843  44.155  1.00  0.00     0.281 C 
HETATM   12  N8  UNL     1      57.021  15.995  43.843  1.00  0.00     0.134 N 
HETATM   13  C9  UNL     1      57.523  15.489  42.604  1.00  0.00     0.314 C 
BRANCH   9  14
HETATM   14  N1  UNL     1      58.105  17.982  44.321  1.00  0.00     0.130 N 
HETATM   15  C1  UNL     1      58.545  17.146  45.456  1.00  0.00     0.313 C 
HETATM   16  C2  UNL     1      58.241  19.291  44.718  1.00  0.00     0.313 C 
ENDBRANCH   9  14
ENDBRANCH   8   9
BRANCH   8  17
HETATM   17  O1  UNL     1      57.716  18.680  42.011  1.00  0.00    -0.334 OA
ATOM     18  H1  UNL     1      58.093  18.161  41.310  1.00  0.00     0.220 HD
ENDBRANCH   8  17
ENDBRANCH   7   8
ENDBRANCH   1   7
BRANCH   5  19
HETATM   19  N5  UNL     1      52.577  17.392  37.714  1.00  0.00    -0.270 N 
HETATM   20  C6  UNL     1      52.581  17.373  36.349  1.00  0.00     0.200 C 
HETATM   21  N6  UNL     1      51.498  18.009  35.832  1.00  0.00    -0.372 N 
HETATM   22  N7  UNL     1      53.436  16.844  35.356  1.00  0.00    -0.062 NA
ATOM     23  H62 UNL     1      50.880  18.391  36.549  1.00  0.00     0.158 HD
ATOM     24  H61 UNL     1      51.500  17.995  34.812  1.00  0.00     0.158 HD
ATOM     25  H5  UNL     1      51.625  17.344  38.077  1.00  0.00     0.189 HD
ENDBRANCH   5  19
TORSDOF 6
ENDMDL
MODEL 2
REMARK VINA RESULT: -5.122244956      1.736      2.039
REMARK  6 active torsions:
REMARK  status: ('A' for Active; 'I' for Inactive)
REMARK    1  A    between atoms: N1_2  and  C3_4 
REMARK    2  A    between atoms: C3_4  and  C4_5 
REMARK    3  A    between atoms: C4_5  and  O1_6 
REMARK    4  A    between atoms: C4_5  and  N2_8 
REMARK    5  A    between atoms: N2_8  and  N3_9 
REMARK       I    between atoms: N3_9  and  C5_11 
REMARK       I    between atoms: C5_11  and  N4_13 
REMARK    6  A    between atoms: N4_13  and  N5_15 
REMARK       I    between atoms: N5_15  and  C6_17 
ROOT
HETATM    1  N3  UNL     1      56.144  18.598  41.516  1.00  0.00    -0.181 N 
ATOM      2  H3  UNL     1      56.411  19.343  40.873  1.00  0.00     0.207 HD
HETATM    3  C5  UNL     1      54.964  17.925  41.021  1.00  0.00     0.363 C 
HETATM    4  O2  UNL     1      54.464  17.123  41.901  1.00  0.00    -0.243 OA
HETATM    5  N4  UNL     1      54.637  18.275  39.768  1.00  0.00    -0.247 N 
ATOM      6  H4  UNL     1      55.389  18.901  39.483  1.00  0.00     0.192 HD
ENDROOT
BRANCH   1   7
HETATM    7  N2  UNL     1      56.962  18.563  42.496  1.00  0.00    -0.295 NA
BRANCH   7   8
HETATM    8  C4  UNL     1      57.784  18.489  43.476  1.00  0.00     0.286 C 
BRANCH   8   9
HETATM    9  C3  UNL     1      58.417  17.552  44.394  1.00  0.00     0.430 C 
HETATM   10  C7  UNL     1      57.711  17.374  45.691  1.00  0.00     0.116 C 
HETATM   11  C8  UNL     1      56.851  16.276  44.976  1.00  0.00     0.281 C 
HETATM   12  N8  UNL     1      57.902  16.143  44.055  1.00  0.00     0.134 N 
HETATM   13  C9  UNL     1      57.610  16.038  42.660  1.00  0.00     0.314 C 
BRANCH   9  14
HETATM   14  N1  UNL     1      59.834  17.389  44.314  1.00  0.00     0.130 N 
HETATM   15  C1  UNL     1      60.478  17.569  45.630  1.00  0.00     0.313 C 
HETATM   16  C2  UNL     1      60.561  18.128  43.412  1.00  0.00     0.313 C 
ENDBRANCH   9  14
ENDBRANCH   8   9
BRANCH   8  17
HETATM   17  O1  UNL     1      58.302  19.778  43.939  1.00  0.00    -0.334 OA
ATOM     18  H1  UNL     1      57.534  20.335  43.887  1.00  0.00     0.220 HD
ENDBRANCH   8  17
ENDBRANCH   7   8
ENDBRANCH   1   7
BRANCH   5  19
HETATM   19  N5  UNL     1      53.859  18.228  38.734  1.00  0.00    -0.270 N 
HETATM   20  C6  UNL     1      53.391  17.291  37.857  1.00  0.00     0.200 C 
HETATM   21  N6  UNL     1      53.225  17.804  36.610  1.00  0.00    -0.372 N 
HETATM   22  N7  UNL     1      53.034  15.927  37.945  1.00  0.00    -0.062 NA
ATOM     23  H62 UNL     1      53.484  18.790  36.547  1.00  0.00     0.158 HD
ATOM     24  H61 UNL     1      52.876  17.105  35.955  1.00  0.00     0.158 HD
ATOM     25  H5  UNL     1      53.491  19.153  38.510  1.00  0.00     0.189 HD
ENDBRANCH   5  19
TORSDOF 6
ENDMDL
MODEL 3
REMARK VINA RESULT: -4.659685757      0.886      2.249
REMARK  6 active torsions:
REMARK  status: ('A' for Active; 'I' for Inactive)
REMARK    1  A    between atoms: N1_2  and  C3_4 
REMARK    2  A    between atoms: C3_4  and  C4_5 
REMARK    3  A    between atoms: C4_5  and  O1_6 
REMARK    4  A    between atoms: C4_5  and  N2_8 
REMARK    5  A    between atoms: N2_8  and  N3_9 
REMARK       I    between atoms: N3_9  and  C5_11 
REMARK       I    between atoms: C5_11  and  N4_13 
REMARK    6  A    between atoms: N4_13  and  N5_15 
REMARK       I    between atoms: N5_15  and  C6_17 
ROOT
HETATM    1  N3  UNL     1      55.389  17.580  40.781  1.00  0.00    -0.181 N 
ATOM      2  H3  UNL     1      54.549  18.017  41.159  1.00  0.00     0.207 HD
HETATM    3  C5  UNL     1      55.110  17.036  39.471  1.00  0.00     0.363 C 
HETATM    4  O2  UNL     1      56.073  16.288  39.046  1.00  0.00    -0.243 OA
HETATM    5  N4  UNL     1      53.920  17.415  38.979  1.00  0.00    -0.247 N 
ATOM      6  H4  UNL     1      53.560  18.064  39.678  1.00  0.00     0.192 HD
ENDROOT
BRANCH   1   7
HETATM    7  N2  UNL     1      56.346  17.691  41.620  1.00  0.00    -0.295 NA
BRANCH   7   8
HETATM    8  C4  UNL     1      57.317  17.766  42.452  1.00  0.00     0.286 C 
BRANCH   8   9
HETATM    9  C3  UNL     1      57.971  17.056  43.542  1.00  0.00     0.430 C 
HETATM   10  C7  UNL     1      59.442  17.264  43.631  1.00  0.00     0.116 C 
HETATM   11  C8  UNL     1      59.125  18.536  44.491  1.00  0.00     0.281 C 
HETATM   12  N8  UNL     1      57.890  17.943  44.796  1.00  0.00     0.134 N 
HETATM   13  C9  UNL     1      56.701  18.736  44.772  1.00  0.00     0.314 C 
BRANCH   9  14
HETATM   14  N1  UNL     1      57.386  15.833  43.992  1.00  0.00     0.130 N 
HETATM   15  C1  UNL     1      57.269  14.850  42.897  1.00  0.00     0.313 C 
HETATM   16  C2  UNL     1      56.176  15.848  44.643  1.00  0.00     0.313 C 
ENDBRANCH   9  14
ENDBRANCH   8   9
BRANCH   8  17
HETATM   17  O1  UNL     1      58.088  19.009  42.382  1.00  0.00    -0.334 OA
ATOM     18  H1  UNL     1      57.480  19.600  41.953  1.00  0.00     0.220 HD
ENDBRANCH   8  17
ENDBRANCH   7   8
ENDBRANCH   1   7
BRANCH   5  19
HETATM   19  N5  UNL     1      52.994  17.382  38.074  1.00  0.00    -0.270 N 
HETATM   20  C6  UNL     1      52.906  17.345  36.713  1.00  0.00     0.200 C 
HETATM   21  N6  UNL     1      51.822  18.024  36.257  1.00  0.00    -0.372 N 
HETATM   22  N7  UNL     1      53.668  16.762  35.675  1.00  0.00    -0.062 NA
ATOM     23  H62 UNL     1      51.272  18.445  37.007  1.00  0.00     0.158 HD
ATOM     24  H61 UNL     1      51.755  17.996  35.240  1.00  0.00     0.158 HD
ATOM     25  H5  UNL     1      52.067  17.386  38.500  1.00  0.00     0.189 HD
ENDBRANCH   5  19
TORSDOF 6
ENDMDL
MODEL 4
REMARK VINA RESULT: -4.161811698      1.609      2.230
REMARK  6 active torsions:
REMARK  status: ('A' for Active; 'I' for Inactive)
REMARK    1  A    between atoms: N1_2  and  C3_4 
REMARK    2  A    between atoms: C3_4  and  C4_5 
REMARK    3  A    between atoms: C4_5  and  O1_6 
REMARK    4  A    between atoms: C4_5  and  N2_8 
REMARK    5  A    between atoms: N2_8  and  N3_9 
REMARK       I    between atoms: N3_9  and  C5_11 
REMARK       I    between atoms: C5_11  and  N4_13 
REMARK    6  A    between atoms: N4_13  and  N5_15 
REMARK       I    between atoms: N5_15  and  C6_17 
ROOT
HETATM    1  N3  UNL     1      56.012  17.355  41.059  1.00  0.00    -0.181 N 
ATOM      2  H3  UNL     1      55.292  18.024  41.329  1.00  0.00     0.207 HD
HETATM    3  C5  UNL     1      55.787  16.917  39.699  1.00  0.00     0.363 C 
HETATM    4  O2  UNL     1      56.537  15.915  39.387  1.00  0.00    -0.243 OA
HETATM    5  N4  UNL     1      54.852  17.634  39.056  1.00  0.00    -0.247 N 
ATOM      6  H4  UNL     1      54.599  18.362  39.724  1.00  0.00     0.192 HD
ENDROOT
BRANCH   1   7
HETATM    7  N2  UNL     1      56.819  17.176  42.032  1.00  0.00    -0.295 NA
BRANCH   7   8
HETATM    8  C4  UNL     1      57.658  17.008  42.986  1.00  0.00     0.286 C 
BRANCH   8   9
HETATM    9  C3  UNL     1      58.425  17.721  43.997  1.00  0.00     0.430 C 
HETATM   10  C7  UNL     1      58.141  19.179  44.087  1.00  0.00     0.116 C 
HETATM   11  C8  UNL     1      56.974  18.804  45.066  1.00  0.00     0.281 C 
HETATM   12  N8  UNL     1      57.664  17.611  45.330  1.00  0.00     0.134 N 
HETATM   13  C9  UNL     1      56.944  16.378  45.393  1.00  0.00     0.314 C 
BRANCH   9  14
HETATM   14  N1  UNL     1      59.717  17.215  44.338  1.00  0.00     0.130 N 
HETATM   15  C1  UNL     1      60.112  17.607  45.706  1.00  0.00     0.313 C 
HETATM   16  C2  UNL     1      60.794  17.473  43.525  1.00  0.00     0.313 C 
ENDBRANCH   9  14
ENDBRANCH   8   9
BRANCH   8  17
HETATM   17  O1  UNL     1      58.094  15.624  43.181  1.00  0.00    -0.334 OA
ATOM     18  H1  UNL     1      57.619  15.371  43.964  1.00  0.00     0.220 HD
ENDBRANCH   8  17
ENDBRANCH   7   8
ENDBRANCH   1   7
BRANCH   5  19
HETATM   19  N5  UNL     1      54.107  17.879  38.026  1.00  0.00    -0.270 N 
HETATM   20  C6  UNL     1      52.902  17.476  37.527  1.00  0.00     0.200 C 
HETATM   21  N6  UNL     1      52.900  17.451  36.169  1.00  0.00    -0.372 N 
HETATM   22  N7  UNL     1      51.663  17.093  38.088  1.00  0.00    -0.062 NA
ATOM     23  H62 UNL     1      53.795  17.728  35.764  1.00  0.00     0.158 HD
ATOM     24  H61 UNL     1      51.999  17.151  35.796  1.00  0.00     0.158 HD
ATOM     25  H5  UNL     1      54.544  18.567  37.414  1.00  0.00     0.189 HD
ENDBRANCH   5  19
TORSDOF 6
ENDMDL
MODEL 5
REMARK VINA RESULT: -3.873855883      1.497      2.372
REMARK  6 active torsions:
REMARK  status: ('A' for Active; 'I' for Inactive)
REMARK    1  A    between atoms: N1_2  and  C3_4 
REMARK    2  A    between atoms: C3_4  and  C4_5 
REMARK    3  A    between atoms: C4_5  and  O1_6 
REMARK    4  A    between atoms: C4_5  and  N2_8 
REMARK    5  A    between atoms: N2_8  and  N3_9 
REMARK       I    between atoms: N3_9  and  C5_11 
REMARK       I    between atoms: C5_11  and  N4_13 
REMARK    6  A    between atoms: N4_13  and  N5_15 
REMARK       I    between atoms: N5_15  and  C6_17 
ROOT
HETATM    1  N3  UNL     1      55.208  16.714  40.022  1.00  0.00    -0.181 N 
ATOM      2  H3  UNL     1      55.251  15.942  39.358  1.00  0.00     0.207 HD
HETATM    3  C5  UNL     1      54.246  17.694  39.570  1.00  0.00     0.363 C 
HETATM    4  O2  UNL     1      54.312  18.785  40.257  1.00  0.00    -0.243 OA
HETATM    5  N4  UNL     1      53.498  17.271  38.540  1.00  0.00    -0.247 N 
ATOM      6  H4  UNL     1      53.793  16.304  38.402  1.00  0.00     0.192 HD
ENDROOT
BRANCH   1   7
HETATM    7  N2  UNL     1      56.022  16.501  40.983  1.00  0.00    -0.295 NA
BRANCH   7   8
HETATM    8  C4  UNL     1      56.820  16.254  41.955  1.00  0.00     0.286 C 
BRANCH   8   9
HETATM    9  C3  UNL     1      57.098  16.589  43.343  1.00  0.00     0.430 C 
HETATM   10  C7  UNL     1      58.541  16.619  43.703  1.00  0.00     0.116 C 
HETATM   11  C8  UNL     1      58.546  18.109  43.218  1.00  0.00     0.281 C 
HETATM   12  N8  UNL     1      57.162  18.123  43.452  1.00  0.00     0.134 N 
HETATM   13  C9  UNL     1      56.289  18.729  42.496  1.00  0.00     0.314 C 
BRANCH   9  14
HETATM   14  N1  UNL     1      56.116  16.252  44.324  1.00  0.00     0.130 N 
HETATM   15  C1  UNL     1      56.738  15.830  45.595  1.00  0.00     0.313 C 
HETATM   16  C2  UNL     1      55.143  15.327  44.034  1.00  0.00     0.313 C 
ENDBRANCH   9  14
ENDBRANCH   8   9
BRANCH   8  17
HETATM   17  O1  UNL     1      57.911  15.332  41.631  1.00  0.00    -0.334 OA
ATOM     18  H1  UNL     1      57.659  14.547  42.103  1.00  0.00     0.220 HD
ENDBRANCH   8  17
ENDBRANCH   7   8
ENDBRANCH   1   7
BRANCH   5  19
HETATM   19  N5  UNL     1      52.595  17.455  37.630  1.00  0.00    -0.270 N 
HETATM   20  C6  UNL     1      52.490  17.369  36.272  1.00  0.00     0.200 C 
HETATM   21  N6  UNL     1      51.643  18.305  35.770  1.00  0.00    -0.372 N 
HETATM   22  N7  UNL     1      53.043  16.535  35.275  1.00  0.00    -0.062 NA
ATOM     23  H62 UNL     1      51.243  18.908  36.490  1.00  0.00     0.158 HD
ATOM     24  H61 UNL     1      51.564  18.241  34.755  1.00  0.00     0.158 HD
ATOM     25  H5  UNL     1      51.711  17.749  38.047  1.00  0.00     0.189 HD
ENDBRANCH   5  19
TORSDOF 6
ENDMDL
