MODEL 1
REMARK VINA RESULT: -6.982533304      0.000      0.000
REMARK  3 active torsions:
REMARK  status: ('A' for Active; 'I' for Inactive)
REMARK       I    between atoms: C2_5  and  N3_6 
REMARK       I    between atoms: C2_5  and  N8_17 
REMARK       I    between atoms: C3_8  and  N5_10 
REMARK    1  A    between atoms: N5_10  and  N6_12 
REMARK       I    between atoms: N6_12  and  C4_14 
REMARK    2  A    between atoms: N8_17  and  C5_19 
REMARK    3  A    between atoms: C5_19  and  C6_20 
ROOT
HETATM    1  N1  UNL     1      54.185  14.189  44.002  1.00  0.00    -0.171 NA
HETATM    2  C1  UNL     1      54.916  15.100  44.086  1.00  0.00     0.196 C 
HETATM    3  N2  UNL     1      55.790  16.174  44.164  1.00  0.00    -0.126 N 
ATOM      4  H2  UNL     1      56.187  16.449  45.062  1.00  0.00     0.197 HD
HETATM    5  C2  UNL     1      56.096  16.820  43.097  1.00  0.00     0.689 C 
HETATM    6  N3  UNL     1      56.986  17.910  43.179  1.00  0.00    -0.162 N 
ATOM      7  H3  UNL     1      56.709  18.826  42.826  1.00  0.00     0.187 HD
HETATM    8  C3  UNL     1      58.148  17.744  43.700  1.00  0.00     0.221 C 
HETATM    9  N4  UNL     1      58.478  16.433  44.177  1.00  0.00    -0.061 NA
HETATM   10  N5  UNL     1      59.097  18.775  43.830  1.00  0.00    -0.269 N 
ATOM     11  H5  UNL     1      59.125  19.525  43.139  1.00  0.00     0.189 HD
HETATM   12  N8  UNL     1      55.546  16.444  41.852  1.00  0.00    -0.225 N 
ATOM     13  H8  UNL     1      54.566  16.163  41.819  1.00  0.00     0.177 HD
ENDROOT
BRANCH  12  14
HETATM   14  C5  UNL     1      56.304  16.437  40.623  1.00  0.00     0.142 C 
BRANCH  14  15
HETATM   15  C6  UNL     1      55.593  17.287  39.593  1.00  0.00     0.007 C 
HETATM   16  C7  UNL     1      54.841  16.431  38.601  1.00  0.00     0.025 C 
HETATM   17  C8  UNL     1      53.635  16.993  37.991  1.00  0.00     0.114 C 
HETATM   18  N9  UNL     1      53.058  18.142  38.587  1.00  0.00    -0.421 N 
HETATM   19  C9  UNL     1      53.948  19.022  39.253  1.00  0.00     0.114 C 
ATOM     20  H9  UNL     1      52.057  18.327  38.539  1.00  0.00     0.153 HD
HETATM   21  C10 UNL     1      54.639  18.196  40.348  1.00  0.00     0.025 C 
ENDBRANCH  14  15
ENDBRANCH  12  14
BRANCH  10  22
HETATM   22  N6  UNL     1      59.998  18.781  44.892  1.00  0.00    -0.252 N 
HETATM   23  C4  UNL     1      61.099  17.879  44.888  1.00  0.00     0.347 C 
HETATM   24  N7  UNL     1      62.042  17.855  45.950  1.00  0.00    -0.038 NA
HETATM   25  O1  UNL     1      61.235  17.086  43.918  1.00  0.00    -0.249 OA
ATOM     26  H6  UNL     1      59.871  19.430  45.669  1.00  0.00     0.191 HD
ENDBRANCH  10  22
TORSDOF 3
ENDMDL
MODEL 2
REMARK VINA RESULT: -6.847950821      1.235      1.507
REMARK  3 active torsions:
REMARK  status: ('A' for Active; 'I' for Inactive)
REMARK       I    between atoms: C2_5  and  N3_6 
REMARK       I    between atoms: C2_5  and  N8_17 
REMARK       I    between atoms: C3_8  and  N5_10 
REMARK    1  A    between atoms: N5_10  and  N6_12 
REMARK       I    between atoms: N6_12  and  C4_14 
REMARK    2  A    between atoms: N8_17  and  C5_19 
REMARK    3  A    between atoms: C5_19  and  C6_20 
ROOT
HETATM    1  N1  UNL     1      55.248  14.039  42.504  1.00  0.00    -0.171 NA
HETATM    2  C1  UNL     1      55.857  14.891  43.027  1.00  0.00     0.196 C 
HETATM    3  N2  UNL     1      56.576  15.914  43.627  1.00  0.00    -0.126 N 
ATOM      4  H2  UNL     1      57.337  15.698  44.270  1.00  0.00     0.197 HD
HETATM    5  C2  UNL     1      56.277  17.136  43.366  1.00  0.00     0.689 C 
HETATM    6  N3  UNL     1      57.011  18.173  43.975  1.00  0.00    -0.162 N 
ATOM      7  H3  UNL     1      56.530  18.894  44.514  1.00  0.00     0.187 HD
HETATM    8  C3  UNL     1      58.289  18.207  43.850  1.00  0.00     0.221 C 
HETATM    9  N4  UNL     1      58.906  17.167  43.080  1.00  0.00    -0.061 NA
HETATM   10  N5  UNL     1      59.101  19.200  44.428  1.00  0.00    -0.269 N 
ATOM     11  H5  UNL     1      58.735  20.143  44.552  1.00  0.00     0.189 HD
HETATM   12  N8  UNL     1      55.222  17.439  42.477  1.00  0.00    -0.225 N 
ATOM     13  H8  UNL     1      54.373  16.875  42.521  1.00  0.00     0.177 HD
ENDROOT
BRANCH  12  14
HETATM   14  C5  UNL     1      55.287  18.508  41.509  1.00  0.00     0.142 C 
BRANCH  14  15
HETATM   15  C6  UNL     1      55.281  17.921  40.115  1.00  0.00     0.007 C 
HETATM   16  C7  UNL     1      55.706  16.471  40.128  1.00  0.00     0.025 C 
HETATM   17  C8  UNL     1      55.161  15.591  39.093  1.00  0.00     0.114 C 
HETATM   18  N9  UNL     1      54.040  16.044  38.353  1.00  0.00    -0.421 N 
HETATM   19  C9  UNL     1      53.925  17.446  38.174  1.00  0.00     0.114 C 
ATOM     20  H9  UNL     1      53.352  15.396  37.969  1.00  0.00     0.153 HD
HETATM   21  C10 UNL     1      53.867  18.061  39.580  1.00  0.00     0.025 C 
ENDBRANCH  14  15
ENDBRANCH  12  14
BRANCH  10  22
HETATM   22  N6  UNL     1      60.402  18.906  44.834  1.00  0.00    -0.252 N 
HETATM   23  C4  UNL     1      60.641  17.778  45.669  1.00  0.00     0.347 C 
HETATM   24  N7  UNL     1      61.951  17.443  46.103  1.00  0.00    -0.038 NA
HETATM   25  O1  UNL     1      59.665  17.066  46.028  1.00  0.00    -0.249 OA
ATOM     26  H6  UNL     1      61.178  19.495  44.534  1.00  0.00     0.191 HD
ENDBRANCH  10  22
TORSDOF 3
ENDMDL
MODEL 3
REMARK VINA RESULT: -6.459982615      1.020      1.455
REMARK  3 active torsions:
REMARK  status: ('A' for Active; 'I' for Inactive)
REMARK       I    between atoms: C2_5  and  N3_6 
REMARK       I    between atoms: C2_5  and  N8_17 
REMARK       I    between atoms: C3_8  and  N5_10 
REMARK    1  A    between atoms: N5_10  and  N6_12 
REMARK       I    between atoms: N6_12  and  C4_14 
REMARK    2  A    between atoms: N8_17  and  C5_19 
REMARK    3  A    between atoms: C5_19  and  C6_20 
ROOT
HETATM    1  N1  UNL     1      54.574  14.507  43.969  1.00  0.00    -0.171 NA
HETATM    2  C1  UNL     1      55.366  15.354  44.127  1.00  0.00     0.196 C 
HETATM    3  N2  UNL     1      56.305  16.362  44.291  1.00  0.00    -0.126 N 
ATOM      4  H2  UNL     1      57.011  16.292  45.023  1.00  0.00     0.197 HD
HETATM    5  C2  UNL     1      56.279  17.384  43.513  1.00  0.00     0.689 C 
HETATM    6  N3  UNL     1      57.236  18.405  43.681  1.00  0.00    -0.162 N 
ATOM      7  H3  UNL     1      56.936  19.370  43.822  1.00  0.00     0.187 HD
HETATM    8  C3  UNL     1      58.487  18.116  43.654  1.00  0.00     0.221 C 
HETATM    9  N4  UNL     1      58.843  16.742  43.451  1.00  0.00    -0.061 NA
HETATM   10  N5  UNL     1      59.509  19.068  43.819  1.00  0.00    -0.269 N 
ATOM     11  H5  UNL     1      59.364  20.026  43.501  1.00  0.00     0.189 HD
HETATM   12  N8  UNL     1      55.301  17.485  42.499  1.00  0.00    -0.225 N 
ATOM     13  H8  UNL     1      54.350  17.185  42.711  1.00  0.00     0.177 HD
ENDROOT
BRANCH  12  14
HETATM   14  C5  UNL     1      55.584  17.992  41.178  1.00  0.00     0.142 C 
BRANCH  14  15
HETATM   15  C6  UNL     1      54.481  17.568  40.233  1.00  0.00     0.007 C 
HETATM   16  C7  UNL     1      53.875  18.758  39.527  1.00  0.00     0.025 C 
HETATM   17  C8  UNL     1      53.322  18.548  38.188  1.00  0.00     0.114 C 
HETATM   18  N9  UNL     1      53.668  17.358  37.501  1.00  0.00    -0.421 N 
HETATM   19  C9  UNL     1      53.938  16.220  38.304  1.00  0.00     0.114 C 
ATOM     20  H9  UNL     1      53.721  17.321  36.484  1.00  0.00     0.153 HD
HETATM   21  C10 UNL     1      55.099  16.608  39.232  1.00  0.00     0.025 C 
ENDBRANCH  14  15
ENDBRANCH  12  14
BRANCH  10  22
HETATM   22  N6  UNL     1      60.720  18.715  44.413  1.00  0.00    -0.252 N 
HETATM   23  C4  UNL     1      60.731  17.781  45.487  1.00  0.00     0.347 C 
HETATM   24  N7  UNL     1      61.943  17.392  46.118  1.00  0.00    -0.038 NA
HETATM   25  O1  UNL     1      59.639  17.291  45.882  1.00  0.00    -0.249 OA
ATOM     26  H6  UNL     1      61.593  19.123  44.080  1.00  0.00     0.191 HD
ENDBRANCH  10  22
TORSDOF 3
ENDMDL
MODEL 4
REMARK VINA RESULT: -5.837991331      2.574      7.108
REMARK  3 active torsions:
REMARK  status: ('A' for Active; 'I' for Inactive)
REMARK       I    between atoms: C2_5  and  N3_6 
REMARK       I    between atoms: C2_5  and  N8_17 
REMARK       I    between atoms: C3_8  and  N5_10 
REMARK    1  A    between atoms: N5_10  and  N6_12 
REMARK       I    between atoms: N6_12  and  C4_14 
REMARK    2  A    between atoms: N8_17  and  C5_19 
REMARK    3  A    between atoms: C5_19  and  C6_20 
ROOT
HETATM    1  N1  UNL     1      55.344  14.981  44.493  1.00  0.00    -0.171 NA
HETATM    2  C1  UNL     1      55.325  15.399  43.400  1.00  0.00     0.196 C 
HETATM    3  N2  UNL     1      55.310  15.916  42.112  1.00  0.00    -0.126 N 
ATOM      4  H2  UNL     1      54.583  15.636  41.455  1.00  0.00     0.197 HD
HETATM    5  C2  UNL     1      56.220  16.749  41.755  1.00  0.00     0.689 C 
HETATM    6  N3  UNL     1      56.201  17.274  40.447  1.00  0.00    -0.162 N 
ATOM      7  H3  UNL     1      57.020  17.182  39.846  1.00  0.00     0.187 HD
HETATM    8  C3  UNL     1      55.148  17.868  40.014  1.00  0.00     0.221 C 
HETATM    9  N4  UNL     1      54.030  17.966  40.907  1.00  0.00    -0.061 NA
HETATM   10  N5  UNL     1      55.038  18.415  38.723  1.00  0.00    -0.269 N 
ATOM     11  H5  UNL     1      55.866  18.788  38.260  1.00  0.00     0.189 HD
HETATM   12  N8  UNL     1      57.230  17.138  42.662  1.00  0.00    -0.225 N 
ATOM     13  H8  UNL     1      57.631  16.427  43.274  1.00  0.00     0.177 HD
ENDROOT
BRANCH  12  14
HETATM   14  C5  UNL     1      57.722  18.491  42.764  1.00  0.00     0.142 C 
BRANCH  14  15
HETATM   15  C6  UNL     1      58.646  18.597  43.957  1.00  0.00     0.007 C 
HETATM   16  C7  UNL     1      58.234  17.647  45.057  1.00  0.00     0.025 C 
HETATM   17  C8  UNL     1      59.282  17.128  45.937  1.00  0.00     0.114 C 
HETATM   18  N9  UNL     1      60.631  17.270  45.528  1.00  0.00    -0.421 N 
HETATM   19  C9  UNL     1      60.930  18.394  44.716  1.00  0.00     0.114 C 
ATOM     20  H9  UNL     1      61.349  16.601  45.801  1.00  0.00     0.153 HD
HETATM   21  C10 UNL     1      60.046  18.275  43.465  1.00  0.00     0.025 C 
ENDBRANCH  14  15
ENDBRANCH  12  14
BRANCH  10  22
HETATM   22  N6  UNL     1      53.807  18.453  38.069  1.00  0.00    -0.252 N 
HETATM   23  C4  UNL     1      53.188  17.237  37.665  1.00  0.00     0.347 C 
HETATM   24  N7  UNL     1      51.933  17.231  36.999  1.00  0.00    -0.038 NA
HETATM   25  O1  UNL     1      53.769  16.145  37.906  1.00  0.00    -0.249 OA
ATOM     26  H6  UNL     1      53.352  19.346  37.882  1.00  0.00     0.191 HD
ENDBRANCH  10  22
TORSDOF 3
ENDMDL
MODEL 5
REMARK VINA RESULT: -5.401053685      2.668      6.369
REMARK  3 active torsions:
REMARK  status: ('A' for Active; 'I' for Inactive)
REMARK       I    between atoms: C2_5  and  N3_6 
REMARK       I    between atoms: C2_5  and  N8_17 
REMARK       I    between atoms: C3_8  and  N5_10 
REMARK    1  A    between atoms: N5_10  and  N6_12 
REMARK       I    between atoms: N6_12  and  C4_14 
REMARK    2  A    between atoms: N8_17  and  C5_19 
REMARK    3  A    between atoms: C5_19  and  C6_20 
ROOT
HETATM    1  N1  UNL     1      61.282  17.167  44.781  1.00  0.00    -0.171 NA
HETATM    2  C1  UNL     1      60.527  17.465  43.937  1.00  0.00     0.196 C 
HETATM    3  N2  UNL     1      59.615  17.819  42.953  1.00  0.00    -0.126 N 
ATOM      4  H2  UNL     1      59.699  17.434  42.012  1.00  0.00     0.197 HD
HETATM    5  C2  UNL     1      58.665  18.636  43.236  1.00  0.00     0.689 C 
HETATM    6  N3  UNL     1      57.739  18.992  42.235  1.00  0.00    -0.162 N 
ATOM      7  H3  UNL     1      57.585  19.974  42.005  1.00  0.00     0.187 HD
HETATM    8  C3  UNL     1      57.090  18.075  41.613  1.00  0.00     0.221 C 
HETATM    9  N4  UNL     1      57.351  16.714  41.982  1.00  0.00    -0.061 NA
HETATM   10  N5  UNL     1      56.153  18.338  40.596  1.00  0.00    -0.269 N 
ATOM     11  H5  UNL     1      55.606  19.198  40.624  1.00  0.00     0.189 HD
HETATM   12  N8  UNL     1      58.548  19.173  44.536  1.00  0.00    -0.225 N 
ATOM     13  H8  UNL     1      59.399  19.448  45.026  1.00  0.00     0.177 HD
ENDROOT
BRANCH  12  14
HETATM   14  C5  UNL     1      57.281  19.352  45.205  1.00  0.00     0.142 C 
BRANCH  14  15
HETATM   15  C6  UNL     1      56.682  17.998  45.512  1.00  0.00     0.007 C 
HETATM   16  C7  UNL     1      55.558  17.667  44.558  1.00  0.00     0.025 C 
HETATM   17  C8  UNL     1      55.316  16.256  44.253  1.00  0.00     0.114 C 
HETATM   18  N9  UNL     1      56.322  15.317  44.590  1.00  0.00    -0.421 N 
HETATM   19  C9  UNL     1      57.132  15.633  45.710  1.00  0.00     0.114 C 
ATOM     20  H9  UNL     1      56.457  14.458  44.057  1.00  0.00     0.153 HD
HETATM   21  C10 UNL     1      57.802  16.980  45.395  1.00  0.00     0.025 C 
ENDBRANCH  14  15
ENDBRANCH  12  14
BRANCH  10  22
HETATM   22  N6  UNL     1      55.964  17.434  39.553  1.00  0.00    -0.252 N 
HETATM   23  C4  UNL     1      54.681  17.312  38.949  1.00  0.00     0.347 C 
HETATM   24  N7  UNL     1      54.448  16.405  37.881  1.00  0.00    -0.038 NA
HETATM   25  O1  UNL     1      53.735  18.027  39.375  1.00  0.00    -0.249 OA
ATOM     26  H6  UNL     1      56.742  16.863  39.222  1.00  0.00     0.191 HD
ENDBRANCH  10  22
TORSDOF 3
ENDMDL
