MODEL 1
REMARK VINA RESULT: -8.211756346      0.000      0.000
REMARK  13 active torsions:
REMARK  status: ('A' for Active; 'I' for Inactive)
REMARK    1  A    between atoms: O1_2  and  C2_3 
REMARK    2  A    between atoms: C2_3  and  C3_5 
REMARK    3  A    between atoms: C3_5  and  N1_6 
REMARK    4  A    between atoms: C3_5  and  C24_38 
REMARK       I    between atoms: N1_6  and  C4_8 
REMARK    5  A    between atoms: C4_8  and  C5_10 
REMARK    6  A    between atoms: C5_10  and  N2_11 
REMARK    7  A    between atoms: C5_10  and  C21_35 
REMARK       I    between atoms: N2_11  and  C6_13 
REMARK    8  A    between atoms: C6_13  and  C7_15 
REMARK    9  A    between atoms: C7_15  and  C8_16 
REMARK   10  A    between atoms: C7_15  and  N3_20 
REMARK   11  A    between atoms: C8_16  and  C9_17 
REMARK       I    between atoms: N3_20  and  C12_21 
REMARK   12  A    between atoms: C12_21  and  O6_23 
REMARK   13  A    between atoms: O6_23  and  C13_24 
ROOT
HETATM    1  N2  UNL     1      18.372 -14.162  22.279  1.00  0.00    -0.345 N 
ATOM      2  H2  UNL     1      17.934 -13.827  23.138  1.00  0.00     0.163 HD
HETATM    3  C6  UNL     1      19.466 -15.020  22.449  1.00  0.00     0.254 C 
HETATM    4  O4  UNL     1      20.072 -15.486  21.470  1.00  0.00    -0.270 OA
ENDROOT
BRANCH   3   5
HETATM    5  C7  UNL     1      19.953 -15.416  23.840  1.00  0.00     0.261 C 
BRANCH   5   6
HETATM    6  C8  UNL     1      20.752 -14.302  24.435  1.00  0.00     0.053 C 
BRANCH   6   7
HETATM    7  C9  UNL     1      20.395 -13.789  25.763  1.00  0.00    -0.019 C 
HETATM    8  C10 UNL     1      20.124 -15.057  26.622  1.00  0.00     0.009 C 
HETATM    9  C11 UNL     1      21.500 -13.084  26.525  1.00  0.00     0.009 C 
ENDBRANCH   6   7
ENDBRANCH   5   6
BRANCH   5  10
HETATM   10  N3  UNL     1      20.471 -16.693  23.809  1.00  0.00    -0.375 NA
HETATM   11  C12 UNL     1      20.967 -17.946  23.777  1.00  0.00     0.435 C 
HETATM   12  O5  UNL     1      20.352 -19.040  23.519  1.00  0.00    -0.221 OA
BRANCH  11  13
HETATM   13  O6  UNL     1      22.343 -18.226  24.051  1.00  0.00    -0.287 OA
BRANCH  13  14
HETATM   14  C13 UNL     1      23.381 -17.392  23.595  1.00  0.00     0.147 C 
HETATM   15  C14 UNL     1      23.855 -16.546  24.751  1.00  0.00     0.136 C 
HETATM   16  C15 UNL     1      24.933 -15.600  24.391  1.00  0.00     0.224 C 
HETATM   17  O7  UNL     1      24.777 -14.424  24.808  1.00  0.00    -0.273 OA
HETATM   18  N4  UNL     1      26.102 -15.867  23.643  1.00  0.00    -0.335 N 
HETATM   19  C16 UNL     1      26.325 -16.698  22.694  1.00  0.00    -0.014 C 
ATOM     20  H4  UNL     1      26.908 -15.299  23.904  1.00  0.00     0.168 HD
HETATM   21  C17 UNL     1      27.710 -16.666  22.166  1.00  0.00     0.063 C 
HETATM   22  C18 UNL     1      25.372 -17.664  22.085  1.00  0.00     0.059 C 
HETATM   23  C19 UNL     1      24.484 -18.325  23.110  1.00  0.00     0.017 C 
HETATM   24  C20 UNL     1      23.816 -19.500  22.428  1.00  0.00     0.013 C 
ENDBRANCH  13  14
ENDBRANCH  11  13
ENDBRANCH   5  10
ENDBRANCH   3   5
BRANCH   1  25
HETATM   25  C5  UNL     1      17.789 -13.695  21.062  1.00  0.00     0.180 C 
BRANCH  25  26
HETATM   26  C4  UNL     1      16.286 -13.699  21.143  1.00  0.00     0.241 C 
HETATM   27  N1  UNL     1      15.534 -13.925  20.009  1.00  0.00    -0.345 N 
ATOM     28  H1  UNL     1      16.043 -14.089  19.141  1.00  0.00     0.163 HD
HETATM   29  O3  UNL     1      15.721 -13.493  22.253  1.00  0.00    -0.271 OA
BRANCH  27  30
HETATM   30  C3  UNL     1      14.086 -13.954  19.938  1.00  0.00     0.187 C 
BRANCH  30  31
HETATM   31  C2  UNL     1      13.505 -12.605  19.855  1.00  0.00     0.281 C 
HETATM   32  O2  UNL     1      13.778 -11.784  18.945  1.00  0.00    -0.263 OA
BRANCH  31  33
HETATM   33  O1  UNL     1      12.609 -12.202  20.828  1.00  0.00    -0.325 OA
HETATM   34  C1  UNL     1      12.232 -13.035  21.916  1.00  0.00     0.213 C 
ENDBRANCH  31  33
ENDBRANCH  30  31
BRANCH  30  35
HETATM   35  C24 UNL     1      13.625 -14.907  18.886  1.00  0.00     0.010 C 
HETATM   36  C25 UNL     1      12.430 -15.723  19.304  1.00  0.00     0.012 C 
HETATM   37  C26 UNL     1      14.682 -15.872  18.405  1.00  0.00     0.012 C 
ENDBRANCH  30  35
ENDBRANCH  27  30
ENDBRANCH  25  26
BRANCH  25  38
HETATM   38  C21 UNL     1      18.213 -12.298  20.748  1.00  0.00     0.009 C 
HETATM   39  C22 UNL     1      17.312 -11.538  19.828  1.00  0.00     0.012 C 
HETATM   40  C23 UNL     1      19.658 -12.236  20.272  1.00  0.00     0.012 C 
ENDBRANCH  25  38
ENDBRANCH   1  25
TORSDOF 13
ENDMDL
MODEL 2
REMARK VINA RESULT: -8.188895121      2.213      3.471
REMARK  13 active torsions:
REMARK  status: ('A' for Active; 'I' for Inactive)
REMARK    1  A    between atoms: O1_2  and  C2_3 
REMARK    2  A    between atoms: C2_3  and  C3_5 
REMARK    3  A    between atoms: C3_5  and  N1_6 
REMARK    4  A    between atoms: C3_5  and  C24_38 
REMARK       I    between atoms: N1_6  and  C4_8 
REMARK    5  A    between atoms: C4_8  and  C5_10 
REMARK    6  A    between atoms: C5_10  and  N2_11 
REMARK    7  A    between atoms: C5_10  and  C21_35 
REMARK       I    between atoms: N2_11  and  C6_13 
REMARK    8  A    between atoms: C6_13  and  C7_15 
REMARK    9  A    between atoms: C7_15  and  C8_16 
REMARK   10  A    between atoms: C7_15  and  N3_20 
REMARK   11  A    between atoms: C8_16  and  C9_17 
REMARK       I    between atoms: N3_20  and  C12_21 
REMARK   12  A    between atoms: C12_21  and  O6_23 
REMARK   13  A    between atoms: O6_23  and  C13_24 
ROOT
HETATM    1  N2  UNL     1      16.882 -16.063  22.280  1.00  0.00    -0.345 N 
ATOM      2  H2  UNL     1      16.631 -15.148  21.905  1.00  0.00     0.163 HD
HETATM    3  C6  UNL     1      18.012 -16.091  23.107  1.00  0.00     0.254 C 
HETATM    4  O4  UNL     1      18.405 -17.153  23.618  1.00  0.00    -0.270 OA
ENDROOT
BRANCH   3   5
HETATM    5  C7  UNL     1      18.799 -14.821  23.416  1.00  0.00     0.261 C 
BRANCH   5   6
HETATM    6  C8  UNL     1      19.416 -14.289  22.163  1.00  0.00     0.053 C 
BRANCH   6   7
HETATM    7  C9  UNL     1      19.048 -12.949  21.691  1.00  0.00    -0.019 C 
HETATM    8  C10 UNL     1      19.971 -12.689  20.466  1.00  0.00     0.009 C 
HETATM    9  C11 UNL     1      17.654 -12.805  21.111  1.00  0.00     0.009 C 
ENDBRANCH   6   7
ENDBRANCH   5   6
BRANCH   5  10
HETATM   10  N3  UNL     1      19.578 -15.013  24.537  1.00  0.00    -0.375 NA
HETATM   11  C12 UNL     1      20.333 -15.192  25.640  1.00  0.00     0.435 C 
HETATM   12  O5  UNL     1      20.185 -14.671  26.800  1.00  0.00    -0.221 OA
BRANCH  11  13
HETATM   13  O6  UNL     1      21.478 -16.049  25.645  1.00  0.00    -0.287 OA
BRANCH  13  14
HETATM   14  C13 UNL     1      22.582 -15.829  24.801  1.00  0.00     0.147 C 
HETATM   15  C14 UNL     1      23.415 -14.716  25.387  1.00  0.00     0.136 C 
HETATM   16  C15 UNL     1      24.599 -14.368  24.572  1.00  0.00     0.224 C 
HETATM   17  O7  UNL     1      24.775 -13.137  24.380  1.00  0.00    -0.273 OA
HETATM   18  N4  UNL     1      25.540 -15.250  23.993  1.00  0.00    -0.335 N 
HETATM   19  C16 UNL     1      25.414 -16.446  23.551  1.00  0.00    -0.014 C 
ATOM     20  H4  UNL     1      26.482 -14.868  23.915  1.00  0.00     0.168 HD
HETATM   21  C17 UNL     1      26.665 -17.034  23.013  1.00  0.00     0.063 C 
HETATM   22  C18 UNL     1      24.185 -17.283  23.522  1.00  0.00     0.059 C 
HETATM   23  C19 UNL     1      23.358 -17.140  24.776  1.00  0.00     0.017 C 
HETATM   24  C20 UNL     1      22.345 -18.265  24.771  1.00  0.00     0.013 C 
ENDBRANCH  13  14
ENDBRANCH  11  13
ENDBRANCH   5  10
ENDBRANCH   3   5
BRANCH   1  25
HETATM   25  C5  UNL     1      16.036 -17.147  21.892  1.00  0.00     0.180 C 
BRANCH  25  26
HETATM   26  C4  UNL     1      14.619 -16.683  21.688  1.00  0.00     0.241 C 
HETATM   27  N1  UNL     1      14.366 -15.383  21.302  1.00  0.00    -0.345 N 
ATOM     28  H1  UNL     1      15.174 -14.775  21.166  1.00  0.00     0.163 HD
HETATM   29  O3  UNL     1      13.666 -17.491  21.871  1.00  0.00    -0.271 OA
BRANCH  27  30
HETATM   30  C3  UNL     1      13.059 -14.799  21.073  1.00  0.00     0.187 C 
BRANCH  30  31
HETATM   31  C2  UNL     1      12.879 -13.532  21.798  1.00  0.00     0.281 C 
HETATM   32  O2  UNL     1      11.768 -13.123  22.218  1.00  0.00    -0.263 OA
BRANCH  31  33
HETATM   33  O1  UNL     1      13.982 -12.734  22.034  1.00  0.00    -0.325 OA
HETATM   34  C1  UNL     1      14.197 -11.502  21.358  1.00  0.00     0.213 C 
ENDBRANCH  31  33
ENDBRANCH  30  31
BRANCH  30  35
HETATM   35  C24 UNL     1      12.751 -14.744  19.615  1.00  0.00     0.010 C 
HETATM   36  C25 UNL     1      12.113 -16.005  19.092  1.00  0.00     0.012 C 
HETATM   37  C26 UNL     1      13.938 -14.442  18.732  1.00  0.00     0.012 C 
ENDBRANCH  30  35
ENDBRANCH  27  30
ENDBRANCH  25  26
BRANCH  25  38
HETATM   38  C21 UNL     1      16.488 -17.770  20.613  1.00  0.00     0.009 C 
HETATM   39  C22 UNL     1      15.508 -17.720  19.485  1.00  0.00     0.012 C 
HETATM   40  C23 UNL     1      17.008 -19.185  20.822  1.00  0.00     0.012 C 
ENDBRANCH  25  38
ENDBRANCH   1  25
TORSDOF 13
ENDMDL
MODEL 3
REMARK VINA RESULT: -8.094134204      3.663      6.088
REMARK  13 active torsions:
REMARK  status: ('A' for Active; 'I' for Inactive)
REMARK    1  A    between atoms: O1_2  and  C2_3 
REMARK    2  A    between atoms: C2_3  and  C3_5 
REMARK    3  A    between atoms: C3_5  and  N1_6 
REMARK    4  A    between atoms: C3_5  and  C24_38 
REMARK       I    between atoms: N1_6  and  C4_8 
REMARK    5  A    between atoms: C4_8  and  C5_10 
REMARK    6  A    between atoms: C5_10  and  N2_11 
REMARK    7  A    between atoms: C5_10  and  C21_35 
REMARK       I    between atoms: N2_11  and  C6_13 
REMARK    8  A    between atoms: C6_13  and  C7_15 
REMARK    9  A    between atoms: C7_15  and  C8_16 
REMARK   10  A    between atoms: C7_15  and  N3_20 
REMARK   11  A    between atoms: C8_16  and  C9_17 
REMARK       I    between atoms: N3_20  and  C12_21 
REMARK   12  A    between atoms: C12_21  and  O6_23 
REMARK   13  A    between atoms: O6_23  and  C13_24 
ROOT
HETATM    1  N2  UNL     1      14.536 -16.265  20.927  1.00  0.00    -0.345 N 
ATOM      2  H2  UNL     1      15.261 -15.884  20.319  1.00  0.00     0.163 HD
HETATM    3  C6  UNL     1      14.821 -17.506  21.510  1.00  0.00     0.254 C 
HETATM    4  O4  UNL     1      14.008 -18.060  22.267  1.00  0.00    -0.270 OA
ENDROOT
BRANCH   3   5
HETATM    5  C7  UNL     1      16.141 -18.222  21.240  1.00  0.00     0.261 C 
BRANCH   5   6
HETATM    6  C8  UNL     1      15.880 -19.537  20.578  1.00  0.00     0.053 C 
BRANCH   6   7
HETATM    7  C9  UNL     1      15.753 -19.596  19.118  1.00  0.00    -0.019 C 
HETATM    8  C10 UNL     1      14.228 -19.764  18.857  1.00  0.00     0.009 C 
HETATM    9  C11 UNL     1      16.095 -18.325  18.366  1.00  0.00     0.009 C 
ENDBRANCH   6   7
ENDBRANCH   5   6
BRANCH   5  10
HETATM   10  N3  UNL     1      16.944 -18.164  22.359  1.00  0.00    -0.375 NA
HETATM   11  C12 UNL     1      17.733 -18.118  23.451  1.00  0.00     0.435 C 
HETATM   12  O5  UNL     1      18.554 -19.003  23.878  1.00  0.00    -0.221 OA
BRANCH  11  13
HETATM   13  O6  UNL     1      17.746 -16.991  24.332  1.00  0.00    -0.287 OA
BRANCH  13  14
HETATM   14  C13 UNL     1      18.888 -16.187  24.502  1.00  0.00     0.147 C 
HETATM   15  C14 UNL     1      18.840 -15.068  23.492  1.00  0.00     0.136 C 
HETATM   16  C15 UNL     1      20.008 -14.164  23.550  1.00  0.00     0.224 C 
HETATM   17  O7  UNL     1      20.531 -13.890  22.439  1.00  0.00    -0.273 OA
HETATM   18  N4  UNL     1      20.593 -13.581  24.697  1.00  0.00    -0.335 N 
HETATM   19  C16 UNL     1      20.683 -14.002  25.904  1.00  0.00    -0.014 C 
ATOM     20  H4  UNL     1      21.018 -12.668  24.536  1.00  0.00     0.168 HD
HETATM   21  C17 UNL     1      21.387 -13.075  26.824  1.00  0.00     0.063 C 
HETATM   22  C18 UNL     1      20.171 -15.280  26.465  1.00  0.00     0.059 C 
HETATM   23  C19 UNL     1      18.811 -15.645  25.924  1.00  0.00     0.017 C 
HETATM   24  C20 UNL     1      18.266 -16.752  26.802  1.00  0.00     0.013 C 
ENDBRANCH  13  14
ENDBRANCH  11  13
ENDBRANCH   5  10
ENDBRANCH   3   5
BRANCH   1  25
HETATM   25  C5  UNL     1      13.362 -15.463  21.071  1.00  0.00     0.180 C 
BRANCH  25  26
HETATM   26  C4  UNL     1      13.703 -14.088  21.578  1.00  0.00     0.241 C 
HETATM   27  N1  UNL     1      12.699 -13.177  21.835  1.00  0.00    -0.345 N 
ATOM     28  H1  UNL     1      11.741 -13.486  21.670  1.00  0.00     0.163 HD
HETATM   29  O3  UNL     1      14.912 -13.774  21.764  1.00  0.00    -0.271 OA
BRANCH  27  30
HETATM   30  C3  UNL     1      12.879 -11.823  22.320  1.00  0.00     0.187 C 
BRANCH  30  31
HETATM   31  C2  UNL     1      13.503 -10.949  21.315  1.00  0.00     0.281 C 
HETATM   32  O2  UNL     1      14.495 -10.216  21.552  1.00  0.00    -0.263 OA
BRANCH  31  33
HETATM   33  O1  UNL     1      12.980 -10.919  20.037  1.00  0.00    -0.325 OA
HETATM   34  C1  UNL     1      13.675 -11.437  18.910  1.00  0.00     0.213 C 
ENDBRANCH  31  33
ENDBRANCH  30  31
BRANCH  30  35
HETATM   35  C24 UNL     1      11.615 -11.300  22.916  1.00  0.00     0.010 C 
HETATM   36  C25 UNL     1      11.814 -10.053  23.737  1.00  0.00     0.012 C 
HETATM   37  C26 UNL     1      10.869 -12.291  23.778  1.00  0.00     0.012 C 
ENDBRANCH  30  35
ENDBRANCH  27  30
ENDBRANCH  25  26
BRANCH  25  38
HETATM   38  C21 UNL     1      12.647 -15.293  19.772  1.00  0.00     0.009 C 
HETATM   39  C22 UNL     1      11.728 -16.407  19.387  1.00  0.00     0.012 C 
HETATM   40  C23 UNL     1      13.603 -14.957  18.636  1.00  0.00     0.012 C 
ENDBRANCH  25  38
ENDBRANCH   1  25
TORSDOF 13
ENDMDL
MODEL 4
REMARK VINA RESULT: -7.964343661      3.639      5.774
REMARK  13 active torsions:
REMARK  status: ('A' for Active; 'I' for Inactive)
REMARK    1  A    between atoms: O1_2  and  C2_3 
REMARK    2  A    between atoms: C2_3  and  C3_5 
REMARK    3  A    between atoms: C3_5  and  N1_6 
REMARK    4  A    between atoms: C3_5  and  C24_38 
REMARK       I    between atoms: N1_6  and  C4_8 
REMARK    5  A    between atoms: C4_8  and  C5_10 
REMARK    6  A    between atoms: C5_10  and  N2_11 
REMARK    7  A    between atoms: C5_10  and  C21_35 
REMARK       I    between atoms: N2_11  and  C6_13 
REMARK    8  A    between atoms: C6_13  and  C7_15 
REMARK    9  A    between atoms: C7_15  and  C8_16 
REMARK   10  A    between atoms: C7_15  and  N3_20 
REMARK   11  A    between atoms: C8_16  and  C9_17 
REMARK       I    between atoms: N3_20  and  C12_21 
REMARK   12  A    between atoms: C12_21  and  O6_23 
REMARK   13  A    between atoms: O6_23  and  C13_24 
ROOT
HETATM    1  N2  UNL     1      14.281 -17.196  20.890  1.00  0.00    -0.345 N 
ATOM      2  H2  UNL     1      15.071 -16.631  20.579  1.00  0.00     0.163 HD
HETATM    3  C6  UNL     1      14.548 -18.094  21.930  1.00  0.00     0.254 C 
HETATM    4  O4  UNL     1      13.656 -18.830  22.385  1.00  0.00    -0.270 OA
ENDROOT
BRANCH   3   5
HETATM    5  C7  UNL     1      15.940 -18.202  22.546  1.00  0.00     0.261 C 
BRANCH   5   6
HETATM    6  C8  UNL     1      15.839 -18.724  23.943  1.00  0.00     0.053 C 
BRANCH   6   7
HETATM    7  C9  UNL     1      16.941 -19.519  24.497  1.00  0.00    -0.019 C 
HETATM    8  C10 UNL     1      16.386 -20.095  25.831  1.00  0.00     0.009 C 
HETATM    9  C11 UNL     1      17.325 -20.761  23.716  1.00  0.00     0.009 C 
ENDBRANCH   6   7
ENDBRANCH   5   6
BRANCH   5  10
HETATM   10  N3  UNL     1      16.654 -17.050  22.294  1.00  0.00    -0.375 NA
HETATM   11  C12 UNL     1      17.344 -15.920  22.039  1.00  0.00     0.435 C 
HETATM   12  O5  UNL     1      16.979 -14.901  21.354  1.00  0.00    -0.221 OA
BRANCH  11  13
HETATM   13  O6  UNL     1      18.666 -15.708  22.541  1.00  0.00    -0.287 OA
BRANCH  13  14
HETATM   14  C13 UNL     1      18.906 -15.259  23.853  1.00  0.00     0.147 C 
HETATM   15  C14 UNL     1      18.936 -16.457  24.769  1.00  0.00     0.136 C 
HETATM   16  C15 UNL     1      19.153 -16.113  26.191  1.00  0.00     0.224 C 
HETATM   17  O7  UNL     1      18.381 -16.680  27.005  1.00  0.00    -0.273 OA
HETATM   18  N4  UNL     1      20.118 -15.231  26.728  1.00  0.00    -0.335 N 
HETATM   19  C16 UNL     1      20.655 -14.172  26.246  1.00  0.00    -0.014 C 
ATOM     20  H4  UNL     1      20.443 -15.480  27.662  1.00  0.00     0.168 HD
HETATM   21  C17 UNL     1      21.641 -13.523  27.143  1.00  0.00     0.063 C 
HETATM   22  C18 UNL     1      20.404 -13.545  24.920  1.00  0.00     0.059 C 
HETATM   23  C19 UNL     1      20.262 -14.564  23.816  1.00  0.00     0.017 C 
HETATM   24  C20 UNL     1      20.350 -13.813  22.505  1.00  0.00     0.013 C 
ENDBRANCH  13  14
ENDBRANCH  11  13
ENDBRANCH   5  10
ENDBRANCH   3   5
BRANCH   1  25
HETATM   25  C5  UNL     1      13.048 -16.967  20.206  1.00  0.00     0.180 C 
BRANCH  25  26
HETATM   26  C4  UNL     1      12.911 -15.524  19.801  1.00  0.00     0.241 C 
HETATM   27  N1  UNL     1      13.972 -14.658  19.961  1.00  0.00    -0.345 N 
ATOM     28  H1  UNL     1      14.830 -15.045  20.355  1.00  0.00     0.163 HD
HETATM   29  O3  UNL     1      11.820 -15.114  19.316  1.00  0.00    -0.271 OA
BRANCH  27  30
HETATM   30  C3  UNL     1      13.982 -13.249  19.621  1.00  0.00     0.187 C 
BRANCH  30  31
HETATM   31  C2  UNL     1      13.810 -12.388  20.802  1.00  0.00     0.281 C 
HETATM   32  O2  UNL     1      14.260 -12.671  21.940  1.00  0.00    -0.263 OA
BRANCH  31  33
HETATM   33  O1  UNL     1      13.113 -11.202  20.669  1.00  0.00    -0.325 OA
HETATM   34  C1  UNL     1      11.999 -10.871  21.487  1.00  0.00     0.213 C 
ENDBRANCH  31  33
ENDBRANCH  30  31
BRANCH  30  35
HETATM   35  C24 UNL     1      15.158 -12.918  18.764  1.00  0.00     0.010 C 
HETATM   36  C25 UNL     1      16.097 -11.925  19.397  1.00  0.00     0.012 C 
HETATM   37  C26 UNL     1      14.806 -12.392  17.392  1.00  0.00     0.012 C 
ENDBRANCH  30  35
ENDBRANCH  27  30
ENDBRANCH  25  26
BRANCH  25  38
HETATM   38  C21 UNL     1      12.945 -17.788  18.963  1.00  0.00     0.009 C 
HETATM   39  C22 UNL     1      12.327 -19.139  19.128  1.00  0.00     0.012 C 
HETATM   40  C23 UNL     1      14.278 -17.883  18.232  1.00  0.00     0.012 C 
ENDBRANCH  25  38
ENDBRANCH   1  25
TORSDOF 13
ENDMDL
MODEL 5
REMARK VINA RESULT: -7.951960500      2.629      4.596
REMARK  13 active torsions:
REMARK  status: ('A' for Active; 'I' for Inactive)
REMARK    1  A    between atoms: O1_2  and  C2_3 
REMARK    2  A    between atoms: C2_3  and  C3_5 
REMARK    3  A    between atoms: C3_5  and  N1_6 
REMARK    4  A    between atoms: C3_5  and  C24_38 
REMARK       I    between atoms: N1_6  and  C4_8 
REMARK    5  A    between atoms: C4_8  and  C5_10 
REMARK    6  A    between atoms: C5_10  and  N2_11 
REMARK    7  A    between atoms: C5_10  and  C21_35 
REMARK       I    between atoms: N2_11  and  C6_13 
REMARK    8  A    between atoms: C6_13  and  C7_15 
REMARK    9  A    between atoms: C7_15  and  C8_16 
REMARK   10  A    between atoms: C7_15  and  N3_20 
REMARK   11  A    between atoms: C8_16  and  C9_17 
REMARK       I    between atoms: N3_20  and  C12_21 
REMARK   12  A    between atoms: C12_21  and  O6_23 
REMARK   13  A    between atoms: O6_23  and  C13_24 
ROOT
HETATM    1  N2  UNL     1      16.498 -16.782  21.667  1.00  0.00    -0.345 N 
ATOM      2  H2  UNL     1      17.434 -16.534  21.347  1.00  0.00     0.163 HD
HETATM    3  C6  UNL     1      16.432 -17.820  22.605  1.00  0.00     0.254 C 
HETATM    4  O4  UNL     1      15.341 -18.201  23.062  1.00  0.00    -0.270 OA
ENDROOT
BRANCH   3   5
HETATM    5  C7  UNL     1      17.694 -18.518  23.103  1.00  0.00     0.261 C 
BRANCH   5   6
HETATM    6  C8  UNL     1      17.664 -18.619  24.594  1.00  0.00     0.053 C 
BRANCH   6   7
HETATM    7  C9  UNL     1      18.536 -17.751  25.393  1.00  0.00    -0.019 C 
HETATM    8  C10 UNL     1      17.675 -16.492  25.698  1.00  0.00     0.009 C 
HETATM    9  C11 UNL     1      18.904 -18.262  26.772  1.00  0.00     0.009 C 
ENDBRANCH   6   7
ENDBRANCH   5   6
BRANCH   5  10
HETATM   10  N3  UNL     1      18.800 -17.992  22.473  1.00  0.00    -0.375 NA
HETATM   11  C12 UNL     1      19.883 -17.487  21.847  1.00  0.00     0.435 C 
HETATM   12  O5  UNL     1      20.449 -17.899  20.775  1.00  0.00    -0.221 OA
BRANCH  11  13
HETATM   13  O6  UNL     1      20.584 -16.344  22.347  1.00  0.00    -0.287 OA
BRANCH  13  14
HETATM   14  C13 UNL     1      20.663 -16.056  23.722  1.00  0.00     0.147 C 
HETATM   15  C14 UNL     1      21.899 -16.718  24.278  1.00  0.00     0.136 C 
HETATM   16  C15 UNL     1      22.081 -16.512  25.731  1.00  0.00     0.224 C 
HETATM   17  O7  UNL     1      22.367 -17.546  26.388  1.00  0.00    -0.273 OA
HETATM   18  N4  UNL     1      21.970 -15.302  26.453  1.00  0.00    -0.335 N 
HETATM   19  C16 UNL     1      21.242 -14.266  26.256  1.00  0.00    -0.014 C 
ATOM     20  H4  UNL     1      22.574 -15.244  27.272  1.00  0.00     0.168 HD
HETATM   21  C17 UNL     1      21.426 -13.191  27.260  1.00  0.00     0.063 C 
HETATM   22  C18 UNL     1      20.265 -14.033  25.160  1.00  0.00     0.059 C 
HETATM   23  C19 UNL     1      20.758 -14.539  23.827  1.00  0.00     0.017 C 
HETATM   24  C20 UNL     1      19.852 -13.954  22.765  1.00  0.00     0.013 C 
ENDBRANCH  13  14
ENDBRANCH  11  13
ENDBRANCH   5  10
ENDBRANCH   3   5
BRANCH   1  25
HETATM   25  C5  UNL     1      15.427 -16.025  21.100  1.00  0.00     0.180 C 
BRANCH  25  26
HETATM   26  C4  UNL     1      15.710 -14.549  21.168  1.00  0.00     0.241 C 
HETATM   27  N1  UNL     1      15.249 -13.711  20.174  1.00  0.00    -0.345 N 
ATOM     28  H1  UNL     1      14.719 -14.140  19.416  1.00  0.00     0.163 HD
HETATM   29  O3  UNL     1      16.370 -14.085  22.139  1.00  0.00    -0.271 OA
BRANCH  27  30
HETATM   30  C3  UNL     1      15.448 -12.277  20.107  1.00  0.00     0.187 C 
BRANCH  30  31
HETATM   31  C2  UNL     1      16.260 -11.879  18.946  1.00  0.00     0.281 C 
HETATM   32  O2  UNL     1      15.834 -11.886  17.764  1.00  0.00    -0.263 OA
BRANCH  31  33
HETATM   33  O1  UNL     1      17.566 -11.477  19.149  1.00  0.00    -0.325 OA
HETATM   34  C1  UNL     1      18.314 -11.851  20.299  1.00  0.00     0.213 C 
ENDBRANCH  31  33
ENDBRANCH  30  31
BRANCH  30  35
HETATM   35  C24 UNL     1      14.151 -11.553  20.249  1.00  0.00     0.010 C 
HETATM   36  C25 UNL     1      14.090 -10.674  21.470  1.00  0.00     0.012 C 
HETATM   37  C26 UNL     1      12.933 -12.446  20.277  1.00  0.00     0.012 C 
ENDBRANCH  30  35
ENDBRANCH  27  30
ENDBRANCH  25  26
BRANCH  25  38
HETATM   38  C21 UNL     1      15.208 -16.370  19.663  1.00  0.00     0.009 C 
HETATM   39  C22 UNL     1      13.781 -16.436  19.223  1.00  0.00     0.012 C 
HETATM   40  C23 UNL     1      15.963 -17.629  19.259  1.00  0.00     0.012 C 
ENDBRANCH  25  38
ENDBRANCH   1  25
TORSDOF 13
ENDMDL
