MODEL 1
REMARK VINA RESULT: -8.135720942      0.000      0.000
REMARK  13 active torsions:
REMARK  status: ('A' for Active; 'I' for Inactive)
REMARK    1  A    between atoms: O1_2  and  C2_3 
REMARK    2  A    between atoms: C2_3  and  C3_5 
REMARK    3  A    between atoms: N1_10  and  C7_11 
REMARK    4  A    between atoms: C7_11  and  C8_12 
REMARK    5  A    between atoms: C7_11  and  C9_15 
REMARK    6  A    between atoms: C8_12  and  O3_13 
REMARK    7  A    between atoms: C9_15  and  C10_16 
REMARK    8  A    between atoms: C10_16  and  C11_17 
REMARK    9  A    between atoms: C11_17  and  N2_18 
REMARK       I    between atoms: N2_18  and  C12_20 
REMARK   10  A    between atoms: C12_20  and  C13_22 
REMARK   11  A    between atoms: C20_29  and  C21_30 
REMARK   12  A    between atoms: C21_30  and  C22_31 
REMARK   13  A    between atoms: C27_37  and  O5_38 
ROOT
HETATM    1  N2  UNL     1      16.051 -17.615  20.153  1.00  0.00    -0.361 N 
ATOM      2  H2  UNL     1      17.026 -17.480  19.885  1.00  0.00     0.162 HD
HETATM    3  C12 UNL     1      15.763 -17.771  21.510  1.00  0.00     0.226 C 
HETATM    4  O4  UNL     1      14.605 -17.934  21.939  1.00  0.00    -0.273 OA
ENDROOT
BRANCH   3   5
HETATM    5  C13 UNL     1      16.861 -17.746  22.512  1.00  0.00     0.126 C 
HETATM    6  C14 UNL     1      17.823 -18.899  22.358  1.00  0.00     0.018 C 
HETATM    7  C15 UNL     1      19.108 -18.517  21.718  1.00  0.00     0.003 C 
HETATM    8  C16 UNL     1      20.087 -17.719  22.414  1.00  0.00     0.026 C 
HETATM    9  C17 UNL     1      19.745 -16.864  23.579  1.00  0.00     0.090 C 
HETATM   10  C18 UNL     1      19.984 -17.574  24.838  1.00  0.00     0.018 A 
HETATM   11  N3  UNL     1      18.419 -16.358  23.631  1.00  0.00    -0.362 N 
HETATM   12  C19 UNL     1      20.880 -17.473  25.914  1.00  0.00     0.017 A 
HETATM   13  C20 UNL     1      19.905 -16.449  25.902  1.00  0.00    -0.030 A 
HETATM   14  C25 UNL     1      18.439 -16.412  26.129  1.00  0.00     0.054 C 
HETATM   15  C26 UNL     1      17.813 -16.019  24.822  1.00  0.00     0.062 C 
HETATM   16  C27 UNL     1      17.615 -16.453  22.480  1.00  0.00     0.232 C 
BRANCH  13  17
HETATM   17  C21 UNL     1      20.416 -15.064  25.596  1.00  0.00     0.015 C 
BRANCH  17  18
HETATM   18  C22 UNL     1      20.720 -14.439  26.971  1.00  0.00    -0.014 A 
HETATM   19  C23 UNL     1      22.231 -14.257  27.192  1.00  0.00     0.005 A 
HETATM   20  C24 UNL     1      21.277 -13.110  27.115  1.00  0.00     0.005 A 
ENDBRANCH  17  18
ENDBRANCH  13  17
BRANCH  16  21
HETATM   21  O5  UNL     1      16.641 -15.425  22.549  1.00  0.00    -0.376 OA
ATOM     22  H5  UNL     1      17.121 -14.614  22.670  1.00  0.00     0.212 HD
ENDBRANCH  16  21
ENDBRANCH   3   5
BRANCH   1  23
HETATM   23  C11 UNL     1      15.047 -17.633  19.093  1.00  0.00     0.122 C 
BRANCH  23  24
HETATM   24  C10 UNL     1      14.931 -16.316  18.451  1.00  0.00     0.022 C 
BRANCH  24  25
HETATM   25  C9  UNL     1      13.780 -15.481  18.850  1.00  0.00     0.028 C 
BRANCH  25  26
HETATM   26  C7  UNL     1      13.812 -14.808  20.139  1.00  0.00     0.103 C 
BRANCH  26  27
HETATM   27  N1  UNL     1      14.287 -13.436  20.032  1.00  0.00    -0.392 N 
HETATM   28  C3  UNL     1      14.732 -12.808  21.183  1.00  0.00     0.189 C 
HETATM   29  C4  UNL     1      16.141 -12.261  20.962  1.00  0.00     0.109 C 
HETATM   30  S1  UNL     1      16.471 -11.826  19.257  1.00  0.00    -0.165 SA
HETATM   31  C5  UNL     1      15.287 -12.492  18.091  1.00  0.00     0.093 C 
HETATM   32  C6  UNL     1      13.983 -12.741  18.865  1.00  0.00     0.128 C 
BRANCH  28  33
HETATM   33  C2  UNL     1      13.918 -11.701  21.726  1.00  0.00     0.281 C 
HETATM   34  O2  UNL     1      14.253 -10.529  21.380  1.00  0.00    -0.263 OA
BRANCH  33  35
HETATM   35  O1  UNL     1      12.839 -11.820  22.565  1.00  0.00    -0.325 OA
HETATM   36  C1  UNL     1      11.708 -10.969  22.495  1.00  0.00     0.213 C 
ENDBRANCH  33  35
ENDBRANCH  28  33
ENDBRANCH  26  27
BRANCH  26  37
HETATM   37  C8  UNL     1      12.631 -14.836  21.007  1.00  0.00     0.189 C 
BRANCH  37  38
HETATM   38  O3  UNL     1      12.922 -15.675  22.149  1.00  0.00    -0.399 OA
ATOM     39  H3  UNL     1      12.674 -16.567  21.938  1.00  0.00     0.209 HD
ENDBRANCH  37  38
ENDBRANCH  26  37
ENDBRANCH  25  26
ENDBRANCH  24  25
ENDBRANCH  23  24
ENDBRANCH   1  23
TORSDOF 13
ENDMDL
MODEL 2
REMARK VINA RESULT: -7.944791959      1.348      2.136
REMARK  13 active torsions:
REMARK  status: ('A' for Active; 'I' for Inactive)
REMARK    1  A    between atoms: O1_2  and  C2_3 
REMARK    2  A    between atoms: C2_3  and  C3_5 
REMARK    3  A    between atoms: N1_10  and  C7_11 
REMARK    4  A    between atoms: C7_11  and  C8_12 
REMARK    5  A    between atoms: C7_11  and  C9_15 
REMARK    6  A    between atoms: C8_12  and  O3_13 
REMARK    7  A    between atoms: C9_15  and  C10_16 
REMARK    8  A    between atoms: C10_16  and  C11_17 
REMARK    9  A    between atoms: C11_17  and  N2_18 
REMARK       I    between atoms: N2_18  and  C12_20 
REMARK   10  A    between atoms: C12_20  and  C13_22 
REMARK   11  A    between atoms: C20_29  and  C21_30 
REMARK   12  A    between atoms: C21_30  and  C22_31 
REMARK   13  A    between atoms: C27_37  and  O5_38 
ROOT
HETATM    1  N2  UNL     1      15.939 -17.301  19.988  1.00  0.00    -0.361 N 
ATOM      2  H2  UNL     1      16.839 -16.959  19.650  1.00  0.00     0.162 HD
HETATM    3  C12 UNL     1      15.841 -17.659  21.333  1.00  0.00     0.226 C 
HETATM    4  O4  UNL     1      14.786 -18.080  21.843  1.00  0.00    -0.273 OA
ENDROOT
BRANCH   3   5
HETATM    5  C13 UNL     1      17.027 -17.546  22.222  1.00  0.00     0.126 C 
HETATM    6  C14 UNL     1      18.002 -18.685  22.050  1.00  0.00     0.018 C 
HETATM    7  C15 UNL     1      19.210 -18.318  21.269  1.00  0.00     0.003 C 
HETATM    8  C16 UNL     1      20.228 -17.456  21.817  1.00  0.00     0.026 C 
HETATM    9  C17 UNL     1      19.972 -16.534  22.953  1.00  0.00     0.090 C 
HETATM   10  C18 UNL     1      20.348 -17.156  24.226  1.00  0.00     0.018 A 
HETATM   11  N3  UNL     1      18.643 -16.054  23.099  1.00  0.00    -0.362 N 
HETATM   12  C19 UNL     1      21.336 -16.965  25.203  1.00  0.00     0.017 A 
HETATM   13  C20 UNL     1      20.337 -15.965  25.220  1.00  0.00    -0.030 A 
HETATM   14  C25 UNL     1      18.898 -15.945  25.582  1.00  0.00     0.054 C 
HETATM   15  C26 UNL     1      18.143 -15.652  24.319  1.00  0.00     0.062 C 
HETATM   16  C27 UNL     1      17.739 -16.242  22.038  1.00  0.00     0.232 C 
BRANCH  13  17
HETATM   17  C21 UNL     1      20.779 -14.593  24.781  1.00  0.00     0.015 C 
BRANCH  17  18
HETATM   18  C22 UNL     1      21.716 -14.099  25.899  1.00  0.00    -0.014 A 
HETATM   19  C23 UNL     1      21.280 -12.728  26.444  1.00  0.00     0.005 A 
HETATM   20  C24 UNL     1      21.285 -13.969  27.275  1.00  0.00     0.005 A 
ENDBRANCH  17  18
ENDBRANCH  13  17
BRANCH  16  21
HETATM   21  O5  UNL     1      16.748 -15.233  22.135  1.00  0.00    -0.376 OA
ATOM     22  H5  UNL     1      17.190 -14.457  22.460  1.00  0.00     0.212 HD
ENDBRANCH  16  21
ENDBRANCH   3   5
BRANCH   1  23
HETATM   23  C11 UNL     1      14.837 -17.384  19.032  1.00  0.00     0.122 C 
BRANCH  23  24
HETATM   24  C10 UNL     1      14.715 -16.142  18.257  1.00  0.00     0.022 C 
BRANCH  24  25
HETATM   25  C9  UNL     1      13.725 -15.155  18.733  1.00  0.00     0.028 C 
BRANCH  25  26
HETATM   26  C7  UNL     1      13.701 -14.807  20.145  1.00  0.00     0.103 C 
BRANCH  26  27
HETATM   27  N1  UNL     1      14.033 -13.409  20.373  1.00  0.00    -0.392 N 
HETATM   28  C3  UNL     1      14.574 -12.687  19.322  1.00  0.00     0.189 C 
HETATM   29  C4  UNL     1      13.751 -11.422  19.086  1.00  0.00     0.109 C 
HETATM   30  S1  UNL     1      12.961 -10.806  20.570  1.00  0.00    -0.165 SA
HETATM   31  C5  UNL     1      12.923 -11.983  21.919  1.00  0.00     0.093 C 
HETATM   32  C6  UNL     1      14.081 -12.966  21.691  1.00  0.00     0.128 C 
BRANCH  28  33
HETATM   33  C2  UNL     1      15.988 -12.272  19.423  1.00  0.00     0.281 C 
HETATM   34  O2  UNL     1      16.411 -11.478  18.530  1.00  0.00    -0.263 OA
BRANCH  33  35
HETATM   35  O1  UNL     1      16.884 -12.662  20.386  1.00  0.00    -0.325 OA
HETATM   36  C1  UNL     1      18.163 -12.072  20.535  1.00  0.00     0.213 C 
ENDBRANCH  33  35
ENDBRANCH  28  33
ENDBRANCH  26  27
BRANCH  26  37
HETATM   37  C8  UNL     1      12.538 -15.160  20.965  1.00  0.00     0.189 C 
BRANCH  37  38
HETATM   38  O3  UNL     1      12.984 -16.001  22.055  1.00  0.00    -0.399 OA
ATOM     39  H3  UNL     1      13.802 -15.652  22.388  1.00  0.00     0.209 HD
ENDBRANCH  37  38
ENDBRANCH  26  37
ENDBRANCH  25  26
ENDBRANCH  24  25
ENDBRANCH  23  24
ENDBRANCH   1  23
TORSDOF 13
ENDMDL
MODEL 3
REMARK VINA RESULT: -7.841707979      1.548      2.273
REMARK  13 active torsions:
REMARK  status: ('A' for Active; 'I' for Inactive)
REMARK    1  A    between atoms: O1_2  and  C2_3 
REMARK    2  A    between atoms: C2_3  and  C3_5 
REMARK    3  A    between atoms: N1_10  and  C7_11 
REMARK    4  A    between atoms: C7_11  and  C8_12 
REMARK    5  A    between atoms: C7_11  and  C9_15 
REMARK    6  A    between atoms: C8_12  and  O3_13 
REMARK    7  A    between atoms: C9_15  and  C10_16 
REMARK    8  A    between atoms: C10_16  and  C11_17 
REMARK    9  A    between atoms: C11_17  and  N2_18 
REMARK       I    between atoms: N2_18  and  C12_20 
REMARK   10  A    between atoms: C12_20  and  C13_22 
REMARK   11  A    between atoms: C20_29  and  C21_30 
REMARK   12  A    between atoms: C21_30  and  C22_31 
REMARK   13  A    between atoms: C27_37  and  O5_38 
ROOT
HETATM    1  N2  UNL     1      16.996 -17.672  21.194  1.00  0.00    -0.361 N 
ATOM      2  H2  UNL     1      17.544 -16.865  20.895  1.00  0.00     0.162 HD
HETATM    3  C12 UNL     1      16.985 -17.984  22.555  1.00  0.00     0.226 C 
HETATM    4  O4  UNL     1      16.343 -18.943  23.021  1.00  0.00    -0.273 OA
ENDROOT
BRANCH   3   5
HETATM    5  C13 UNL     1      17.762 -17.156  23.514  1.00  0.00     0.126 C 
HETATM    6  C14 UNL     1      17.207 -17.207  24.917  1.00  0.00     0.018 C 
HETATM    7  C15 UNL     1      17.994 -18.069  25.835  1.00  0.00     0.003 C 
HETATM    8  C16 UNL     1      19.299 -17.673  26.306  1.00  0.00     0.026 C 
HETATM    9  C17 UNL     1      20.132 -16.661  25.606  1.00  0.00     0.090 C 
HETATM   10  C18 UNL     1      19.936 -15.330  26.186  1.00  0.00     0.018 A 
HETATM   11  N3  UNL     1      19.942 -16.538  24.204  1.00  0.00    -0.362 N 
HETATM   12  C19 UNL     1      20.698 -14.419  26.933  1.00  0.00     0.017 A 
HETATM   13  C20 UNL     1      21.100 -14.503  25.581  1.00  0.00    -0.030 A 
HETATM   14  C25 UNL     1      20.485 -14.101  24.291  1.00  0.00     0.054 C 
HETATM   15  C26 UNL     1      20.217 -15.367  23.531  1.00  0.00     0.062 C 
HETATM   16  C27 UNL     1      19.211 -17.535  23.532  1.00  0.00     0.232 C 
BRANCH  13  17
HETATM   17  C21 UNL     1      22.446 -15.135  25.337  1.00  0.00     0.015 C 
BRANCH  17  18
HETATM   18  C22 UNL     1      23.415 -13.951  25.156  1.00  0.00    -0.014 A 
HETATM   19  C23 UNL     1      24.844 -14.427  24.848  1.00  0.00     0.005 A 
HETATM   20  C24 UNL     1      24.026 -13.634  23.883  1.00  0.00     0.005 A 
ENDBRANCH  17  18
ENDBRANCH  13  17
BRANCH  16  21
HETATM   21  O5  UNL     1      19.634 -17.541  22.180  1.00  0.00    -0.376 OA
ATOM     22  H5  UNL     1      19.695 -18.455  21.925  1.00  0.00     0.212 HD
ENDBRANCH  16  21
ENDBRANCH   3   5
BRANCH   1  23
HETATM   23  C11 UNL     1      16.275 -18.426  20.172  1.00  0.00     0.122 C 
BRANCH  23  24
HETATM   24  C10 UNL     1      15.091 -17.689  19.708  1.00  0.00     0.022 C 
BRANCH  24  25
HETATM   25  C9  UNL     1      15.215 -16.221  19.615  1.00  0.00     0.028 C 
BRANCH  25  26
HETATM   26  C7  UNL     1      14.445 -15.391  20.528  1.00  0.00     0.103 C 
BRANCH  26  27
HETATM   27  N1  UNL     1      14.497 -13.982  20.167  1.00  0.00    -0.392 N 
HETATM   28  C3  UNL     1      14.949 -13.081  21.116  1.00  0.00     0.189 C 
HETATM   29  C4  UNL     1      16.090 -12.248  20.536  1.00  0.00     0.109 C 
HETATM   30  S1  UNL     1      15.978 -12.034  18.762  1.00  0.00    -0.165 SA
HETATM   31  C5  UNL     1      14.835 -13.156  17.962  1.00  0.00     0.093 C 
HETATM   32  C6  UNL     1      13.810 -13.587  19.023  1.00  0.00     0.128 C 
BRANCH  28  33
HETATM   33  C2  UNL     1      13.973 -12.135  21.694  1.00  0.00     0.281 C 
HETATM   34  O2  UNL     1      14.185 -10.903  21.486  1.00  0.00    -0.263 OA
BRANCH  33  35
HETATM   35  O1  UNL     1      12.862 -12.461  22.431  1.00  0.00    -0.325 OA
HETATM   36  C1  UNL     1      11.735 -11.611  22.546  1.00  0.00     0.213 C 
ENDBRANCH  33  35
ENDBRANCH  28  33
ENDBRANCH  26  27
BRANCH  26  37
HETATM   37  C8  UNL     1      13.060 -15.749  20.849  1.00  0.00     0.189 C 
BRANCH  37  38
HETATM   38  O3  UNL     1      12.873 -15.620  22.278  1.00  0.00    -0.399 OA
ATOM     39  H3  UNL     1      12.314 -14.870  22.441  1.00  0.00     0.209 HD
ENDBRANCH  37  38
ENDBRANCH  26  37
ENDBRANCH  25  26
ENDBRANCH  24  25
ENDBRANCH  23  24
ENDBRANCH   1  23
TORSDOF 13
ENDMDL
MODEL 4
REMARK VINA RESULT: -7.787397607      1.922      3.020
REMARK  13 active torsions:
REMARK  status: ('A' for Active; 'I' for Inactive)
REMARK    1  A    between atoms: O1_2  and  C2_3 
REMARK    2  A    between atoms: C2_3  and  C3_5 
REMARK    3  A    between atoms: N1_10  and  C7_11 
REMARK    4  A    between atoms: C7_11  and  C8_12 
REMARK    5  A    between atoms: C7_11  and  C9_15 
REMARK    6  A    between atoms: C8_12  and  O3_13 
REMARK    7  A    between atoms: C9_15  and  C10_16 
REMARK    8  A    between atoms: C10_16  and  C11_17 
REMARK    9  A    between atoms: C11_17  and  N2_18 
REMARK       I    between atoms: N2_18  and  C12_20 
REMARK   10  A    between atoms: C12_20  and  C13_22 
REMARK   11  A    between atoms: C20_29  and  C21_30 
REMARK   12  A    between atoms: C21_30  and  C22_31 
REMARK   13  A    between atoms: C27_37  and  O5_38 
ROOT
HETATM    1  N2  UNL     1      16.701 -17.254  21.168  1.00  0.00    -0.361 N 
ATOM      2  H2  UNL     1      17.157 -16.374  20.928  1.00  0.00     0.162 HD
HETATM    3  C12 UNL     1      16.850 -17.731  22.471  1.00  0.00     0.226 C 
HETATM    4  O4  UNL     1      16.327 -18.790  22.865  1.00  0.00    -0.273 OA
ENDROOT
BRANCH   3   5
HETATM    5  C13 UNL     1      17.661 -16.968  23.455  1.00  0.00     0.126 C 
HETATM    6  C14 UNL     1      17.141 -17.091  24.867  1.00  0.00     0.018 C 
HETATM    7  C15 UNL     1      17.940 -18.012  25.715  1.00  0.00     0.003 C 
HETATM    8  C16 UNL     1      19.261 -17.658  26.173  1.00  0.00     0.026 C 
HETATM    9  C17 UNL     1      20.089 -16.618  25.509  1.00  0.00     0.090 C 
HETATM   10  C18 UNL     1      19.924 -15.320  26.168  1.00  0.00     0.018 A 
HETATM   11  N3  UNL     1      19.865 -16.414  24.122  1.00  0.00    -0.362 N 
HETATM   12  C19 UNL     1      20.716 -14.461  26.945  1.00  0.00     0.017 A 
HETATM   13  C20 UNL     1      21.083 -14.473  25.580  1.00  0.00    -0.030 A 
HETATM   14  C25 UNL     1      20.442 -13.992  24.331  1.00  0.00     0.054 C 
HETATM   15  C26 UNL     1      20.138 -15.210  23.509  1.00  0.00     0.062 C 
HETATM   16  C27 UNL     1      19.105 -17.363  23.415  1.00  0.00     0.232 C 
BRANCH  13  17
HETATM   17  C21 UNL     1      22.415 -15.105  25.266  1.00  0.00     0.015 C 
BRANCH  17  18
HETATM   18  C22 UNL     1      23.390 -13.923  25.112  1.00  0.00    -0.014 A 
HETATM   19  C23 UNL     1      24.828 -14.402  24.852  1.00  0.00     0.005 A 
HETATM   20  C24 UNL     1      24.043 -13.612  23.857  1.00  0.00     0.005 A 
ENDBRANCH  17  18
ENDBRANCH  13  17
BRANCH  16  21
HETATM   21  O5  UNL     1      19.494 -17.299  22.053  1.00  0.00    -0.376 OA
ATOM     22  H5  UNL     1      20.440 -17.392  22.043  1.00  0.00     0.212 HD
ENDBRANCH  16  21
ENDBRANCH   3   5
BRANCH   1  23
HETATM   23  C11 UNL     1      15.933 -17.932  20.127  1.00  0.00     0.122 C 
BRANCH  23  24
HETATM   24  C10 UNL     1      15.071 -16.987  19.404  1.00  0.00     0.022 C 
BRANCH  24  25
HETATM   25  C9  UNL     1      15.289 -15.551  19.669  1.00  0.00     0.028 C 
BRANCH  25  26
HETATM   26  C7  UNL     1      14.502 -14.900  20.705  1.00  0.00     0.103 C 
BRANCH  26  27
HETATM   27  N1  UNL     1      14.578 -13.449  20.623  1.00  0.00    -0.392 N 
HETATM   28  C3  UNL     1      15.080 -12.886  19.461  1.00  0.00     0.189 C 
HETATM   29  C4  UNL     1      14.084 -11.872  18.905  1.00  0.00     0.109 C 
HETATM   30  S1  UNL     1      13.078 -11.102  20.171  1.00  0.00    -0.165 SA
HETATM   31  C5  UNL     1      13.118 -11.946  21.749  1.00  0.00     0.093 C 
HETATM   32  C6  UNL     1      14.438 -12.731  21.806  1.00  0.00     0.128 C 
BRANCH  28  33
HETATM   33  C2  UNL     1      16.392 -12.211  19.531  1.00  0.00     0.281 C 
HETATM   34  O2  UNL     1      16.664 -11.402  18.594  1.00  0.00    -0.263 OA
BRANCH  33  35
HETATM   35  O1  UNL     1      17.342 -12.377  20.508  1.00  0.00    -0.325 OA
HETATM   36  C1  UNL     1      18.686 -11.955  20.357  1.00  0.00     0.213 C 
ENDBRANCH  33  35
ENDBRANCH  28  33
ENDBRANCH  26  27
BRANCH  26  37
HETATM   37  C8  UNL     1      13.106 -15.292  20.916  1.00  0.00     0.189 C 
BRANCH  37  38
HETATM   38  O3  UNL     1      13.020 -16.029  22.158  1.00  0.00    -0.399 OA
ATOM     39  H3  UNL     1      13.900 -16.258  22.434  1.00  0.00     0.209 HD
ENDBRANCH  37  38
ENDBRANCH  26  37
ENDBRANCH  25  26
ENDBRANCH  24  25
ENDBRANCH  23  24
ENDBRANCH   1  23
TORSDOF 13
ENDMDL
MODEL 5
REMARK VINA RESULT: -7.739884591      1.367      2.217
REMARK  13 active torsions:
REMARK  status: ('A' for Active; 'I' for Inactive)
REMARK    1  A    between atoms: O1_2  and  C2_3 
REMARK    2  A    between atoms: C2_3  and  C3_5 
REMARK    3  A    between atoms: N1_10  and  C7_11 
REMARK    4  A    between atoms: C7_11  and  C8_12 
REMARK    5  A    between atoms: C7_11  and  C9_15 
REMARK    6  A    between atoms: C8_12  and  O3_13 
REMARK    7  A    between atoms: C9_15  and  C10_16 
REMARK    8  A    between atoms: C10_16  and  C11_17 
REMARK    9  A    between atoms: C11_17  and  N2_18 
REMARK       I    between atoms: N2_18  and  C12_20 
REMARK   10  A    between atoms: C12_20  and  C13_22 
REMARK   11  A    between atoms: C20_29  and  C21_30 
REMARK   12  A    between atoms: C21_30  and  C22_31 
REMARK   13  A    between atoms: C27_37  and  O5_38 
ROOT
HETATM    1  N2  UNL     1      15.807 -17.934  20.580  1.00  0.00    -0.361 N 
ATOM      2  H2  UNL     1      16.779 -17.917  20.274  1.00  0.00     0.162 HD
HETATM    3  C12 UNL     1      15.556 -17.945  21.953  1.00  0.00     0.226 C 
HETATM    4  O4  UNL     1      14.405 -17.957  22.428  1.00  0.00    -0.273 OA
ENDROOT
BRANCH   3   5
HETATM    5  C13 UNL     1      16.688 -17.941  22.917  1.00  0.00     0.126 C 
HETATM    6  C14 UNL     1      17.500 -19.212  22.875  1.00  0.00     0.018 C 
HETATM    7  C15 UNL     1      18.795 -19.066  22.162  1.00  0.00     0.003 C 
HETATM    8  C16 UNL     1      19.888 -18.320  22.734  1.00  0.00     0.026 C 
HETATM    9  C17 UNL     1      19.696 -17.302  23.799  1.00  0.00     0.090 C 
HETATM   10  C18 UNL     1      19.899 -17.889  25.126  1.00  0.00     0.018 A 
HETATM   11  N3  UNL     1      18.442 -16.635  23.825  1.00  0.00    -0.362 N 
HETATM   12  C19 UNL     1      20.842 -17.777  26.159  1.00  0.00     0.017 A 
HETATM   13  C20 UNL     1      19.996 -16.649  26.052  1.00  0.00    -0.030 A 
HETATM   14  C25 UNL     1      18.555 -16.407  26.311  1.00  0.00     0.054 C 
HETATM   15  C26 UNL     1      17.929 -16.092  24.984  1.00  0.00     0.062 C 
HETATM   16  C27 UNL     1      17.588 -16.762  22.714  1.00  0.00     0.232 C 
BRANCH  13  17
HETATM   17  C21 UNL     1      20.655 -15.381  25.573  1.00  0.00     0.015 C 
BRANCH  17  18
HETATM   18  C22 UNL     1      20.697 -14.462  26.809  1.00  0.00    -0.014 A 
HETATM   19  C23 UNL     1      22.139 -14.193  27.270  1.00  0.00     0.005 A 
HETATM   20  C24 UNL     1      21.235 -13.119  26.761  1.00  0.00     0.005 A 
ENDBRANCH  17  18
ENDBRANCH  13  17
BRANCH  16  21
HETATM   21  O5  UNL     1      16.747 -15.621  22.687  1.00  0.00    -0.376 OA
ATOM     22  H5  UNL     1      16.941 -15.168  21.874  1.00  0.00     0.212 HD
ENDBRANCH  16  21
ENDBRANCH   3   5
BRANCH   1  23
HETATM   23  C11 UNL     1      14.766 -17.945  19.555  1.00  0.00     0.122 C 
BRANCH  23  24
HETATM   24  C10 UNL     1      14.954 -16.844  18.599  1.00  0.00     0.022 C 
BRANCH  24  25
HETATM   25  C9  UNL     1      14.017 -15.707  18.702  1.00  0.00     0.028 C 
BRANCH  25  26
HETATM   26  C7  UNL     1      13.946 -14.965  19.952  1.00  0.00     0.103 C 
BRANCH  26  27
HETATM   27  N1  UNL     1      14.433 -13.601  19.811  1.00  0.00    -0.392 N 
HETATM   28  C3  UNL     1      13.677 -12.713  19.064  1.00  0.00     0.189 C 
HETATM   29  C4  UNL     1      13.381 -11.463  19.891  1.00  0.00     0.109 C 
HETATM   30  S1  UNL     1      14.647 -11.103  21.106  1.00  0.00    -0.165 SA
HETATM   31  C5  UNL     1      15.769 -12.463  21.415  1.00  0.00     0.093 C 
HETATM   32  C6  UNL     1      15.756 -13.353  20.163  1.00  0.00     0.128 C 
BRANCH  28  33
HETATM   33  C2  UNL     1      14.225 -12.255  17.771  1.00  0.00     0.281 C 
HETATM   34  O2  UNL     1      13.785 -11.153  17.326  1.00  0.00    -0.263 OA
BRANCH  33  35
HETATM   35  O1  UNL     1      15.161 -12.907  17.008  1.00  0.00    -0.325 OA
HETATM   36  C1  UNL     1      15.744 -12.338  15.848  1.00  0.00     0.213 C 
ENDBRANCH  33  35
ENDBRANCH  28  33
ENDBRANCH  26  27
BRANCH  26  37
HETATM   37  C8  UNL     1      12.697 -14.948  20.720  1.00  0.00     0.189 C 
BRANCH  37  38
HETATM   38  O3  UNL     1      12.941 -15.566  22.005  1.00  0.00    -0.399 OA
ATOM     39  H3  UNL     1      12.131 -15.959  22.308  1.00  0.00     0.209 HD
ENDBRANCH  37  38
ENDBRANCH  26  37
ENDBRANCH  25  26
ENDBRANCH  24  25
ENDBRANCH  23  24
ENDBRANCH   1  23
TORSDOF 13
ENDMDL
