MODEL 1
REMARK VINA RESULT: -8.058197003      0.000      0.000
REMARK  14 active torsions:
REMARK  status: ('A' for Active; 'I' for Inactive)
REMARK    1  A    between atoms: O1_2  and  C2_3 
REMARK    2  A    between atoms: C2_3  and  C3_5 
REMARK    3  A    between atoms: C3_5  and  C4_6 
REMARK    4  A    between atoms: C4_6  and  C5_7 
REMARK    5  A    between atoms: C5_7  and  C6_8 
REMARK    6  A    between atoms: C6_8  and  C7_9 
REMARK    7  A    between atoms: C7_9  and  C8_10 
REMARK    8  A    between atoms: C10_12  and  S1_13 
REMARK    9  A    between atoms: S1_13  and  C11_14 
REMARK   10  A    between atoms: C12_15  and  C13_16 
REMARK   11  A    between atoms: C15_22  and  C16_23 
REMARK   12  A    between atoms: C16_23  and  O6_25 
REMARK   13  A    between atoms: C22_31  and  C23_32 
REMARK       I    between atoms: C23_32  and  N2_34 
REMARK   14  A    between atoms: N2_34  and  C24_36 
ROOT
HETATM    1  C8  UNL     1      19.977 -14.987  22.494  1.00  0.00    -0.000 C 
HETATM    2  C9  UNL     1      18.751 -14.351  21.901  1.00  0.00     0.021 C 
HETATM    3  C10 UNL     1      17.573 -15.228  22.348  1.00  0.00     0.053 C 
HETATM    4  C21 UNL     1      18.280 -16.633  22.368  1.00  0.00     0.030 C 
HETATM    5  C22 UNL     1      19.518 -16.255  23.103  1.00  0.00     0.083 C 
ENDROOT
BRANCH   3   6
HETATM    6  S1  UNL     1      16.294 -15.195  21.197  1.00  0.00    -0.126 SA
BRANCH   6   7
HETATM    7  C11 UNL     1      15.199 -13.901  20.935  1.00  0.00     0.018 C 
HETATM    8  C12 UNL     1      15.290 -12.680  20.449  1.00  0.00     0.128 C 
HETATM    9  N1  UNL     1      13.991 -12.028  20.447  1.00  0.00    -0.304 N 
HETATM   10  C14 UNL     1      12.923 -11.096  20.385  1.00  0.00     0.233 C 
HETATM   11  C18 UNL     1      12.993 -13.049  20.677  1.00  0.00     0.117 C 
HETATM   12  O5  UNL     1      12.752 -10.028  19.772  1.00  0.00    -0.272 OA
HETATM   13  C15 UNL     1      12.190 -11.999  21.353  1.00  0.00     0.130 C 
HETATM   14  C19 UNL     1      13.730 -14.053  21.453  1.00  0.00     0.048 C 
HETATM   15  C20 UNL     1      13.333 -15.448  20.994  1.00  0.00     0.018 C 
BRANCH   8  16
HETATM   16  C13 UNL     1      16.448 -11.958  19.936  1.00  0.00     0.228 C 
HETATM   17  O3  UNL     1      17.469 -11.699  20.576  1.00  0.00    -0.643 OA
HETATM   18  O4  UNL     1      16.440 -11.496  18.588  1.00  0.00    -0.643 OA
ENDBRANCH   8  16
BRANCH  13  19
HETATM   19  C16 UNL     1      12.482 -11.650  22.772  1.00  0.00     0.129 C 
HETATM   20  C17 UNL     1      11.235 -11.997  23.596  1.00  0.00     0.040 C 
BRANCH  19  21
HETATM   21  O6  UNL     1      12.666 -10.281  22.969  1.00  0.00    -0.395 OA
ATOM     22  H6  UNL     1      13.492 -10.075  23.393  1.00  0.00     0.210 HD
ENDBRANCH  19  21
ENDBRANCH  13  19
ENDBRANCH   6   7
ENDBRANCH   3   6
BRANCH   1  23
HETATM   23  C7  UNL     1      20.652 -14.063  23.498  1.00  0.00     0.005 C 
BRANCH  23  24
HETATM   24  C6  UNL     1      20.008 -14.166  24.851  1.00  0.00     0.000 C 
BRANCH  24  25
HETATM   25  C5  UNL     1      20.831 -13.440  25.879  1.00  0.00     0.001 C 
BRANCH  25  26
HETATM   26  C4  UNL     1      21.072 -14.391  27.056  1.00  0.00     0.010 C 
BRANCH  26  27
HETATM   27  C3  UNL     1      22.543 -14.648  27.235  1.00  0.00     0.111 C 
BRANCH  27  28
HETATM   28  C2  UNL     1      23.074 -15.482  26.134  1.00  0.00     0.258 C 
HETATM   29  O2  UNL     1      22.453 -16.535  25.841  1.00  0.00    -0.265 OA
BRANCH  28  30
HETATM   30  O1  UNL     1      24.213 -15.120  25.446  1.00  0.00    -0.326 OA
HETATM   31  C1  UNL     1      24.253 -13.994  24.572  1.00  0.00     0.213 C 
ENDBRANCH  28  30
ENDBRANCH  27  28
ENDBRANCH  26  27
ENDBRANCH  25  26
ENDBRANCH  24  25
ENDBRANCH  23  24
ENDBRANCH   1  23
BRANCH   5  32
HETATM   32  C23 UNL     1      20.548 -17.326  23.092  1.00  0.00     0.222 C 
HETATM   33  O7  UNL     1      20.190 -18.478  23.464  1.00  0.00    -0.273 OA
HETATM   34  N2  UNL     1      21.879 -17.112  22.692  1.00  0.00    -0.357 N 
ATOM     35  H2  UNL     1      22.172 -16.182  22.392  1.00  0.00     0.162 HD
BRANCH  34  36
HETATM   36  C24 UNL     1      22.836 -18.192  22.700  1.00  0.00     0.076 C 
HETATM   37  C25 UNL     1      22.943 -18.865  21.364  1.00  0.00     0.032 C 
HETATM   38  C26 UNL     1      24.229 -17.695  23.073  1.00  0.00     0.032 C 
ENDBRANCH  34  36
ENDBRANCH   5  32
TORSDOF 14
ENDMDL
MODEL 2
REMARK VINA RESULT: -7.982462728      1.157      1.542
REMARK  14 active torsions:
REMARK  status: ('A' for Active; 'I' for Inactive)
REMARK    1  A    between atoms: O1_2  and  C2_3 
REMARK    2  A    between atoms: C2_3  and  C3_5 
REMARK    3  A    between atoms: C3_5  and  C4_6 
REMARK    4  A    between atoms: C4_6  and  C5_7 
REMARK    5  A    between atoms: C5_7  and  C6_8 
REMARK    6  A    between atoms: C6_8  and  C7_9 
REMARK    7  A    between atoms: C7_9  and  C8_10 
REMARK    8  A    between atoms: C10_12  and  S1_13 
REMARK    9  A    between atoms: S1_13  and  C11_14 
REMARK   10  A    between atoms: C12_15  and  C13_16 
REMARK   11  A    between atoms: C15_22  and  C16_23 
REMARK   12  A    between atoms: C16_23  and  O6_25 
REMARK   13  A    between atoms: C22_31  and  C23_32 
REMARK       I    between atoms: C23_32  and  N2_34 
REMARK   14  A    between atoms: N2_34  and  C24_36 
ROOT
HETATM    1  C8  UNL     1      19.996 -14.620  23.097  1.00  0.00    -0.000 C 
HETATM    2  C9  UNL     1      18.759 -14.099  22.421  1.00  0.00     0.021 C 
HETATM    3  C10 UNL     1      17.713 -15.214  22.556  1.00  0.00     0.053 C 
HETATM    4  C21 UNL     1      18.655 -16.472  22.486  1.00  0.00     0.030 C 
HETATM    5  C22 UNL     1      19.702 -16.028  23.445  1.00  0.00     0.083 C 
ENDROOT
BRANCH   3   6
HETATM    6  S1  UNL     1      16.603 -15.197  21.242  1.00  0.00    -0.126 SA
BRANCH   6   7
HETATM    7  C11 UNL     1      15.468 -13.959  20.890  1.00  0.00     0.018 C 
HETATM    8  C12 UNL     1      15.526 -12.758  20.354  1.00  0.00     0.128 C 
HETATM    9  N1  UNL     1      14.203 -12.160  20.284  1.00  0.00    -0.304 N 
HETATM   10  C14 UNL     1      13.102 -11.275  20.149  1.00  0.00     0.233 C 
HETATM   11  C18 UNL     1      13.239 -13.209  20.529  1.00  0.00     0.117 C 
HETATM   12  O5  UNL     1      12.910 -10.242  19.484  1.00  0.00    -0.272 OA
HETATM   13  C15 UNL     1      12.375 -12.164  21.133  1.00  0.00     0.130 C 
HETATM   14  C19 UNL     1      13.989 -14.149  21.370  1.00  0.00     0.048 C 
HETATM   15  C20 UNL     1      13.662 -15.577  20.962  1.00  0.00     0.018 C 
BRANCH   8  16
HETATM   16  C13 UNL     1      16.671 -12.013  19.845  1.00  0.00     0.228 C 
HETATM   17  O3  UNL     1      17.724 -11.819  20.453  1.00  0.00    -0.643 OA
HETATM   18  O4  UNL     1      16.608 -11.445  18.539  1.00  0.00    -0.643 OA
ENDBRANCH   8  16
BRANCH  13  19
HETATM   19  C16 UNL     1      12.608 -11.743  22.544  1.00  0.00     0.129 C 
HETATM   20  C17 UNL     1      11.349 -12.104  23.344  1.00  0.00     0.040 C 
BRANCH  19  21
HETATM   21  O6  UNL     1      12.733 -10.361  22.685  1.00  0.00    -0.395 OA
ATOM     22  H6  UNL     1      13.074  -9.938  21.906  1.00  0.00     0.210 HD
ENDBRANCH  19  21
ENDBRANCH  13  19
ENDBRANCH   6   7
ENDBRANCH   3   6
BRANCH   1  23
HETATM   23  C7  UNL     1      20.363 -13.778  24.312  1.00  0.00     0.005 C 
BRANCH  23  24
HETATM   24  C6  UNL     1      19.886 -14.420  25.583  1.00  0.00     0.000 C 
BRANCH  24  25
HETATM   25  C5  UNL     1      20.934 -14.301  26.655  1.00  0.00     0.001 C 
BRANCH  25  26
HETATM   26  C4  UNL     1      22.184 -13.671  26.031  1.00  0.00     0.010 C 
BRANCH  26  27
HETATM   27  C3  UNL     1      23.264 -14.704  25.855  1.00  0.00     0.111 C 
BRANCH  27  28
HETATM   28  C2  UNL     1      24.035 -14.459  24.615  1.00  0.00     0.258 C 
HETATM   29  O2  UNL     1      24.484 -13.301  24.421  1.00  0.00    -0.265 OA
BRANCH  28  30
HETATM   30  O1  UNL     1      24.259 -15.466  23.700  1.00  0.00    -0.326 OA
HETATM   31  C1  UNL     1      25.465 -16.226  23.678  1.00  0.00     0.213 C 
ENDBRANCH  28  30
ENDBRANCH  27  28
ENDBRANCH  26  27
ENDBRANCH  25  26
ENDBRANCH  24  25
ENDBRANCH  23  24
ENDBRANCH   1  23
BRANCH   5  32
HETATM   32  C23 UNL     1      20.902 -16.904  23.440  1.00  0.00     0.222 C 
HETATM   33  O7  UNL     1      21.539 -17.008  22.355  1.00  0.00    -0.273 OA
HETATM   34  N2  UNL     1      21.348 -17.608  24.573  1.00  0.00    -0.357 N 
ATOM     35  H2  UNL     1      20.835 -17.527  25.451  1.00  0.00     0.162 HD
BRANCH  34  36
HETATM   36  C24 UNL     1      22.523 -18.444  24.508  1.00  0.00     0.076 C 
HETATM   37  C25 UNL     1      23.295 -18.436  25.793  1.00  0.00     0.032 C 
HETATM   38  C26 UNL     1      22.155 -19.893  24.207  1.00  0.00     0.032 C 
ENDBRANCH  34  36
ENDBRANCH   5  32
TORSDOF 14
ENDMDL
MODEL 3
REMARK VINA RESULT: -7.852782157      1.785      2.360
REMARK  14 active torsions:
REMARK  status: ('A' for Active; 'I' for Inactive)
REMARK    1  A    between atoms: O1_2  and  C2_3 
REMARK    2  A    between atoms: C2_3  and  C3_5 
REMARK    3  A    between atoms: C3_5  and  C4_6 
REMARK    4  A    between atoms: C4_6  and  C5_7 
REMARK    5  A    between atoms: C5_7  and  C6_8 
REMARK    6  A    between atoms: C6_8  and  C7_9 
REMARK    7  A    between atoms: C7_9  and  C8_10 
REMARK    8  A    between atoms: C10_12  and  S1_13 
REMARK    9  A    between atoms: S1_13  and  C11_14 
REMARK   10  A    between atoms: C12_15  and  C13_16 
REMARK   11  A    between atoms: C15_22  and  C16_23 
REMARK   12  A    between atoms: C16_23  and  O6_25 
REMARK   13  A    between atoms: C22_31  and  C23_32 
REMARK       I    between atoms: C23_32  and  N2_34 
REMARK   14  A    between atoms: N2_34  and  C24_36 
ROOT
HETATM    1  C8  UNL     1      20.209 -14.648  24.333  1.00  0.00    -0.000 C 
HETATM    2  C9  UNL     1      19.557 -14.099  23.094  1.00  0.00     0.021 C 
HETATM    3  C10 UNL     1      18.082 -14.515  23.185  1.00  0.00     0.053 C 
HETATM    4  C21 UNL     1      18.239 -15.895  23.923  1.00  0.00     0.030 C 
HETATM    5  C22 UNL     1      19.178 -15.475  24.998  1.00  0.00     0.083 C 
ENDROOT
BRANCH   3   6
HETATM    6  S1  UNL     1      17.390 -14.722  21.624  1.00  0.00    -0.126 SA
BRANCH   6   7
HETATM    7  C11 UNL     1      16.136 -13.773  20.937  1.00  0.00     0.018 C 
HETATM    8  C12 UNL     1      16.081 -12.683  20.200  1.00  0.00     0.128 C 
HETATM    9  N1  UNL     1      14.703 -12.343  19.886  1.00  0.00    -0.304 N 
HETATM   10  C14 UNL     1      13.507 -11.696  19.478  1.00  0.00     0.233 C 
HETATM   11  C18 UNL     1      13.886 -13.490  20.216  1.00  0.00     0.117 C 
HETATM   12  O5  UNL     1      13.249 -10.834  18.621  1.00  0.00    -0.272 OA
HETATM   13  C15 UNL     1      12.801 -12.527  20.527  1.00  0.00     0.130 C 
HETATM   14  C19 UNL     1      14.654 -14.136  21.287  1.00  0.00     0.048 C 
HETATM   15  C20 UNL     1      14.605 -15.646  21.113  1.00  0.00     0.018 C 
BRANCH   8  16
HETATM   16  C13 UNL     1      17.156 -11.843  19.686  1.00  0.00     0.228 C 
HETATM   17  O3  UNL     1      18.187 -11.553  20.293  1.00  0.00    -0.643 OA
HETATM   18  O4  UNL     1      17.044 -11.293  18.376  1.00  0.00    -0.643 OA
ENDBRANCH   8  16
BRANCH  13  19
HETATM   19  C16 UNL     1      12.778 -11.848  21.854  1.00  0.00     0.129 C 
HETATM   20  C17 UNL     1      11.612 -12.445  22.654  1.00  0.00     0.040 C 
BRANCH  19  21
HETATM   21  O6  UNL     1      12.486 -10.487  21.765  1.00  0.00    -0.395 OA
ATOM     22  H6  UNL     1      11.565 -10.296  21.899  1.00  0.00     0.210 HD
ENDBRANCH  19  21
ENDBRANCH  13  19
ENDBRANCH   6   7
ENDBRANCH   3   6
BRANCH   1  23
HETATM   23  C7  UNL     1      20.735 -13.533  25.225  1.00  0.00     0.005 C 
BRANCH  23  24
HETATM   24  C6  UNL     1      22.173 -13.764  25.596  1.00  0.00     0.000 C 
BRANCH  24  25
HETATM   25  C5  UNL     1      23.021 -13.875  24.359  1.00  0.00     0.001 C 
BRANCH  25  26
HETATM   26  C4  UNL     1      24.460 -14.173  24.794  1.00  0.00     0.010 C 
BRANCH  26  27
HETATM   27  C3  UNL     1      24.682 -15.657  24.903  1.00  0.00     0.111 C 
BRANCH  27  28
HETATM   28  C2  UNL     1      24.435 -16.328  23.606  1.00  0.00     0.258 C 
HETATM   29  O2  UNL     1      23.409 -17.047  23.502  1.00  0.00    -0.265 OA
BRANCH  28  30
HETATM   30  O1  UNL     1      25.299 -16.171  22.543  1.00  0.00    -0.326 OA
HETATM   31  C1  UNL     1      26.605 -16.743  22.529  1.00  0.00     0.213 C 
ENDBRANCH  28  30
ENDBRANCH  27  28
ENDBRANCH  26  27
ENDBRANCH  25  26
ENDBRANCH  24  25
ENDBRANCH  23  24
ENDBRANCH   1  23
BRANCH   5  32
HETATM   32  C23 UNL     1      19.737 -16.621  25.761  1.00  0.00     0.222 C 
HETATM   33  O7  UNL     1      19.026 -17.103  26.686  1.00  0.00    -0.273 OA
HETATM   34  N2  UNL     1      21.000 -17.180  25.498  1.00  0.00    -0.357 N 
ATOM     35  H2  UNL     1      21.578 -16.792  24.752  1.00  0.00     0.162 HD
BRANCH  34  36
HETATM   36  C24 UNL     1      21.490 -18.296  26.272  1.00  0.00     0.076 C 
HETATM   37  C25 UNL     1      21.679 -19.526  25.435  1.00  0.00     0.032 C 
HETATM   38  C26 UNL     1      22.833 -17.974  26.918  1.00  0.00     0.032 C 
ENDBRANCH  34  36
ENDBRANCH   5  32
TORSDOF 14
ENDMDL
MODEL 4
REMARK VINA RESULT: -7.712019934      0.866      1.415
REMARK  14 active torsions:
REMARK  status: ('A' for Active; 'I' for Inactive)
REMARK    1  A    between atoms: O1_2  and  C2_3 
REMARK    2  A    between atoms: C2_3  and  C3_5 
REMARK    3  A    between atoms: C3_5  and  C4_6 
REMARK    4  A    between atoms: C4_6  and  C5_7 
REMARK    5  A    between atoms: C5_7  and  C6_8 
REMARK    6  A    between atoms: C6_8  and  C7_9 
REMARK    7  A    between atoms: C7_9  and  C8_10 
REMARK    8  A    between atoms: C10_12  and  S1_13 
REMARK    9  A    between atoms: S1_13  and  C11_14 
REMARK   10  A    between atoms: C12_15  and  C13_16 
REMARK   11  A    between atoms: C15_22  and  C16_23 
REMARK   12  A    between atoms: C16_23  and  O6_25 
REMARK   13  A    between atoms: C22_31  and  C23_32 
REMARK       I    between atoms: C23_32  and  N2_34 
REMARK   14  A    between atoms: N2_34  and  C24_36 
ROOT
HETATM    1  C8  UNL     1      19.749 -14.629  21.993  1.00  0.00    -0.000 C 
HETATM    2  C9  UNL     1      18.410 -14.059  21.617  1.00  0.00     0.021 C 
HETATM    3  C10 UNL     1      17.379 -15.123  22.024  1.00  0.00     0.053 C 
HETATM    4  C21 UNL     1      18.223 -16.424  21.761  1.00  0.00     0.030 C 
HETATM    5  C22 UNL     1      19.487 -16.017  22.433  1.00  0.00     0.083 C 
ENDROOT
BRANCH   3   6
HETATM    6  S1  UNL     1      15.990 -15.070  21.011  1.00  0.00    -0.126 SA
BRANCH   6   7
HETATM    7  C11 UNL     1      14.918 -13.743  20.828  1.00  0.00     0.018 C 
HETATM    8  C12 UNL     1      14.985 -12.555  20.262  1.00  0.00     0.128 C 
HETATM    9  N1  UNL     1      13.724 -11.846  20.403  1.00  0.00    -0.304 N 
HETATM   10  C14 UNL     1      12.693 -10.871  20.436  1.00  0.00     0.233 C 
HETATM   11  C18 UNL     1      12.731 -12.806  20.832  1.00  0.00     0.117 C 
HETATM   12  O5  UNL     1      12.478  -9.831  19.789  1.00  0.00    -0.272 OA
HETATM   13  C15 UNL     1      12.073 -11.686  21.550  1.00  0.00     0.130 C 
HETATM   14  C19 UNL     1      13.533 -13.800  21.555  1.00  0.00     0.048 C 
HETATM   15  C20 UNL     1      13.023 -15.198  21.242  1.00  0.00     0.018 C 
BRANCH   8  16
HETATM   16  C13 UNL     1      16.084 -11.917  19.549  1.00  0.00     0.228 C 
HETATM   17  O3  UNL     1      16.186 -11.832  18.324  1.00  0.00    -0.643 OA
HETATM   18  O4  UNL     1      17.149 -11.328  20.292  1.00  0.00    -0.643 OA
ENDBRANCH   8  16
BRANCH  13  19
HETATM   19  C16 UNL     1      12.578 -11.273  22.890  1.00  0.00     0.129 C 
HETATM   20  C17 UNL     1      11.380 -11.264  23.848  1.00  0.00     0.040 C 
BRANCH  19  21
HETATM   21  O6  UNL     1      13.060  -9.965  22.911  1.00  0.00    -0.395 OA
ATOM     22  H6  UNL     1      12.369  -9.317  22.989  1.00  0.00     0.210 HD
ENDBRANCH  19  21
ENDBRANCH  13  19
ENDBRANCH   6   7
ENDBRANCH   3   6
BRANCH   1  23
HETATM   23  C7  UNL     1      20.430 -13.790  23.065  1.00  0.00     0.005 C 
BRANCH  23  24
HETATM   24  C6  UNL     1      19.987 -14.201  24.440  1.00  0.00     0.000 C 
BRANCH  24  25
HETATM   25  C5  UNL     1      20.764 -13.449  25.486  1.00  0.00     0.001 C 
BRANCH  25  26
HETATM   26  C4  UNL     1      20.756 -14.279  26.774  1.00  0.00     0.010 C 
BRANCH  26  27
HETATM   27  C3  UNL     1      22.162 -14.570  27.224  1.00  0.00     0.111 C 
BRANCH  27  28
HETATM   28  C2  UNL     1      22.838 -15.497  26.289  1.00  0.00     0.258 C 
HETATM   29  O2  UNL     1      23.866 -15.085  25.694  1.00  0.00    -0.265 OA
BRANCH  28  30
HETATM   30  O1  UNL     1      22.360 -16.772  26.073  1.00  0.00    -0.326 OA
HETATM   31  C1  UNL     1      22.827 -17.898  26.813  1.00  0.00     0.213 C 
ENDBRANCH  28  30
ENDBRANCH  27  28
ENDBRANCH  26  27
ENDBRANCH  25  26
ENDBRANCH  24  25
ENDBRANCH  23  24
ENDBRANCH   1  23
BRANCH   5  32
HETATM   32  C23 UNL     1      20.613 -16.949  22.163  1.00  0.00     0.222 C 
HETATM   33  O7  UNL     1      20.893 -17.185  20.955  1.00  0.00    -0.273 OA
HETATM   34  N2  UNL     1      21.364 -17.566  23.180  1.00  0.00    -0.357 N 
ATOM     35  H2  UNL     1      21.139 -17.378  24.157  1.00  0.00     0.162 HD
BRANCH  34  36
HETATM   36  C24 UNL     1      22.448 -18.462  22.857  1.00  0.00     0.076 C 
HETATM   37  C25 UNL     1      23.789 -17.853  23.141  1.00  0.00     0.032 C 
HETATM   38  C26 UNL     1      22.356 -19.754  23.660  1.00  0.00     0.032 C 
ENDBRANCH  34  36
ENDBRANCH   5  32
TORSDOF 14
ENDMDL
MODEL 5
REMARK VINA RESULT: -7.665383840      2.358      2.923
REMARK  14 active torsions:
REMARK  status: ('A' for Active; 'I' for Inactive)
REMARK    1  A    between atoms: O1_2  and  C2_3 
REMARK    2  A    between atoms: C2_3  and  C3_5 
REMARK    3  A    between atoms: C3_5  and  C4_6 
REMARK    4  A    between atoms: C4_6  and  C5_7 
REMARK    5  A    between atoms: C5_7  and  C6_8 
REMARK    6  A    between atoms: C6_8  and  C7_9 
REMARK    7  A    between atoms: C7_9  and  C8_10 
REMARK    8  A    between atoms: C10_12  and  S1_13 
REMARK    9  A    between atoms: S1_13  and  C11_14 
REMARK   10  A    between atoms: C12_15  and  C13_16 
REMARK   11  A    between atoms: C15_22  and  C16_23 
REMARK   12  A    between atoms: C16_23  and  O6_25 
REMARK   13  A    between atoms: C22_31  and  C23_32 
REMARK       I    between atoms: C23_32  and  N2_34 
REMARK   14  A    between atoms: N2_34  and  C24_36 
ROOT
HETATM    1  C8  UNL     1      19.435 -15.919  24.882  1.00  0.00    -0.000 C 
HETATM    2  C9  UNL     1      19.248 -14.912  23.781  1.00  0.00     0.021 C 
HETATM    3  C10 UNL     1      17.784 -15.052  23.339  1.00  0.00     0.053 C 
HETATM    4  C21 UNL     1      17.581 -16.594  23.574  1.00  0.00     0.030 C 
HETATM    5  C22 UNL     1      18.178 -16.698  24.933  1.00  0.00     0.083 C 
ENDROOT
BRANCH   3   6
HETATM    6  S1  UNL     1      17.589 -14.648  21.678  1.00  0.00    -0.126 SA
BRANCH   6   7
HETATM    7  C11 UNL     1      16.293 -13.752  20.998  1.00  0.00     0.018 C 
HETATM    8  C12 UNL     1      16.191 -12.678  20.242  1.00  0.00     0.128 C 
HETATM    9  N1  UNL     1      14.798 -12.386  19.948  1.00  0.00    -0.304 N 
HETATM   10  C14 UNL     1      13.575 -11.784  19.552  1.00  0.00     0.233 C 
HETATM   11  C18 UNL     1      14.023 -13.551  20.315  1.00  0.00     0.117 C 
HETATM   12  O5  UNL     1      13.275 -10.947  18.684  1.00  0.00    -0.272 OA
HETATM   13  C15 UNL     1      12.914 -12.615  20.630  1.00  0.00     0.130 C 
HETATM   14  C19 UNL     1      14.830 -14.153  21.383  1.00  0.00     0.048 C 
HETATM   15  C20 UNL     1      14.824 -15.667  21.239  1.00  0.00     0.018 C 
BRANCH   8  16
HETATM   16  C13 UNL     1      17.229 -11.816  19.691  1.00  0.00     0.228 C 
HETATM   17  O3  UNL     1      18.275 -11.504  20.262  1.00  0.00    -0.643 OA
HETATM   18  O4  UNL     1      17.060 -11.268  18.386  1.00  0.00    -0.643 OA
ENDBRANCH   8  16
BRANCH  13  19
HETATM   19  C16 UNL     1      12.895 -11.913  21.944  1.00  0.00     0.129 C 
HETATM   20  C17 UNL     1      11.699 -12.456  22.737  1.00  0.00     0.040 C 
BRANCH  19  21
HETATM   21  O6  UNL     1      12.650 -10.545  21.826  1.00  0.00    -0.395 OA
ATOM     22  H6  UNL     1      12.626 -10.098  22.665  1.00  0.00     0.210 HD
ENDBRANCH  19  21
ENDBRANCH  13  19
ENDBRANCH   6   7
ENDBRANCH   3   6
BRANCH   1  23
HETATM   23  C7  UNL     1      19.762 -15.241  26.205  1.00  0.00     0.005 C 
BRANCH  23  24
HETATM   24  C6  UNL     1      20.418 -13.908  25.987  1.00  0.00     0.000 C 
BRANCH  24  25
HETATM   25  C5  UNL     1      21.463 -13.660  27.039  1.00  0.00     0.001 C 
BRANCH  25  26
HETATM   26  C4  UNL     1      22.693 -14.508  26.698  1.00  0.00     0.010 C 
BRANCH  26  27
HETATM   27  C3  UNL     1      23.230 -14.138  25.342  1.00  0.00     0.111 C 
BRANCH  27  28
HETATM   28  C2  UNL     1      23.589 -15.346  24.566  1.00  0.00     0.258 C 
HETATM   29  O2  UNL     1      22.989 -16.418  24.835  1.00  0.00    -0.265 OA
BRANCH  28  30
HETATM   30  O1  UNL     1      24.550 -15.303  23.578  1.00  0.00    -0.326 OA
HETATM   31  C1  UNL     1      25.512 -16.340  23.402  1.00  0.00     0.213 C 
ENDBRANCH  28  30
ENDBRANCH  27  28
ENDBRANCH  26  27
ENDBRANCH  25  26
ENDBRANCH  24  25
ENDBRANCH  23  24
ENDBRANCH   1  23
BRANCH   5  32
HETATM   32  C23 UNL     1      18.369 -18.104  25.376  1.00  0.00     0.222 C 
HETATM   33  O7  UNL     1      18.759 -18.936  24.511  1.00  0.00    -0.273 OA
HETATM   34  N2  UNL     1      18.136 -18.536  26.694  1.00  0.00    -0.357 N 
ATOM     35  H2  UNL     1      17.819 -17.866  27.395  1.00  0.00     0.162 HD
BRANCH  34  36
HETATM   36  C24 UNL     1      18.340 -19.915  27.067  1.00  0.00     0.076 C 
HETATM   37  C25 UNL     1      19.142 -20.049  28.326  1.00  0.00     0.032 C 
HETATM   38  C26 UNL     1      17.012 -20.629  27.295  1.00  0.00     0.032 C 
ENDBRANCH  34  36
ENDBRANCH   5  32
TORSDOF 14
ENDMDL
