MODEL 1
REMARK VINA RESULT: -7.733483721      0.000      0.000
REMARK  12 active torsions:
REMARK  status: ('A' for Active; 'I' for Inactive)
REMARK    1  A    between atoms: N2_5  and  C4_6 
REMARK    2  A    between atoms: C4_6  and  C5_7 
REMARK    3  A    between atoms: C5_7  and  C6_8 
REMARK    4  A    between atoms: C6_8  and  C7_9 
REMARK    5  A    between atoms: C7_9  and  N3_10 
REMARK    6  A    between atoms: C10_13  and  C11_14 
REMARK    7  A    between atoms: C11_14  and  N4_15 
REMARK    8  A    between atoms: N4_15  and  C12_17 
REMARK    9  A    between atoms: C15_20  and  N5_21 
REMARK   10  A    between atoms: C17_23  and  C18_24 
REMARK   11  A    between atoms: C19_27  and  N7_28 
REMARK   12  A    between atoms: N7_28  and  C20_30 
ROOT
HETATM    1  C12 UNL     1      15.149 -11.113  20.157  1.00  0.00     0.078 C 
HETATM    2  C13 UNL     1      14.190 -10.839  21.251  1.00  0.00     0.027 C 
HETATM    3  C14 UNL     1      13.688 -12.167  21.709  1.00  0.00     0.029 C 
HETATM    4  C15 UNL     1      13.459 -12.849  20.350  1.00  0.00     0.109 C 
HETATM    5  C26 UNL     1      14.725 -12.504  19.639  1.00  0.00     0.052 C 
ENDROOT
BRANCH   1   6
HETATM    6  N4  UNL     1      16.514 -11.252  20.541  1.00  0.00    -0.417 N 
ATOM      7  H4  UNL     1      17.066 -10.457  20.863  1.00  0.00     0.153 HD
BRANCH   6   8
HETATM    8  C11 UNL     1      17.063 -12.551  20.452  1.00  0.00     0.120 C 
BRANCH   8   9
HETATM    9  C10 UNL     1      17.892 -13.000  21.625  1.00  0.00     0.033 C 
HETATM   10  C9  UNL     1      17.278 -14.287  22.180  1.00  0.00     0.038 C 
HETATM   11  C8  UNL     1      18.356 -15.328  22.040  1.00  0.00     0.273 C 
HETATM   12  N3  UNL     1      19.581 -14.548  22.168  1.00  0.00     0.088 N 
HETATM   13  C27 UNL     1      19.274 -13.430  21.261  1.00  0.00     0.278 C 
BRANCH  12  14
HETATM   14  C7  UNL     1      19.647 -14.079  23.537  1.00  0.00     0.272 C 
BRANCH  14  15
HETATM   15  C6  UNL     1      19.825 -15.228  24.523  1.00  0.00     0.032 C 
BRANCH  15  16
HETATM   16  C5  UNL     1      20.168 -14.596  25.855  1.00  0.00     0.021 C 
BRANCH  16  17
HETATM   17  C4  UNL     1      21.109 -13.449  25.644  1.00  0.00     0.117 C 
BRANCH  17  18
HETATM   18  N2  UNL     1      22.491 -13.759  25.781  1.00  0.00    -0.409 N 
HETATM   19  C3  UNL     1      23.221 -13.988  24.584  1.00  0.00     0.147 C 
HETATM   20  C2  UNL     1      24.550 -14.652  24.977  1.00  0.00     0.291 C 
HETATM   21  N1  UNL     1      24.228 -16.004  25.362  1.00  0.00     0.087 N 
HETATM   22  C1  UNL     1      23.774 -16.705  24.177  1.00  0.00     0.310 C 
HETATM   23  C29 UNL     1      23.174 -16.055  26.354  1.00  0.00     0.291 C 
HETATM   24  C28 UNL     1      22.780 -14.685  26.844  1.00  0.00     0.147 C 
ENDBRANCH  17  18
ENDBRANCH  16  17
ENDBRANCH  15  16
ENDBRANCH  14  15
ENDBRANCH  12  14
ENDBRANCH   8   9
ENDBRANCH   6   8
ENDBRANCH   1   6
BRANCH   4  25
HETATM   25  N5  UNL     1      13.246 -14.262  20.527  1.00  0.00    -0.296 N 
HETATM   26  C16 UNL     1      12.376 -15.084  19.918  1.00  0.00     0.131 A 
HETATM   27  C17 UNL     1      12.540 -16.367  20.426  1.00  0.00     0.091 A 
HETATM   28  C19 UNL     1      13.541 -16.281  21.363  1.00  0.00     0.133 A 
HETATM   29  N8  UNL     1      13.941 -15.001  21.396  1.00  0.00    -0.283 N 
ATOM     30  H8  UNL     1      14.677 -14.640  22.003  1.00  0.00     0.189 HD
BRANCH  27  31
HETATM   31  C18 UNL     1      11.764 -17.539  20.015  1.00  0.00     0.270 C 
HETATM   32  N6  UNL     1      10.936 -17.473  18.867  1.00  0.00    -0.057 NA
HETATM   33  O1  UNL     1      11.861 -18.602  20.720  1.00  0.00    -0.271 OA
ENDBRANCH  27  31
BRANCH  28  34
HETATM   34  N7  UNL     1      13.974 -17.274  22.053  1.00  0.00    -0.370 N 
ATOM     35  H7  UNL     1      13.307 -17.797  22.621  1.00  0.00     0.161 HD
BRANCH  34  36
HETATM   36  C20 UNL     1      15.360 -17.690  22.066  1.00  0.00     0.083 C 
HETATM   37  C21 UNL     1      15.609 -18.763  23.079  1.00  0.00     0.025 C 
HETATM   38  C22 UNL     1      15.784 -20.133  22.455  1.00  0.00     0.002 C 
HETATM   39  C23 UNL     1      14.921 -20.276  21.221  1.00  0.00     0.000 C 
HETATM   40  C24 UNL     1      15.390 -19.316  20.148  1.00  0.00     0.002 C 
HETATM   41  C25 UNL     1      15.905 -18.025  20.711  1.00  0.00     0.025 C 
ENDBRANCH  34  36
ENDBRANCH  28  34
ENDBRANCH   4  25
TORSDOF 12
ENDMDL
MODEL 2
REMARK VINA RESULT: -7.563750708      0.753      1.196
REMARK  12 active torsions:
REMARK  status: ('A' for Active; 'I' for Inactive)
REMARK    1  A    between atoms: N2_5  and  C4_6 
REMARK    2  A    between atoms: C4_6  and  C5_7 
REMARK    3  A    between atoms: C5_7  and  C6_8 
REMARK    4  A    between atoms: C6_8  and  C7_9 
REMARK    5  A    between atoms: C7_9  and  N3_10 
REMARK    6  A    between atoms: C10_13  and  C11_14 
REMARK    7  A    between atoms: C11_14  and  N4_15 
REMARK    8  A    between atoms: N4_15  and  C12_17 
REMARK    9  A    between atoms: C15_20  and  N5_21 
REMARK   10  A    between atoms: C17_23  and  C18_24 
REMARK   11  A    between atoms: C19_27  and  N7_28 
REMARK   12  A    between atoms: N7_28  and  C20_30 
ROOT
HETATM    1  C12 UNL     1      15.468 -11.295  20.207  1.00  0.00     0.078 C 
HETATM    2  C13 UNL     1      14.421 -10.934  21.190  1.00  0.00     0.027 C 
HETATM    3  C14 UNL     1      13.799 -12.218  21.628  1.00  0.00     0.029 C 
HETATM    4  C15 UNL     1      13.669 -12.927  20.270  1.00  0.00     0.109 C 
HETATM    5  C26 UNL     1      15.019 -12.676  19.684  1.00  0.00     0.052 C 
ENDROOT
BRANCH   1   6
HETATM    6  N4  UNL     1      16.778 -11.497  20.733  1.00  0.00    -0.417 N 
ATOM      7  H4  UNL     1      17.313 -10.735  21.149  1.00  0.00     0.153 HD
BRANCH   6   8
HETATM    8  C11 UNL     1      17.294 -12.809  20.646  1.00  0.00     0.120 C 
BRANCH   8   9
HETATM    9  C10 UNL     1      17.945 -13.346  21.892  1.00  0.00     0.033 C 
HETATM   10  C9  UNL     1      17.419 -14.764  22.132  1.00  0.00     0.038 C 
HETATM   11  C8  UNL     1      18.636 -15.648  22.076  1.00  0.00     0.273 C 
HETATM   12  N3  UNL     1      19.698 -14.771  22.554  1.00  0.00     0.088 N 
HETATM   13  C27 UNL     1      19.416 -13.563  21.762  1.00  0.00     0.278 C 
BRANCH  12  14
HETATM   14  C7  UNL     1      19.445 -14.521  23.958  1.00  0.00     0.272 C 
BRANCH  14  15
HETATM   15  C6  UNL     1      20.585 -13.747  24.611  1.00  0.00     0.032 C 
BRANCH  15  16
HETATM   16  C5  UNL     1      20.604 -14.164  26.065  1.00  0.00     0.021 C 
BRANCH  16  17
HETATM   17  C4  UNL     1      20.387 -15.642  26.171  1.00  0.00     0.117 C 
BRANCH  17  18
HETATM   18  N2  UNL     1      21.570 -16.432  26.220  1.00  0.00    -0.409 N 
HETATM   19  C3  UNL     1      22.731 -15.820  26.763  1.00  0.00     0.147 C 
HETATM   20  C2  UNL     1      23.933 -16.696  26.380  1.00  0.00     0.291 C 
HETATM   21  N1  UNL     1      24.152 -16.489  24.970  1.00  0.00     0.087 N 
HETATM   22  C1  UNL     1      24.590 -15.119  24.787  1.00  0.00     0.310 C 
HETATM   23  C29 UNL     1      22.947 -16.691  24.194  1.00  0.00     0.291 C 
HETATM   24  C28 UNL     1      21.805 -17.208  25.030  1.00  0.00     0.147 C 
ENDBRANCH  17  18
ENDBRANCH  16  17
ENDBRANCH  15  16
ENDBRANCH  14  15
ENDBRANCH  12  14
ENDBRANCH   8   9
ENDBRANCH   6   8
ENDBRANCH   1   6
BRANCH   4  25
HETATM   25  N5  UNL     1      13.358 -14.321  20.460  1.00  0.00    -0.296 N 
HETATM   26  C16 UNL     1      12.457 -15.094  19.833  1.00  0.00     0.131 A 
HETATM   27  C17 UNL     1      12.519 -16.376  20.366  1.00  0.00     0.091 A 
HETATM   28  C19 UNL     1      13.492 -16.341  21.334  1.00  0.00     0.133 A 
HETATM   29  N8  UNL     1      13.974 -15.089  21.362  1.00  0.00    -0.283 N 
ATOM     30  H8  UNL     1      14.711 -14.767  21.988  1.00  0.00     0.189 HD
BRANCH  27  31
HETATM   31  C18 UNL     1      11.681 -17.501  19.945  1.00  0.00     0.270 C 
HETATM   32  N6  UNL     1      10.847 -17.377  18.806  1.00  0.00    -0.057 NA
HETATM   33  O1  UNL     1      11.731 -18.579  20.633  1.00  0.00    -0.271 OA
ENDBRANCH  27  31
BRANCH  28  34
HETATM   34  N7  UNL     1      13.836 -17.349  22.053  1.00  0.00    -0.370 N 
ATOM     35  H7  UNL     1      13.112 -17.836  22.581  1.00  0.00     0.161 HD
BRANCH  34  36
HETATM   36  C20 UNL     1      15.197 -17.828  22.151  1.00  0.00     0.083 C 
HETATM   37  C21 UNL     1      15.332 -18.909  23.176  1.00  0.00     0.025 C 
HETATM   38  C22 UNL     1      15.481 -20.288  22.564  1.00  0.00     0.002 C 
HETATM   39  C23 UNL     1      14.690 -20.393  21.279  1.00  0.00     0.000 C 
HETATM   40  C24 UNL     1      15.269 -19.459  20.237  1.00  0.00     0.002 C 
HETATM   41  C25 UNL     1      15.808 -18.191  20.832  1.00  0.00     0.025 C 
ENDBRANCH  34  36
ENDBRANCH  28  34
ENDBRANCH   4  25
TORSDOF 12
ENDMDL
MODEL 3
REMARK VINA RESULT: -7.552070881      1.544      2.084
REMARK  12 active torsions:
REMARK  status: ('A' for Active; 'I' for Inactive)
REMARK    1  A    between atoms: N2_5  and  C4_6 
REMARK    2  A    between atoms: C4_6  and  C5_7 
REMARK    3  A    between atoms: C5_7  and  C6_8 
REMARK    4  A    between atoms: C6_8  and  C7_9 
REMARK    5  A    between atoms: C7_9  and  N3_10 
REMARK    6  A    between atoms: C10_13  and  C11_14 
REMARK    7  A    between atoms: C11_14  and  N4_15 
REMARK    8  A    between atoms: N4_15  and  C12_17 
REMARK    9  A    between atoms: C15_20  and  N5_21 
REMARK   10  A    between atoms: C17_23  and  C18_24 
REMARK   11  A    between atoms: C19_27  and  N7_28 
REMARK   12  A    between atoms: N7_28  and  C20_30 
ROOT
HETATM    1  C12 UNL     1      14.537 -11.169  20.393  1.00  0.00     0.078 C 
HETATM    2  C13 UNL     1      13.630 -11.299  21.557  1.00  0.00     0.027 C 
HETATM    3  C14 UNL     1      13.283 -12.747  21.656  1.00  0.00     0.029 C 
HETATM    4  C15 UNL     1      13.030 -13.063  20.172  1.00  0.00     0.109 C 
HETATM    5  C26 UNL     1      14.211 -12.409  19.534  1.00  0.00     0.052 C 
ENDROOT
BRANCH   1   6
HETATM    6  N4  UNL     1      15.932 -11.259  20.674  1.00  0.00    -0.417 N 
ATOM      7  H4  UNL     1      16.465 -10.457  21.012  1.00  0.00     0.153 HD
BRANCH   6   8
HETATM    8  C11 UNL     1      16.536 -12.518  20.459  1.00  0.00     0.120 C 
BRANCH   8   9
HETATM    9  C10 UNL     1      17.025 -13.234  21.689  1.00  0.00     0.033 C 
HETATM   10  C9  UNL     1      16.437 -14.647  21.685  1.00  0.00     0.038 C 
HETATM   11  C8  UNL     1      17.629 -15.567  21.648  1.00  0.00     0.273 C 
HETATM   12  N3  UNL     1      18.652 -14.802  22.350  1.00  0.00     0.088 N 
HETATM   13  C27 UNL     1      18.494 -13.493  21.695  1.00  0.00     0.278 C 
BRANCH  12  14
HETATM   14  C7  UNL     1      18.247 -14.719  23.738  1.00  0.00     0.272 C 
BRANCH  14  15
HETATM   15  C6  UNL     1      19.412 -14.983  24.686  1.00  0.00     0.032 C 
BRANCH  15  16
HETATM   16  C5  UNL     1      20.382 -13.837  24.497  1.00  0.00     0.021 C 
BRANCH  16  17
HETATM   17  C4  UNL     1      21.025 -13.497  25.807  1.00  0.00     0.117 C 
BRANCH  17  18
HETATM   18  N2  UNL     1      22.407 -13.818  25.912  1.00  0.00    -0.409 N 
HETATM   19  C3  UNL     1      23.120 -13.998  24.696  1.00  0.00     0.147 C 
HETATM   20  C2  UNL     1      24.450 -14.685  25.042  1.00  0.00     0.291 C 
HETATM   21  N1  UNL     1      24.126 -16.051  25.372  1.00  0.00     0.087 N 
HETATM   22  C1  UNL     1      23.653 -16.697  24.164  1.00  0.00     0.310 C 
HETATM   23  C29 UNL     1      23.086 -16.140  26.375  1.00  0.00     0.291 C 
HETATM   24  C28 UNL     1      22.706 -14.792  26.930  1.00  0.00     0.147 C 
ENDBRANCH  17  18
ENDBRANCH  16  17
ENDBRANCH  15  16
ENDBRANCH  14  15
ENDBRANCH  12  14
ENDBRANCH   8   9
ENDBRANCH   6   8
ENDBRANCH   1   6
BRANCH   4  25
HETATM   25  N5  UNL     1      12.961 -14.487  19.967  1.00  0.00    -0.296 N 
HETATM   26  C16 UNL     1      12.805 -15.477  20.859  1.00  0.00     0.131 A 
HETATM   27  C17 UNL     1      12.804 -16.692  20.184  1.00  0.00     0.091 A 
HETATM   28  C19 UNL     1      12.965 -16.390  18.854  1.00  0.00     0.133 A 
HETATM   29  N8  UNL     1      13.056 -15.055  18.762  1.00  0.00    -0.283 N 
ATOM     30  H8  UNL     1      13.181 -14.542  17.890  1.00  0.00     0.189 HD
BRANCH  27  31
HETATM   31  C18 UNL     1      12.665 -18.006  20.819  1.00  0.00     0.270 C 
HETATM   32  N6  UNL     1      11.728 -18.941  20.313  1.00  0.00    -0.057 NA
HETATM   33  O1  UNL     1      13.407 -18.268  21.828  1.00  0.00    -0.271 OA
ENDBRANCH  27  31
BRANCH  28  34
HETATM   34  N7  UNL     1      13.015 -17.264  17.914  1.00  0.00    -0.370 N 
ATOM     35  H7  UNL     1      12.161 -17.768  17.675  1.00  0.00     0.161 HD
BRANCH  34  36
HETATM   36  C20 UNL     1      14.222 -17.569  17.175  1.00  0.00     0.083 C 
HETATM   37  C21 UNL     1      15.449 -17.352  18.003  1.00  0.00     0.025 C 
HETATM   38  C22 UNL     1      16.078 -18.646  18.478  1.00  0.00     0.002 C 
HETATM   39  C23 UNL     1      15.018 -19.694  18.741  1.00  0.00     0.000 C 
HETATM   40  C24 UNL     1      14.328 -20.068  17.446  1.00  0.00     0.002 C 
HETATM   41  C25 UNL     1      14.198 -18.908  16.503  1.00  0.00     0.025 C 
ENDBRANCH  34  36
ENDBRANCH  28  34
ENDBRANCH   4  25
TORSDOF 12
ENDMDL
MODEL 4
REMARK VINA RESULT: -7.549443546      2.755      7.326
REMARK  12 active torsions:
REMARK  status: ('A' for Active; 'I' for Inactive)
REMARK    1  A    between atoms: N2_5  and  C4_6 
REMARK    2  A    between atoms: C4_6  and  C5_7 
REMARK    3  A    between atoms: C5_7  and  C6_8 
REMARK    4  A    between atoms: C6_8  and  C7_9 
REMARK    5  A    between atoms: C7_9  and  N3_10 
REMARK    6  A    between atoms: C10_13  and  C11_14 
REMARK    7  A    between atoms: C11_14  and  N4_15 
REMARK    8  A    between atoms: N4_15  and  C12_17 
REMARK    9  A    between atoms: C15_20  and  N5_21 
REMARK   10  A    between atoms: C17_23  and  C18_24 
REMARK   11  A    between atoms: C19_27  and  N7_28 
REMARK   12  A    between atoms: N7_28  and  C20_30 
ROOT
HETATM    1  C12 UNL     1      12.644 -12.622  20.972  1.00  0.00     0.078 C 
HETATM    2  C13 UNL     1      13.168 -11.846  19.825  1.00  0.00     0.027 C 
HETATM    3  C14 UNL     1      14.609 -12.211  19.699  1.00  0.00     0.029 C 
HETATM    4  C15 UNL     1      15.024 -12.177  21.179  1.00  0.00     0.109 C 
HETATM    5  C26 UNL     1      13.902 -12.936  21.809  1.00  0.00     0.052 C 
ENDROOT
BRANCH   1   6
HETATM    6  N4  UNL     1      12.070 -13.889  20.661  1.00  0.00    -0.417 N 
ATOM      7  H4  UNL     1      11.239 -13.974  20.075  1.00  0.00     0.153 HD
BRANCH   6   8
HETATM    8  C11 UNL     1      12.714 -15.022  21.208  1.00  0.00     0.120 C 
BRANCH   8   9
HETATM    9  C10 UNL     1      13.032 -16.131  20.242  1.00  0.00     0.033 C 
HETATM   10  C9  UNL     1      11.944 -17.201  20.368  1.00  0.00     0.038 C 
HETATM   11  C8  UNL     1      11.308 -17.275  19.006  1.00  0.00     0.273 C 
HETATM   12  N3  UNL     1      12.405 -16.920  18.114  1.00  0.00     0.088 N 
HETATM   13  C27 UNL     1      12.932 -15.733  18.807  1.00  0.00     0.278 C 
BRANCH  12  14
HETATM   14  C7  UNL     1      13.368 -18.001  18.170  1.00  0.00     0.272 C 
BRANCH  14  15
HETATM   15  C6  UNL     1      14.620 -17.690  17.357  1.00  0.00     0.032 C 
BRANCH  15  16
HETATM   16  C5  UNL     1      15.793 -18.180  18.178  1.00  0.00     0.021 C 
BRANCH  16  17
HETATM   17  C4  UNL     1      15.315 -19.150  19.215  1.00  0.00     0.117 C 
BRANCH  17  18
HETATM   18  N2  UNL     1      16.092 -19.204  20.406  1.00  0.00    -0.409 N 
HETATM   19  C3  UNL     1      16.027 -20.404  21.164  1.00  0.00     0.147 C 
HETATM   20  C2  UNL     1      16.622 -20.105  22.548  1.00  0.00     0.291 C 
HETATM   21  N1  UNL     1      15.651 -19.294  23.240  1.00  0.00     0.087 N 
HETATM   22  C1  UNL     1      14.482 -20.116  23.484  1.00  0.00     0.310 C 
HETATM   23  C29 UNL     1      15.246 -18.143  22.461  1.00  0.00     0.291 C 
HETATM   24  C28 UNL     1      16.044 -17.998  21.191  1.00  0.00     0.147 C 
ENDBRANCH  17  18
ENDBRANCH  16  17
ENDBRANCH  15  16
ENDBRANCH  14  15
ENDBRANCH  12  14
ENDBRANCH   8   9
ENDBRANCH   6   8
ENDBRANCH   1   6
BRANCH   4  25
HETATM   25  N5  UNL     1      16.318 -12.785  21.352  1.00  0.00    -0.296 N 
HETATM   26  C16 UNL     1      17.535 -12.326  21.020  1.00  0.00     0.131 A 
HETATM   27  C17 UNL     1      18.485 -13.273  21.381  1.00  0.00     0.091 A 
HETATM   28  C19 UNL     1      17.791 -14.316  21.943  1.00  0.00     0.133 A 
HETATM   29  N8  UNL     1      16.490 -13.987  21.908  1.00  0.00    -0.283 N 
ATOM     30  H8  UNL     1      15.735 -14.575  22.258  1.00  0.00     0.189 HD
BRANCH  27  31
HETATM   31  C18 UNL     1      19.929 -13.137  21.171  1.00  0.00     0.270 C 
HETATM   32  N6  UNL     1      20.418 -12.347  20.102  1.00  0.00    -0.057 NA
HETATM   33  O1  UNL     1      20.714 -13.747  21.977  1.00  0.00    -0.271 OA
ENDBRANCH  27  31
BRANCH  28  34
HETATM   34  N7  UNL     1      18.335 -15.387  22.399  1.00  0.00    -0.370 N 
ATOM     35  H7  UNL     1      19.035 -15.857  21.825  1.00  0.00     0.161 HD
BRANCH  34  36
HETATM   36  C20 UNL     1      18.005 -15.961  23.686  1.00  0.00     0.083 C 
HETATM   37  C21 UNL     1      18.677 -17.281  23.893  1.00  0.00     0.025 C 
HETATM   38  C22 UNL     1      19.848 -17.203  24.853  1.00  0.00     0.002 C 
HETATM   39  C23 UNL     1      20.554 -15.870  24.732  1.00  0.00     0.000 C 
HETATM   40  C24 UNL     1      19.632 -14.754  25.177  1.00  0.00     0.002 C 
HETATM   41  C25 UNL     1      18.195 -15.019  24.835  1.00  0.00     0.025 C 
ENDBRANCH  34  36
ENDBRANCH  28  34
ENDBRANCH   4  25
TORSDOF 12
ENDMDL
MODEL 5
REMARK VINA RESULT: -7.531226697      2.410      5.569
REMARK  12 active torsions:
REMARK  status: ('A' for Active; 'I' for Inactive)
REMARK    1  A    between atoms: N2_5  and  C4_6 
REMARK    2  A    between atoms: C4_6  and  C5_7 
REMARK    3  A    between atoms: C5_7  and  C6_8 
REMARK    4  A    between atoms: C6_8  and  C7_9 
REMARK    5  A    between atoms: C7_9  and  N3_10 
REMARK    6  A    between atoms: C10_13  and  C11_14 
REMARK    7  A    between atoms: C11_14  and  N4_15 
REMARK    8  A    between atoms: N4_15  and  C12_17 
REMARK    9  A    between atoms: C15_20  and  N5_21 
REMARK   10  A    between atoms: C17_23  and  C18_24 
REMARK   11  A    between atoms: C19_27  and  N7_28 
REMARK   12  A    between atoms: N7_28  and  C20_30 
ROOT
HETATM    1  C12 UNL     1      14.400 -19.272  19.213  1.00  0.00     0.078 C 
HETATM    2  C13 UNL     1      15.292 -19.190  18.034  1.00  0.00     0.027 C 
HETATM    3  C14 UNL     1      15.568 -17.739  17.819  1.00  0.00     0.029 C 
HETATM    4  C15 UNL     1      14.157 -17.166  18.026  1.00  0.00     0.109 C 
HETATM    5  C26 UNL     1      13.734 -17.881  19.267  1.00  0.00     0.052 C 
ENDROOT
BRANCH   1   6
HETATM    6  N4  UNL     1      15.044 -19.433  20.475  1.00  0.00    -0.417 N 
ATOM      7  H4  UNL     1      15.709 -20.187  20.647  1.00  0.00     0.153 HD
BRANCH   6   8
HETATM    8  C11 UNL     1      14.712 -18.490  21.474  1.00  0.00     0.120 C 
BRANCH   8   9
HETATM    9  C10 UNL     1      15.855 -17.683  22.026  1.00  0.00     0.033 C 
HETATM   10  C9  UNL     1      16.252 -18.278  23.379  1.00  0.00     0.038 C 
HETATM   11  C8  UNL     1      17.684 -18.710  23.213  1.00  0.00     0.273 C 
HETATM   12  N3  UNL     1      18.199 -17.760  22.234  1.00  0.00     0.088 N 
HETATM   13  C27 UNL     1      17.116 -17.799  21.237  1.00  0.00     0.278 C 
BRANCH  12  14
HETATM   14  C7  UNL     1      18.240 -16.464  22.879  1.00  0.00     0.272 C 
BRANCH  14  15
HETATM   15  C6  UNL     1      19.178 -15.501  22.159  1.00  0.00     0.032 C 
BRANCH  15  16
HETATM   16  C5  UNL     1      19.606 -14.476  23.186  1.00  0.00     0.021 C 
BRANCH  16  17
HETATM   17  C4  UNL     1      19.086 -14.864  24.536  1.00  0.00     0.117 C 
BRANCH  17  18
HETATM   18  N2  UNL     1      19.978 -14.645  25.622  1.00  0.00    -0.409 N 
HETATM   19  C3  UNL     1      20.776 -13.470  25.573  1.00  0.00     0.147 C 
HETATM   20  C2  UNL     1      21.892 -13.629  26.617  1.00  0.00     0.291 C 
HETATM   21  N1  UNL     1      22.811 -14.603  26.082  1.00  0.00     0.087 N 
HETATM   22  C1  UNL     1      23.444 -14.020  24.916  1.00  0.00     0.310 C 
HETATM   23  C29 UNL     1      22.142 -15.821  25.677  1.00  0.00     0.291 C 
HETATM   24  C28 UNL     1      20.682 -15.826  26.049  1.00  0.00     0.147 C 
ENDBRANCH  17  18
ENDBRANCH  16  17
ENDBRANCH  15  16
ENDBRANCH  14  15
ENDBRANCH  12  14
ENDBRANCH   8   9
ENDBRANCH   6   8
ENDBRANCH   1   6
BRANCH   4  25
HETATM   25  N5  UNL     1      14.212 -15.733  18.159  1.00  0.00    -0.296 N 
HETATM   26  C16 UNL     1      14.853 -14.823  17.409  1.00  0.00     0.131 A 
HETATM   27  C17 UNL     1      14.613 -13.559  17.934  1.00  0.00     0.091 A 
HETATM   28  C19 UNL     1      13.803 -13.747  19.027  1.00  0.00     0.133 A 
HETATM   29  N8  UNL     1      13.583 -15.067  19.131  1.00  0.00    -0.283 N 
ATOM     30  H8  UNL     1      13.013 -15.502  19.855  1.00  0.00     0.189 HD
BRANCH  27  31
HETATM   31  C18 UNL     1      15.152 -12.309  17.392  1.00  0.00     0.270 C 
HETATM   32  N6  UNL     1      14.515 -11.680  16.294  1.00  0.00    -0.057 NA
HETATM   33  O1  UNL     1      16.199 -11.818  17.940  1.00  0.00    -0.271 OA
ENDBRANCH  27  31
BRANCH  28  34
HETATM   34  N7  UNL     1      13.368 -12.800  19.778  1.00  0.00    -0.370 N 
ATOM     35  H7  UNL     1      12.712 -12.128  19.379  1.00  0.00     0.161 HD
BRANCH  34  36
HETATM   36  C20 UNL     1      13.760 -12.638  21.161  1.00  0.00     0.083 C 
HETATM   37  C21 UNL     1      14.163 -11.228  21.462  1.00  0.00     0.025 C 
HETATM   38  C22 UNL     1      13.115 -10.470  22.251  1.00  0.00     0.002 C 
HETATM   39  C23 UNL     1      11.723 -10.920  21.866  1.00  0.00     0.000 C 
HETATM   40  C24 UNL     1      11.517 -12.366  22.266  1.00  0.00     0.002 C 
HETATM   41  C25 UNL     1      12.768 -13.185  22.141  1.00  0.00     0.025 C 
ENDBRANCH  34  36
ENDBRANCH  28  34
ENDBRANCH   4  25
TORSDOF 12
ENDMDL
