MODEL 1
REMARK VINA RESULT: -7.354139002      0.000      0.000
REMARK  10 active torsions:
REMARK  status: ('A' for Active; 'I' for Inactive)
REMARK    1  A    between atoms: C2_2  and  C3_3 
REMARK    2  A    between atoms: C2_2  and  C14_20 
REMARK    3  A    between atoms: C3_3  and  N1_4 
REMARK       I    between atoms: N1_4  and  C4_6 
REMARK    4  A    between atoms: C4_6  and  C5_8 
REMARK       I    between atoms: N2_12  and  C9_13 
REMARK    5  A    between atoms: C9_13  and  O3_15 
REMARK    6  A    between atoms: O3_15  and  C10_16 
REMARK    7  A    between atoms: C14_20  and  O4_21 
REMARK    8  A    between atoms: C14_20  and  C15_23 
REMARK    9  A    between atoms: C15_23  and  C17_25 
REMARK   10  A    between atoms: C15_23  and  C18_28 
ROOT
HETATM    1  N1  UNL     1      17.027 -15.073  22.136  1.00  0.00    -0.359 N 
ATOM      2  H1  UNL     1      16.894 -14.099  22.407  1.00  0.00     0.162 HD
HETATM    3  C4  UNL     1      16.279 -15.591  21.062  1.00  0.00     0.240 C 
HETATM    4  O1  UNL     1      16.455 -16.781  20.749  1.00  0.00    -0.271 OA
ENDROOT
BRANCH   1   5
HETATM    5  C3  UNL     1      18.000 -15.901  22.883  1.00  0.00     0.129 C 
BRANCH   5   6
HETATM    6  C2  UNL     1      19.254 -15.130  23.116  1.00  0.00     0.029 C 
HETATM    7  C1  UNL     1      19.709 -14.500  21.754  1.00  0.00     0.014 C 
BRANCH   6   8
HETATM    8  C14 UNL     1      20.418 -15.803  23.715  1.00  0.00     0.142 C 
BRANCH   8   9
HETATM    9  O4  UNL     1      21.238 -16.370  22.696  1.00  0.00    -0.394 OA
ATOM     10  H4  UNL     1      21.616 -15.683  22.160  1.00  0.00     0.210 HD
ENDBRANCH   8   9
BRANCH   8  11
HETATM   11  C15 UNL     1      21.256 -15.143  24.752  1.00  0.00     0.077 C 
HETATM   12  C16 UNL     1      20.764 -13.735  25.001  1.00  0.00     0.030 C 
BRANCH  11  13
HETATM   13  C17 UNL     1      22.681 -14.991  24.289  1.00  0.00     0.184 C 
HETATM   14  O5  UNL     1      23.196 -13.849  24.068  1.00  0.00    -0.647 OA
HETATM   15  O6  UNL     1      23.535 -16.049  24.066  1.00  0.00    -0.647 OA
ENDBRANCH  11  13
BRANCH  11  16
HETATM   16  C18 UNL     1      21.199 -15.871  26.085  1.00  0.00    -0.032 C 
HETATM   17  C19 UNL     1      22.215 -15.247  27.020  1.00  0.00     0.016 C 
HETATM   18  C20 UNL     1      19.834 -15.571  26.697  1.00  0.00     0.016 C 
HETATM   19  C21 UNL     1      21.420 -17.328  26.055  1.00  0.00     0.016 C 
ENDBRANCH  11  16
ENDBRANCH   8  11
ENDBRANCH   6   8
ENDBRANCH   5   6
ENDBRANCH   1   5
BRANCH   3  20
HETATM   20  C5  UNL     1      15.298 -14.779  20.299  1.00  0.00     0.181 C 
HETATM   21  C6  UNL     1      14.372 -15.645  19.471  1.00  0.00     0.037 C 
HETATM   22  C7  UNL     1      13.218 -15.926  20.382  1.00  0.00     0.022 C 
HETATM   23  C8  UNL     1      13.386 -15.052  21.590  1.00  0.00     0.129 C 
HETATM   24  N2  UNL     1      14.394 -14.108  21.191  1.00  0.00    -0.315 N 
HETATM   25  C9  UNL     1      14.481 -12.761  21.600  1.00  0.00     0.364 C 
HETATM   26  O2  UNL     1      15.421 -12.018  21.179  1.00  0.00    -0.238 OA
BRANCH  25  27
HETATM   27  O3  UNL     1      13.581 -12.161  22.464  1.00  0.00    -0.294 OA
BRANCH  27  28
HETATM   28  C10 UNL     1      12.421 -11.474  22.041  1.00  0.00     0.061 C 
HETATM   29  C11 UNL     1      12.579 -10.759  20.740  1.00  0.00     0.046 C 
HETATM   30  C12 UNL     1      11.251 -12.441  21.985  1.00  0.00     0.046 C 
HETATM   31  C13 UNL     1      12.072 -10.439  23.109  1.00  0.00     0.046 C 
ENDBRANCH  27  28
ENDBRANCH  25  27
ENDBRANCH   3  20
TORSDOF 10
ENDMDL
MODEL 2
REMARK VINA RESULT: -7.246887044      0.937      1.049
REMARK  10 active torsions:
REMARK  status: ('A' for Active; 'I' for Inactive)
REMARK    1  A    between atoms: C2_2  and  C3_3 
REMARK    2  A    between atoms: C2_2  and  C14_20 
REMARK    3  A    between atoms: C3_3  and  N1_4 
REMARK       I    between atoms: N1_4  and  C4_6 
REMARK    4  A    between atoms: C4_6  and  C5_8 
REMARK       I    between atoms: N2_12  and  C9_13 
REMARK    5  A    between atoms: C9_13  and  O3_15 
REMARK    6  A    between atoms: O3_15  and  C10_16 
REMARK    7  A    between atoms: C14_20  and  O4_21 
REMARK    8  A    between atoms: C14_20  and  C15_23 
REMARK    9  A    between atoms: C15_23  and  C17_25 
REMARK   10  A    between atoms: C15_23  and  C18_28 
ROOT
HETATM    1  N1  UNL     1      17.182 -15.750  22.336  1.00  0.00    -0.359 N 
ATOM      2  H1  UNL     1      17.048 -14.777  22.612  1.00  0.00     0.162 HD
HETATM    3  C4  UNL     1      16.570 -16.215  21.157  1.00  0.00     0.240 C 
HETATM    4  O1  UNL     1      16.744 -17.404  20.841  1.00  0.00    -0.271 OA
ENDROOT
BRANCH   1   5
HETATM    5  C3  UNL     1      18.013 -16.631  23.187  1.00  0.00     0.129 C 
BRANCH   5   6
HETATM    6  C2  UNL     1      19.441 -16.210  23.115  1.00  0.00     0.029 C 
HETATM    7  C1  UNL     1      20.156 -17.069  22.016  1.00  0.00     0.014 C 
BRANCH   6   8
HETATM    8  C14 UNL     1      20.269 -16.249  24.332  1.00  0.00     0.142 C 
BRANCH   8   9
HETATM    9  O4  UNL     1      21.067 -17.430  24.346  1.00  0.00    -0.394 OA
ATOM     10  H4  UNL     1      20.556 -18.168  24.653  1.00  0.00     0.210 HD
ENDBRANCH   8   9
BRANCH   8  11
HETATM   11  C15 UNL     1      21.069 -15.074  24.772  1.00  0.00     0.077 C 
HETATM   12  C16 UNL     1      20.455 -13.798  24.242  1.00  0.00     0.030 C 
BRANCH  11  13
HETATM   13  C17 UNL     1      22.461 -15.114  24.200  1.00  0.00     0.184 C 
HETATM   14  O5  UNL     1      23.129 -14.052  23.987  1.00  0.00    -0.647 OA
HETATM   15  O6  UNL     1      23.122 -16.274  23.863  1.00  0.00    -0.647 OA
ENDBRANCH  11  13
BRANCH  11  16
HETATM   16  C18 UNL     1      21.113 -14.946  26.286  1.00  0.00    -0.032 C 
HETATM   17  C19 UNL     1      21.072 -13.475  26.648  1.00  0.00     0.016 C 
HETATM   18  C20 UNL     1      19.814 -15.541  26.820  1.00  0.00     0.016 C 
HETATM   19  C21 UNL     1      22.262 -15.566  26.971  1.00  0.00     0.016 C 
ENDBRANCH  11  16
ENDBRANCH   8  11
ENDBRANCH   6   8
ENDBRANCH   5   6
ENDBRANCH   1   5
BRANCH   3  20
HETATM   20  C5  UNL     1      15.732 -15.350  20.289  1.00  0.00     0.181 C 
HETATM   21  C6  UNL     1      14.872 -16.162  19.345  1.00  0.00     0.037 C 
HETATM   22  C7  UNL     1      13.602 -16.388  20.105  1.00  0.00     0.022 C 
HETATM   23  C8  UNL     1      13.664 -15.529  21.334  1.00  0.00     0.129 C 
HETATM   24  N2  UNL     1      14.760 -14.637  21.072  1.00  0.00    -0.315 N 
HETATM   25  C9  UNL     1      14.866 -13.299  21.504  1.00  0.00     0.364 C 
HETATM   26  O2  UNL     1      15.886 -12.603  21.209  1.00  0.00    -0.238 OA
BRANCH  25  27
HETATM   27  O3  UNL     1      13.898 -12.657  22.258  1.00  0.00    -0.294 OA
BRANCH  27  28
HETATM   28  C10 UNL     1      12.860 -11.873  21.707  1.00  0.00     0.061 C 
HETATM   29  C11 UNL     1      13.093 -11.469  20.288  1.00  0.00     0.046 C 
HETATM   30  C12 UNL     1      11.539 -12.607  21.847  1.00  0.00     0.046 C 
HETATM   31  C13 UNL     1      12.736 -10.601  22.545  1.00  0.00     0.046 C 
ENDBRANCH  27  28
ENDBRANCH  25  27
ENDBRANCH   3  20
TORSDOF 10
ENDMDL
MODEL 3
REMARK VINA RESULT: -7.136735127      2.166      3.029
REMARK  10 active torsions:
REMARK  status: ('A' for Active; 'I' for Inactive)
REMARK    1  A    between atoms: C2_2  and  C3_3 
REMARK    2  A    between atoms: C2_2  and  C14_20 
REMARK    3  A    between atoms: C3_3  and  N1_4 
REMARK       I    between atoms: N1_4  and  C4_6 
REMARK    4  A    between atoms: C4_6  and  C5_8 
REMARK       I    between atoms: N2_12  and  C9_13 
REMARK    5  A    between atoms: C9_13  and  O3_15 
REMARK    6  A    between atoms: O3_15  and  C10_16 
REMARK    7  A    between atoms: C14_20  and  O4_21 
REMARK    8  A    between atoms: C14_20  and  C15_23 
REMARK    9  A    between atoms: C15_23  and  C17_25 
REMARK   10  A    between atoms: C15_23  and  C18_28 
ROOT
HETATM    1  N1  UNL     1      17.519 -12.964  21.352  1.00  0.00    -0.359 N 
ATOM      2  H1  UNL     1      16.712 -13.277  21.890  1.00  0.00     0.162 HD
HETATM    3  C4  UNL     1      17.309 -12.216  20.178  1.00  0.00     0.240 C 
HETATM    4  O1  UNL     1      18.307 -11.846  19.537  1.00  0.00    -0.271 OA
ENDROOT
BRANCH   1   5
HETATM    5  C3  UNL     1      18.877 -13.309  21.827  1.00  0.00     0.129 C 
BRANCH   5   6
HETATM    6  C2  UNL     1      18.869 -14.659  22.458  1.00  0.00     0.029 C 
HETATM    7  C1  UNL     1      17.560 -15.403  22.022  1.00  0.00     0.014 C 
BRANCH   6   8
HETATM    8  C14 UNL     1      18.991 -14.777  23.920  1.00  0.00     0.142 C 
BRANCH   8   9
HETATM    9  O4  UNL     1      17.715 -15.026  24.503  1.00  0.00    -0.394 OA
ATOM     10  H4  UNL     1      17.761 -15.770  25.091  1.00  0.00     0.210 HD
ENDBRANCH   8   9
BRANCH   8  11
HETATM   11  C15 UNL     1      20.030 -15.635  24.553  1.00  0.00     0.077 C 
HETATM   12  C16 UNL     1      20.734 -16.462  23.501  1.00  0.00     0.030 C 
BRANCH  11  13
HETATM   13  C17 UNL     1      19.413 -16.633  25.497  1.00  0.00     0.184 C 
HETATM   14  O5  UNL     1      19.328 -17.868  25.204  1.00  0.00    -0.647 OA
HETATM   15  O6  UNL     1      18.897 -16.308  26.732  1.00  0.00    -0.647 OA
ENDBRANCH  11  13
BRANCH  11  16
HETATM   16  C18 UNL     1      21.098 -14.816  25.259  1.00  0.00    -0.032 C 
HETATM   17  C19 UNL     1      21.908 -15.741  26.145  1.00  0.00     0.016 C 
HETATM   18  C20 UNL     1      22.062 -14.323  24.184  1.00  0.00     0.016 C 
HETATM   19  C21 UNL     1      20.633 -13.676  26.070  1.00  0.00     0.016 C 
ENDBRANCH  11  16
ENDBRANCH   8  11
ENDBRANCH   6   8
ENDBRANCH   5   6
ENDBRANCH   1   5
BRANCH   3  20
HETATM   20  C5  UNL     1      15.956 -11.858  19.683  1.00  0.00     0.181 C 
HETATM   21  C6  UNL     1      15.605 -12.603  18.413  1.00  0.00     0.037 C 
HETATM   22  C7  UNL     1      14.944 -13.858  18.892  1.00  0.00     0.022 C 
HETATM   23  C8  UNL     1      14.722 -13.704  20.368  1.00  0.00     0.129 C 
HETATM   24  N2  UNL     1      14.946 -12.304  20.603  1.00  0.00    -0.315 N 
HETATM   25  C9  UNL     1      14.291 -11.506  21.564  1.00  0.00     0.364 C 
HETATM   26  O2  UNL     1      14.573 -10.273  21.680  1.00  0.00    -0.238 OA
BRANCH  25  27
HETATM   27  O3  UNL     1      13.322 -11.985  22.429  1.00  0.00    -0.294 OA
BRANCH  27  28
HETATM   28  C10 UNL     1      12.048 -11.396  22.591  1.00  0.00     0.061 C 
HETATM   29  C11 UNL     1      11.916 -10.569  23.827  1.00  0.00     0.046 C 
HETATM   30  C12 UNL     1      11.706 -10.579  21.357  1.00  0.00     0.046 C 
HETATM   31  C13 UNL     1      11.016 -12.520  22.662  1.00  0.00     0.046 C 
ENDBRANCH  27  28
ENDBRANCH  25  27
ENDBRANCH   3  20
TORSDOF 10
ENDMDL
MODEL 4
REMARK VINA RESULT: -7.046253912      2.108      8.804
REMARK  10 active torsions:
REMARK  status: ('A' for Active; 'I' for Inactive)
REMARK    1  A    between atoms: C2_2  and  C3_3 
REMARK    2  A    between atoms: C2_2  and  C14_20 
REMARK    3  A    between atoms: C3_3  and  N1_4 
REMARK       I    between atoms: N1_4  and  C4_6 
REMARK    4  A    between atoms: C4_6  and  C5_8 
REMARK       I    between atoms: N2_12  and  C9_13 
REMARK    5  A    between atoms: C9_13  and  O3_15 
REMARK    6  A    between atoms: O3_15  and  C10_16 
REMARK    7  A    between atoms: C14_20  and  O4_21 
REMARK    8  A    between atoms: C14_20  and  C15_23 
REMARK    9  A    between atoms: C15_23  and  C17_25 
REMARK   10  A    between atoms: C15_23  and  C18_28 
ROOT
HETATM    1  N1  UNL     1      17.805 -15.723  22.920  1.00  0.00    -0.359 N 
ATOM      2  H1  UNL     1      18.398 -14.905  22.780  1.00  0.00     0.162 HD
HETATM    3  C4  UNL     1      17.878 -16.417  24.142  1.00  0.00     0.240 C 
HETATM    4  O1  UNL     1      17.149 -17.413  24.291  1.00  0.00    -0.271 OA
ENDROOT
BRANCH   1   5
HETATM    5  C3  UNL     1      16.896 -16.147  21.832  1.00  0.00     0.129 C 
BRANCH   5   6
HETATM    6  C2  UNL     1      16.333 -14.951  21.143  1.00  0.00     0.029 C 
HETATM    7  C1  UNL     1      17.135 -13.687  21.608  1.00  0.00     0.014 C 
BRANCH   6   8
HETATM    8  C14 UNL     1      14.898 -14.650  21.271  1.00  0.00     0.142 C 
BRANCH   8   9
HETATM    9  O4  UNL     1      14.709 -13.483  22.068  1.00  0.00    -0.394 OA
ATOM     10  H4  UNL     1      13.949 -13.000  21.768  1.00  0.00     0.210 HD
ENDBRANCH   8   9
BRANCH   8  11
HETATM   11  C15 UNL     1      13.994 -14.626  20.088  1.00  0.00     0.077 C 
HETATM   12  C16 UNL     1      14.792 -14.379  18.828  1.00  0.00     0.030 C 
BRANCH  11  13
HETATM   13  C17 UNL     1      13.017 -13.483  20.171  1.00  0.00     0.184 C 
HETATM   14  O5  UNL     1      13.103 -12.471  19.405  1.00  0.00    -0.647 OA
HETATM   15  O6  UNL     1      11.966 -13.431  21.060  1.00  0.00    -0.647 OA
ENDBRANCH  11  13
BRANCH  11  16
HETATM   16  C18 UNL     1      13.265 -15.945  19.897  1.00  0.00    -0.032 C 
HETATM   17  C19 UNL     1      14.165 -16.886  19.123  1.00  0.00     0.016 C 
HETATM   18  C20 UNL     1      13.105 -16.568  21.280  1.00  0.00     0.016 C 
HETATM   19  C21 UNL     1      11.955 -15.887  19.224  1.00  0.00     0.016 C 
ENDBRANCH  11  16
ENDBRANCH   8  11
ENDBRANCH   6   8
ENDBRANCH   5   6
ENDBRANCH   1   5
BRANCH   3  20
HETATM   20  C5  UNL     1      18.783 -16.010  25.246  1.00  0.00     0.181 C 
HETATM   21  C6  UNL     1      18.774 -17.012  26.381  1.00  0.00     0.037 C 
HETATM   22  C7  UNL     1      19.865 -17.976  26.031  1.00  0.00     0.022 C 
HETATM   23  C8  UNL     1      20.610 -17.394  24.865  1.00  0.00     0.129 C 
HETATM   24  N2  UNL     1      20.153 -16.033  24.813  1.00  0.00    -0.315 N 
HETATM   25  C9  UNL     1      20.912 -14.915  24.408  1.00  0.00     0.364 C 
HETATM   26  O2  UNL     1      20.399 -13.753  24.404  1.00  0.00    -0.238 OA
BRANCH  25  27
HETATM   27  O3  UNL     1      22.232 -14.991  23.998  1.00  0.00    -0.294 OA
BRANCH  27  28
HETATM   28  C10 UNL     1      23.335 -14.957  24.881  1.00  0.00     0.061 C 
HETATM   29  C11 UNL     1      22.965 -14.700  26.304  1.00  0.00     0.046 C 
HETATM   30  C12 UNL     1      24.127 -16.246  24.754  1.00  0.00     0.046 C 
HETATM   31  C13 UNL     1      24.266 -13.834  24.426  1.00  0.00     0.046 C 
ENDBRANCH  27  28
ENDBRANCH  25  27
ENDBRANCH   3  20
TORSDOF 10
ENDMDL
MODEL 5
REMARK VINA RESULT: -6.949246706      1.820      3.044
REMARK  10 active torsions:
REMARK  status: ('A' for Active; 'I' for Inactive)
REMARK    1  A    between atoms: C2_2  and  C3_3 
REMARK    2  A    between atoms: C2_2  and  C14_20 
REMARK    3  A    between atoms: C3_3  and  N1_4 
REMARK       I    between atoms: N1_4  and  C4_6 
REMARK    4  A    between atoms: C4_6  and  C5_8 
REMARK       I    between atoms: N2_12  and  C9_13 
REMARK    5  A    between atoms: C9_13  and  O3_15 
REMARK    6  A    between atoms: O3_15  and  C10_16 
REMARK    7  A    between atoms: C14_20  and  O4_21 
REMARK    8  A    between atoms: C14_20  and  C15_23 
REMARK    9  A    between atoms: C15_23  and  C17_25 
REMARK   10  A    between atoms: C15_23  and  C18_28 
ROOT
HETATM    1  N1  UNL     1      17.016 -14.283  22.622  1.00  0.00    -0.359 N 
ATOM      2  H1  UNL     1      16.978 -13.396  23.123  1.00  0.00     0.162 HD
HETATM    3  C4  UNL     1      16.105 -14.515  21.575  1.00  0.00     0.240 C 
HETATM    4  O1  UNL     1      16.167 -15.603  20.979  1.00  0.00    -0.271 OA
ENDROOT
BRANCH   1   5
HETATM    5  C3  UNL     1      18.026 -15.290  23.018  1.00  0.00     0.129 C 
BRANCH   5   6
HETATM    6  C2  UNL     1      19.340 -14.629  23.256  1.00  0.00     0.029 C 
HETATM    7  C1  UNL     1      19.837 -14.013  21.902  1.00  0.00     0.014 C 
BRANCH   6   8
HETATM    8  C14 UNL     1      20.448 -15.406  23.834  1.00  0.00     0.142 C 
BRANCH   8   9
HETATM    9  O4  UNL     1      21.241 -15.979  22.797  1.00  0.00    -0.394 OA
ATOM     10  H4  UNL     1      22.161 -15.942  23.028  1.00  0.00     0.210 HD
ENDBRANCH   8   9
BRANCH   8  11
HETATM   11  C15 UNL     1      21.316 -14.852  24.908  1.00  0.00     0.077 C 
HETATM   12  C16 UNL     1      20.868 -13.455  25.271  1.00  0.00     0.030 C 
BRANCH  11  13
HETATM   13  C17 UNL     1      22.740 -14.705  24.439  1.00  0.00     0.184 C 
HETATM   14  O5  UNL     1      23.292 -13.564  24.321  1.00  0.00    -0.647 OA
HETATM   15  O6  UNL     1      23.554 -15.764  24.104  1.00  0.00    -0.647 OA
ENDBRANCH  11  13
BRANCH  11  16
HETATM   16  C18 UNL     1      21.252 -15.680  26.181  1.00  0.00    -0.032 C 
HETATM   17  C19 UNL     1      22.286 -15.151  27.154  1.00  0.00     0.016 C 
HETATM   18  C20 UNL     1      19.897 -15.402  26.824  1.00  0.00     0.016 C 
HETATM   19  C21 UNL     1      21.444 -17.135  26.036  1.00  0.00     0.016 C 
ENDBRANCH  11  16
ENDBRANCH   8  11
ENDBRANCH   6   8
ENDBRANCH   5   6
ENDBRANCH   1   5
BRANCH   3  20
HETATM   20  C5  UNL     1      15.084 -13.519  21.161  1.00  0.00     0.181 C 
HETATM   21  C6  UNL     1      15.705 -12.335  20.453  1.00  0.00     0.037 C 
HETATM   22  C7  UNL     1      15.704 -12.726  19.008  1.00  0.00     0.022 C 
HETATM   23  C8  UNL     1      14.894 -13.984  18.892  1.00  0.00     0.129 C 
HETATM   24  N2  UNL     1      14.217 -14.071  20.157  1.00  0.00    -0.315 N 
HETATM   25  C9  UNL     1      12.929 -14.603  20.377  1.00  0.00     0.364 C 
HETATM   26  O2  UNL     1      12.430 -14.626  21.544  1.00  0.00    -0.238 OA
BRANCH  25  27
HETATM   27  O3  UNL     1      12.131 -15.123  19.372  1.00  0.00    -0.294 OA
BRANCH  27  28
HETATM   28  C10 UNL     1      12.035 -16.501  19.076  1.00  0.00     0.061 C 
HETATM   29  C11 UNL     1      10.720 -16.906  18.495  1.00  0.00     0.046 C 
HETATM   30  C12 UNL     1      13.176 -16.905  18.159  1.00  0.00     0.046 C 
HETATM   31  C13 UNL     1      12.235 -17.277  20.377  1.00  0.00     0.046 C 
ENDBRANCH  27  28
ENDBRANCH  25  27
ENDBRANCH   3  20
TORSDOF 10
ENDMDL
