MODEL 1
REMARK VINA RESULT: -7.301510106      0.000      0.000
REMARK  9 active torsions:
REMARK  status: ('A' for Active; 'I' for Inactive)
REMARK    1  A    between atoms: C2_2  and  C4_4 
REMARK    2  A    between atoms: C4_4  and  O1_5 
REMARK    3  A    between atoms: O1_5  and  C5_6 
REMARK       I    between atoms: C5_6  and  N1_8 
REMARK    4  A    between atoms: N1_8  and  C6_10 
REMARK    5  A    between atoms: C6_10  and  C7_11 
REMARK    6  A    between atoms: C6_10  and  C18_29 
REMARK       I    between atoms: C7_11  and  N2_13 
REMARK    7  A    between atoms: C9_15  and  C10_16 
REMARK    8  A    between atoms: C11_19  and  C12_20 
REMARK       I    between atoms: C12_20  and  N3_22 
REMARK    9  A    between atoms: N3_22  and  C13_24 
ROOT
HETATM    1  C7  UNL     1      21.022 -14.930  23.736  1.00  0.00     0.244 C 
HETATM    2  O3  UNL     1      21.309 -13.964  23.002  1.00  0.00    -0.271 OA
HETATM    3  N2  UNL     1      19.818 -15.651  23.293  1.00  0.00    -0.335 N 
HETATM    4  C8  UNL     1      19.022 -16.748  23.770  1.00  0.00     0.145 C 
HETATM    5  C9  UNL     1      18.743 -17.091  22.343  1.00  0.00     0.137 C 
HETATM    6  C11 UNL     1      18.955 -15.611  22.138  1.00  0.00     0.195 C 
ENDROOT
BRANCH   1   7
HETATM    7  C6  UNL     1      21.750 -15.398  24.939  1.00  0.00     0.186 C 
BRANCH   7   8
HETATM    8  N1  UNL     1      23.158 -15.553  24.818  1.00  0.00    -0.323 N 
HETATM    9  C5  UNL     1      24.215 -14.688  24.569  1.00  0.00     0.361 C 
HETATM   10  O2  UNL     1      24.197 -13.443  24.383  1.00  0.00    -0.238 OA
ATOM     11  H1  UNL     1      23.460 -16.519  24.942  1.00  0.00     0.165 HD
BRANCH   9  12
HETATM   12  O1  UNL     1      25.534 -15.215  24.504  1.00  0.00    -0.304 OA
BRANCH  12  13
HETATM   13  C4  UNL     1      25.735 -16.633  24.349  1.00  0.00     0.184 C 
BRANCH  13  14
HETATM   14  C2  UNL     1      26.054 -16.945  22.904  1.00  0.00     0.002 C 
HETATM   15  C1  UNL     1      27.471 -17.373  22.667  1.00  0.00     0.011 C 
HETATM   16  C3  UNL     1      25.117 -17.959  22.296  1.00  0.00     0.011 C 
ENDBRANCH  13  14
ENDBRANCH  12  13
ENDBRANCH   9  12
ENDBRANCH   7   8
BRANCH   7  17
HETATM   17  C18 UNL     1      21.382 -14.664  26.208  1.00  0.00    -0.022 C 
HETATM   18  C19 UNL     1      21.195 -13.176  26.032  1.00  0.00     0.017 C 
HETATM   19  C20 UNL     1      22.459 -14.864  27.272  1.00  0.00     0.017 C 
HETATM   20  C21 UNL     1      20.100 -15.166  26.844  1.00  0.00     0.017 C 
ENDBRANCH   7  17
ENDBRANCH   1   7
BRANCH   6  21
HETATM   21  C12 UNL     1      17.791 -14.727  22.347  1.00  0.00     0.241 C 
HETATM   22  O6  UNL     1      17.422 -14.323  23.476  1.00  0.00    -0.271 OA
HETATM   23  N3  UNL     1      16.988 -14.253  21.255  1.00  0.00    -0.355 N 
ATOM     24  H3  UNL     1      17.239 -14.540  20.308  1.00  0.00     0.162 HD
BRANCH  23  25
HETATM   25  C13 UNL     1      15.842 -13.393  21.430  1.00  0.00     0.084 C 
HETATM   26  C14 UNL     1      14.561 -14.023  21.003  1.00  0.00     0.025 C 
HETATM   27  C15 UNL     1      14.189 -13.378  19.675  1.00  0.00     0.002 C 
HETATM   28  C16 UNL     1      15.446 -12.604  19.261  1.00  0.00     0.002 C 
HETATM   29  C17 UNL     1      15.930 -12.116  20.617  1.00  0.00     0.025 C 
ENDBRANCH  23  25
ENDBRANCH   6  21
BRANCH   5  30
HETATM   30  C10 UNL     1      17.455 -17.680  22.053  1.00  0.00     0.181 C 
HETATM   31  O4  UNL     1      17.163 -18.060  20.909  1.00  0.00    -0.648 OA
HETATM   32  O5  UNL     1      16.447 -17.865  23.021  1.00  0.00    -0.648 OA
ENDBRANCH   5  30
TORSDOF 9
ENDMDL
MODEL 2
REMARK VINA RESULT: -7.074116882      0.884      1.195
REMARK  9 active torsions:
REMARK  status: ('A' for Active; 'I' for Inactive)
REMARK    1  A    between atoms: C2_2  and  C4_4 
REMARK    2  A    between atoms: C4_4  and  O1_5 
REMARK    3  A    between atoms: O1_5  and  C5_6 
REMARK       I    between atoms: C5_6  and  N1_8 
REMARK    4  A    between atoms: N1_8  and  C6_10 
REMARK    5  A    between atoms: C6_10  and  C7_11 
REMARK    6  A    between atoms: C6_10  and  C18_29 
REMARK       I    between atoms: C7_11  and  N2_13 
REMARK    7  A    between atoms: C9_15  and  C10_16 
REMARK    8  A    between atoms: C11_19  and  C12_20 
REMARK       I    between atoms: C12_20  and  N3_22 
REMARK    9  A    between atoms: N3_22  and  C13_24 
ROOT
HETATM    1  C7  UNL     1      20.937 -14.987  23.699  1.00  0.00     0.244 C 
HETATM    2  O3  UNL     1      21.269 -14.022  22.982  1.00  0.00    -0.271 OA
HETATM    3  N2  UNL     1      19.713 -15.658  23.231  1.00  0.00    -0.335 N 
HETATM    4  C8  UNL     1      18.872 -16.731  23.682  1.00  0.00     0.145 C 
HETATM    5  C9  UNL     1      18.600 -17.045  22.248  1.00  0.00     0.137 C 
HETATM    6  C11 UNL     1      18.868 -15.571  22.065  1.00  0.00     0.195 C 
ENDROOT
BRANCH   1   7
HETATM    7  C6  UNL     1      21.631 -15.497  24.905  1.00  0.00     0.186 C 
BRANCH   7   8
HETATM    8  N1  UNL     1      23.020 -15.769  24.779  1.00  0.00    -0.323 N 
HETATM    9  C5  UNL     1      23.779 -16.612  23.977  1.00  0.00     0.361 C 
HETATM   10  O2  UNL     1      23.400 -17.406  23.077  1.00  0.00    -0.238 OA
ATOM     11  H1  UNL     1      23.590 -15.220  25.423  1.00  0.00     0.165 HD
BRANCH   9  12
HETATM   12  O1  UNL     1      25.191 -16.630  24.141  1.00  0.00    -0.304 OA
BRANCH  12  13
HETATM   13  C4  UNL     1      26.049 -16.397  23.008  1.00  0.00     0.184 C 
BRANCH  13  14
HETATM   14  C2  UNL     1      27.103 -17.480  22.939  1.00  0.00     0.002 C 
HETATM   15  C1  UNL     1      26.646 -18.739  22.266  1.00  0.00     0.011 C 
HETATM   16  C3  UNL     1      28.391 -17.014  22.306  1.00  0.00     0.011 C 
ENDBRANCH  13  14
ENDBRANCH  12  13
ENDBRANCH   9  12
ENDBRANCH   7   8
BRANCH   7  17
HETATM   17  C18 UNL     1      21.332 -14.718  26.165  1.00  0.00    -0.022 C 
HETATM   18  C19 UNL     1      21.164 -13.233  25.952  1.00  0.00     0.017 C 
HETATM   19  C20 UNL     1      22.450 -14.907  27.187  1.00  0.00     0.017 C 
HETATM   20  C21 UNL     1      20.070 -15.176  26.871  1.00  0.00     0.017 C 
ENDBRANCH   7  17
ENDBRANCH   1   7
BRANCH   6  21
HETATM   21  C12 UNL     1      17.734 -14.648  22.272  1.00  0.00     0.241 C 
HETATM   22  O6  UNL     1      17.357 -14.255  23.402  1.00  0.00    -0.271 OA
HETATM   23  N3  UNL     1      16.972 -14.120  21.174  1.00  0.00    -0.355 N 
ATOM     24  H3  UNL     1      17.232 -14.394  20.227  1.00  0.00     0.162 HD
BRANCH  23  25
HETATM   25  C13 UNL     1      15.857 -13.220  21.346  1.00  0.00     0.084 C 
HETATM   26  C14 UNL     1      14.538 -13.857  21.069  1.00  0.00     0.025 C 
HETATM   27  C15 UNL     1      14.084 -13.329  19.715  1.00  0.00     0.002 C 
HETATM   28  C16 UNL     1      15.322 -12.626  19.146  1.00  0.00     0.002 C 
HETATM   29  C17 UNL     1      15.908 -12.026  20.414  1.00  0.00     0.025 C 
ENDBRANCH  23  25
ENDBRANCH   6  21
BRANCH   5  30
HETATM   30  C10 UNL     1      17.295 -17.583  21.933  1.00  0.00     0.181 C 
HETATM   31  O4  UNL     1      16.987 -17.888  20.771  1.00  0.00    -0.648 OA
HETATM   32  O5  UNL     1      16.288 -17.798  22.895  1.00  0.00    -0.648 OA
ENDBRANCH   5  30
TORSDOF 9
ENDMDL
MODEL 3
REMARK VINA RESULT: -6.849337340      2.836      9.006
REMARK  9 active torsions:
REMARK  status: ('A' for Active; 'I' for Inactive)
REMARK    1  A    between atoms: C2_2  and  C4_4 
REMARK    2  A    between atoms: C4_4  and  O1_5 
REMARK    3  A    between atoms: O1_5  and  C5_6 
REMARK       I    between atoms: C5_6  and  N1_8 
REMARK    4  A    between atoms: N1_8  and  C6_10 
REMARK    5  A    between atoms: C6_10  and  C7_11 
REMARK    6  A    between atoms: C6_10  and  C18_29 
REMARK       I    between atoms: C7_11  and  N2_13 
REMARK    7  A    between atoms: C9_15  and  C10_16 
REMARK    8  A    between atoms: C11_19  and  C12_20 
REMARK       I    between atoms: C12_20  and  N3_22 
REMARK    9  A    between atoms: N3_22  and  C13_24 
ROOT
HETATM    1  C7  UNL     1      16.024 -14.038  21.392  1.00  0.00     0.244 C 
HETATM    2  O3  UNL     1      15.794 -13.097  22.177  1.00  0.00    -0.271 OA
HETATM    3  N2  UNL     1      16.970 -15.025  21.937  1.00  0.00    -0.335 N 
HETATM    4  C8  UNL     1      17.619 -16.219  21.471  1.00  0.00     0.145 C 
HETATM    5  C9  UNL     1      17.564 -16.728  22.874  1.00  0.00     0.137 C 
HETATM    6  C11 UNL     1      17.600 -15.257  23.214  1.00  0.00     0.195 C 
ENDROOT
BRANCH   1   7
HETATM    7  C6  UNL     1      15.453 -14.247  20.041  1.00  0.00     0.186 C 
BRANCH   7   8
HETATM    8  N1  UNL     1      14.271 -15.032  19.957  1.00  0.00    -0.323 N 
HETATM    9  C5  UNL     1      13.132 -15.164  20.741  1.00  0.00     0.361 C 
HETATM   10  O2  UNL     1      12.826 -14.565  21.805  1.00  0.00    -0.238 OA
ATOM     11  H1  UNL     1      14.255 -15.635  19.135  1.00  0.00     0.165 HD
BRANCH   9  12
HETATM   12  O1  UNL     1      12.126 -16.086  20.342  1.00  0.00    -0.304 OA
BRANCH  12  13
HETATM   13  C4  UNL     1      12.450 -17.480  20.186  1.00  0.00     0.184 C 
BRANCH  13  14
HETATM   14  C2  UNL     1      12.035 -17.947  18.808  1.00  0.00     0.002 C 
HETATM   15  C1  UNL     1      10.757 -17.340  18.315  1.00  0.00     0.011 C 
HETATM   16  C3  UNL     1      13.113 -17.759  17.770  1.00  0.00     0.011 C 
ENDBRANCH  13  14
ENDBRANCH  12  13
ENDBRANCH   9  12
ENDBRANCH   7   8
BRANCH   7  17
HETATM   17  C18 UNL     1      15.338 -12.984  19.217  1.00  0.00    -0.022 C 
HETATM   18  C19 UNL     1      14.208 -12.073  19.633  1.00  0.00     0.017 C 
HETATM   19  C20 UNL     1      15.127 -13.325  17.744  1.00  0.00     0.017 C 
HETATM   20  C21 UNL     1      16.589 -12.128  19.250  1.00  0.00     0.017 C 
ENDBRANCH   7  17
ENDBRANCH   1   7
BRANCH   6  21
HETATM   21  C12 UNL     1      18.927 -14.617  23.301  1.00  0.00     0.241 C 
HETATM   22  O6  UNL     1      19.496 -14.066  22.328  1.00  0.00    -0.271 OA
HETATM   23  N3  UNL     1      19.673 -14.572  24.528  1.00  0.00    -0.355 N 
ATOM     24  H3  UNL     1      19.263 -14.996  25.360  1.00  0.00     0.162 HD
BRANCH  23  25
HETATM   25  C13 UNL     1      20.974 -13.957  24.641  1.00  0.00     0.084 C 
HETATM   26  C14 UNL     1      22.078 -14.943  24.812  1.00  0.00     0.025 C 
HETATM   27  C15 UNL     1      22.493 -14.872  26.275  1.00  0.00     0.002 C 
HETATM   28  C16 UNL     1      21.391 -14.041  26.944  1.00  0.00     0.002 C 
HETATM   29  C17 UNL     1      21.093 -13.038  25.841  1.00  0.00     0.025 C 
ENDBRANCH  23  25
ENDBRANCH   6  21
BRANCH   5  30
HETATM   30  C10 UNL     1      18.644 -17.591  23.299  1.00  0.00     0.181 C 
HETATM   31  O4  UNL     1      18.615 -18.166  24.398  1.00  0.00    -0.648 OA
HETATM   32  O5  UNL     1      19.793 -17.841  22.522  1.00  0.00    -0.648 OA
ENDBRANCH   5  30
TORSDOF 9
ENDMDL
MODEL 4
REMARK VINA RESULT: -6.828966681      1.939      8.345
REMARK  9 active torsions:
REMARK  status: ('A' for Active; 'I' for Inactive)
REMARK    1  A    between atoms: C2_2  and  C4_4 
REMARK    2  A    between atoms: C4_4  and  O1_5 
REMARK    3  A    between atoms: O1_5  and  C5_6 
REMARK       I    between atoms: C5_6  and  N1_8 
REMARK    4  A    between atoms: N1_8  and  C6_10 
REMARK    5  A    between atoms: C6_10  and  C7_11 
REMARK    6  A    between atoms: C6_10  and  C18_29 
REMARK       I    between atoms: C7_11  and  N2_13 
REMARK    7  A    between atoms: C9_15  and  C10_16 
REMARK    8  A    between atoms: C11_19  and  C12_20 
REMARK       I    between atoms: C12_20  and  N3_22 
REMARK    9  A    between atoms: N3_22  and  C13_24 
ROOT
HETATM    1  C7  UNL     1      19.567 -15.195  22.409  1.00  0.00     0.244 C 
HETATM    2  O3  UNL     1      20.084 -14.543  21.480  1.00  0.00    -0.271 OA
HETATM    3  N2  UNL     1      20.213 -14.954  23.710  1.00  0.00    -0.335 N 
HETATM    4  C8  UNL     1      20.086 -15.459  25.049  1.00  0.00     0.145 C 
HETATM    5  C9  UNL     1      20.485 -14.104  25.536  1.00  0.00     0.137 C 
HETATM    6  C11 UNL     1      21.213 -14.046  24.215  1.00  0.00     0.195 C 
ENDROOT
BRANCH   1   7
HETATM    7  C6  UNL     1      18.418 -16.126  22.329  1.00  0.00     0.186 C 
BRANCH   7   8
HETATM    8  N1  UNL     1      17.342 -15.747  21.481  1.00  0.00    -0.323 N 
HETATM    9  C5  UNL     1      16.466 -14.669  21.441  1.00  0.00     0.361 C 
HETATM   10  O2  UNL     1      16.404 -13.667  22.200  1.00  0.00    -0.238 OA
ATOM     11  H1  UNL     1      17.175 -16.418  20.731  1.00  0.00     0.165 HD
BRANCH   9  12
HETATM   12  O1  UNL     1      15.475 -14.626  20.422  1.00  0.00    -0.304 OA
BRANCH  12  13
HETATM   13  C4  UNL     1      15.233 -13.400  19.707  1.00  0.00     0.184 C 
BRANCH  13  14
HETATM   14  C2  UNL     1      14.642 -13.712  18.350  1.00  0.00     0.002 C 
HETATM   15  C1  UNL     1      15.230 -12.914  17.226  1.00  0.00     0.011 C 
HETATM   16  C3  UNL     1      14.696 -15.180  18.004  1.00  0.00     0.011 C 
ENDBRANCH  13  14
ENDBRANCH  12  13
ENDBRANCH   9  12
ENDBRANCH   7   8
BRANCH   7  17
HETATM   17  C18 UNL     1      18.807 -17.571  22.115  1.00  0.00    -0.022 C 
HETATM   18  C19 UNL     1      20.207 -17.764  21.583  1.00  0.00     0.017 C 
HETATM   19  C20 UNL     1      17.851 -18.242  21.132  1.00  0.00     0.017 C 
HETATM   20  C21 UNL     1      18.729 -18.409  23.377  1.00  0.00     0.017 C 
ENDBRANCH   7  17
ENDBRANCH   1   7
BRANCH   6  21
HETATM   21  C12 UNL     1      22.568 -14.630  24.165  1.00  0.00     0.241 C 
HETATM   22  O6  UNL     1      23.617 -13.945  24.109  1.00  0.00    -0.271 OA
HETATM   23  N3  UNL     1      22.786 -16.050  24.183  1.00  0.00    -0.355 N 
ATOM     24  H3  UNL     1      21.974 -16.665  24.235  1.00  0.00     0.162 HD
BRANCH  23  25
HETATM   25  C13 UNL     1      24.098 -16.649  24.130  1.00  0.00     0.084 C 
HETATM   26  C14 UNL     1      24.190 -17.783  23.168  1.00  0.00     0.025 C 
HETATM   27  C15 UNL     1      24.213 -19.055  24.005  1.00  0.00     0.002 C 
HETATM   28  C16 UNL     1      23.837 -18.589  25.416  1.00  0.00     0.002 C 
HETATM   29  C17 UNL     1      24.535 -17.238  25.457  1.00  0.00     0.025 C 
ENDBRANCH  23  25
ENDBRANCH   6  21
BRANCH   5  30
HETATM   30  C10 UNL     1      21.231 -14.047  26.772  1.00  0.00     0.181 C 
HETATM   31  O4  UNL     1      21.206 -13.040  27.496  1.00  0.00    -0.648 OA
HETATM   32  O5  UNL     1      22.034 -15.104  27.247  1.00  0.00    -0.648 OA
ENDBRANCH   5  30
TORSDOF 9
ENDMDL
MODEL 5
REMARK VINA RESULT: -6.808994043      3.031      8.974
REMARK  9 active torsions:
REMARK  status: ('A' for Active; 'I' for Inactive)
REMARK    1  A    between atoms: C2_2  and  C4_4 
REMARK    2  A    between atoms: C4_4  and  O1_5 
REMARK    3  A    between atoms: O1_5  and  C5_6 
REMARK       I    between atoms: C5_6  and  N1_8 
REMARK    4  A    between atoms: N1_8  and  C6_10 
REMARK    5  A    between atoms: C6_10  and  C7_11 
REMARK    6  A    between atoms: C6_10  and  C18_29 
REMARK       I    between atoms: C7_11  and  N2_13 
REMARK    7  A    between atoms: C9_15  and  C10_16 
REMARK    8  A    between atoms: C11_19  and  C12_20 
REMARK       I    between atoms: C12_20  and  N3_22 
REMARK    9  A    between atoms: N3_22  and  C13_24 
ROOT
HETATM    1  C7  UNL     1      15.788 -17.981  22.982  1.00  0.00     0.244 C 
HETATM    2  O3  UNL     1      15.682 -18.640  24.035  1.00  0.00    -0.271 OA
HETATM    3  N2  UNL     1      17.120 -17.377  22.813  1.00  0.00    -0.335 N 
HETATM    4  C8  UNL     1      17.759 -16.502  21.869  1.00  0.00     0.145 C 
HETATM    5  C9  UNL     1      19.035 -17.226  22.149  1.00  0.00     0.137 C 
HETATM    6  C11 UNL     1      18.390 -17.466  23.492  1.00  0.00     0.195 C 
ENDROOT
BRANCH   1   7
HETATM    7  C6  UNL     1      14.758 -17.773  21.938  1.00  0.00     0.186 C 
BRANCH   7   8
HETATM    8  N1  UNL     1      14.436 -16.427  21.612  1.00  0.00    -0.323 N 
HETATM    9  C5  UNL     1      13.283 -15.775  21.194  1.00  0.00     0.361 C 
HETATM   10  O2  UNL     1      12.133 -16.245  20.991  1.00  0.00    -0.238 OA
ATOM     11  H1  UNL     1      15.232 -15.797  21.708  1.00  0.00     0.165 HD
BRANCH   9  12
HETATM   12  O1  UNL     1      13.337 -14.376  20.944  1.00  0.00    -0.304 OA
BRANCH  12  13
HETATM   13  C4  UNL     1      12.266 -13.524  21.394  1.00  0.00     0.184 C 
BRANCH  13  14
HETATM   14  C2  UNL     1      12.840 -12.244  21.959  1.00  0.00     0.002 C 
HETATM   15  C1  UNL     1      14.178 -11.871  21.396  1.00  0.00     0.011 C 
HETATM   16  C3  UNL     1      11.901 -11.070  21.838  1.00  0.00     0.011 C 
ENDBRANCH  13  14
ENDBRANCH  12  13
ENDBRANCH   9  12
ENDBRANCH   7   8
BRANCH   7  17
HETATM   17  C18 UNL     1      14.960 -18.609  20.695  1.00  0.00    -0.022 C 
HETATM   18  C19 UNL     1      15.443 -17.831  19.495  1.00  0.00     0.017 C 
HETATM   19  C20 UNL     1      13.656 -19.297  20.297  1.00  0.00     0.017 C 
HETATM   20  C21 UNL     1      15.959 -19.734  20.883  1.00  0.00     0.017 C 
ENDBRANCH   7  17
ENDBRANCH   1   7
BRANCH   6  21
HETATM   21  C12 UNL     1      18.545 -16.413  24.515  1.00  0.00     0.241 C 
HETATM   22  O6  UNL     1      17.621 -16.048  25.281  1.00  0.00    -0.271 OA
HETATM   23  N3  UNL     1      19.789 -15.721  24.713  1.00  0.00    -0.355 N 
ATOM     24  H3  UNL     1      20.584 -15.976  24.127  1.00  0.00     0.162 HD
BRANCH  23  25
HETATM   25  C13 UNL     1      19.968 -14.685  25.701  1.00  0.00     0.084 C 
HETATM   26  C14 UNL     1      20.778 -13.535  25.208  1.00  0.00     0.025 C 
HETATM   27  C15 UNL     1      22.149 -13.668  25.856  1.00  0.00     0.002 C 
HETATM   28  C16 UNL     1      22.145 -15.071  26.472  1.00  0.00     0.002 C 
HETATM   29  C17 UNL     1      20.701 -15.165  26.938  1.00  0.00     0.025 C 
ENDBRANCH  23  25
ENDBRANCH   6  21
BRANCH   5  30
HETATM   30  C10 UNL     1      20.255 -16.455  22.066  1.00  0.00     0.181 C 
HETATM   31  O4  UNL     1      21.360 -16.967  22.302  1.00  0.00    -0.648 OA
HETATM   32  O5  UNL     1      20.291 -15.088  21.721  1.00  0.00    -0.648 OA
ENDBRANCH   5  30
TORSDOF 9
ENDMDL
