MODEL 1
REMARK VINA RESULT: -8.337461088      0.000      0.000
REMARK  6 active torsions:
REMARK  status: ('A' for Active; 'I' for Inactive)
REMARK    1  A    between atoms: C1_2  and  N1_3 
REMARK    2  A    between atoms: C4_6  and  C5_7 
REMARK    3  A    between atoms: C4_6  and  N3_16 
REMARK    4  A    between atoms: C5_7  and  N2_8 
REMARK    5  A    between atoms: N2_8  and  C6_11 
REMARK       I    between atoms: N3_16  and  C10_18 
REMARK    6  A    between atoms: C10_18  and  C11_20 
ROOT
HETATM    1  N1  UNL     1      13.714 -16.782  18.880  1.00  0.00    -0.359 N 
HETATM    2  C2  UNL     1      14.875 -15.940  18.749  1.00  0.00     0.127 C 
HETATM    3  C3  UNL     1      14.700 -14.670  19.560  1.00  0.00     0.052 C 
HETATM    4  C4  UNL     1      14.387 -14.982  21.039  1.00  0.00     0.059 C 
HETATM    5  C21 UNL     1      14.109 -16.442  21.192  1.00  0.00     0.052 C 
HETATM    6  C22 UNL     1      13.103 -16.906  20.178  1.00  0.00     0.127 C 
ENDROOT
BRANCH   4   7
HETATM    7  C5  UNL     1      13.122 -14.215  21.386  1.00  0.00     0.263 C 
BRANCH   7   8
HETATM    8  N2  UNL     1      12.998 -12.972  20.708  1.00  0.00    -0.068 N 
ATOM      9  H22 UNL     1      13.909 -12.588  20.459  1.00  0.00     0.277 HD
ATOM     10  H21 UNL     1      12.618 -13.092  19.770  1.00  0.00     0.277 HD
BRANCH   8  11
HETATM   11  C6  UNL     1      12.200 -12.009  21.499  1.00  0.00     0.196 C 
HETATM   12  C7  UNL     1      11.778 -12.773  22.731  1.00  0.00     0.044 C 
HETATM   13  C8  UNL     1      10.972 -11.815  23.577  1.00  0.00     0.076 C 
HETATM   14  S1  UNL     1      12.020 -10.321  23.426  1.00  0.00    -0.167 SA
HETATM   15  C9  UNL     1      13.015 -10.831  21.961  1.00  0.00     0.106 C 
ENDBRANCH   8  11
ENDBRANCH   7   8
ENDBRANCH   4   7
BRANCH   4  16
HETATM   16  N3  UNL     1      15.478 -14.490  21.838  1.00  0.00    -0.348 N 
HETATM   17  C10 UNL     1      16.780 -15.014  21.914  1.00  0.00     0.241 C 
HETATM   18  O2  UNL     1      17.176 -15.982  21.289  1.00  0.00    -0.271 OA
ATOM     19  H3  UNL     1      15.285 -13.669  22.413  1.00  0.00     0.163 HD
BRANCH  17  20
HETATM   20  C11 UNL     1      17.755 -14.323  22.848  1.00  0.00     0.173 C 
HETATM   21  C12 UNL     1      19.093 -14.547  22.170  1.00  0.00     0.036 C 
HETATM   22  C13 UNL     1      20.284 -14.400  23.026  1.00  0.00     0.017 C 
HETATM   23  C14 UNL     1      20.148 -14.784  24.458  1.00  0.00    -0.009 C 
HETATM   24  C15 UNL     1      20.715 -13.610  25.280  1.00  0.00     0.015 C 
HETATM   25  C19 UNL     1      21.064 -15.966  24.840  1.00  0.00     0.015 C 
HETATM   26  C20 UNL     1      18.788 -15.166  24.915  1.00  0.00     0.066 C 
HETATM   27  C16 UNL     1      22.241 -13.718  25.295  1.00  0.00     0.001 C 
HETATM   28  C17 UNL     1      22.572 -14.713  26.393  1.00  0.00     0.000 C 
HETATM   29  C18 UNL     1      21.517 -15.812  26.300  1.00  0.00     0.001 C 
HETATM   30  N4  UNL     1      17.678 -14.821  24.154  1.00  0.00    -0.389 N 
ATOM     31  H4  UNL     1      16.754 -14.938  24.571  1.00  0.00     0.159 HD
ENDBRANCH  17  20
ENDBRANCH   4  16
BRANCH   1  32
HETATM   32  C1  UNL     1      13.214 -17.456  17.747  1.00  0.00     0.350 C 
HETATM   33  O1  UNL     1      12.057 -18.001  17.737  1.00  0.00    -0.284 OA
ENDBRANCH   1  32
TORSDOF 6
ENDMDL
MODEL 2
REMARK VINA RESULT: -8.308709009      2.126      2.493
REMARK  6 active torsions:
REMARK  status: ('A' for Active; 'I' for Inactive)
REMARK    1  A    between atoms: C1_2  and  N1_3 
REMARK    2  A    between atoms: C4_6  and  C5_7 
REMARK    3  A    between atoms: C4_6  and  N3_16 
REMARK    4  A    between atoms: C5_7  and  N2_8 
REMARK    5  A    between atoms: N2_8  and  C6_11 
REMARK       I    between atoms: N3_16  and  C10_18 
REMARK    6  A    between atoms: C10_18  and  C11_20 
ROOT
HETATM    1  N1  UNL     1      15.354 -12.814  17.800  1.00  0.00    -0.359 N 
HETATM    2  C2  UNL     1      16.275 -12.044  18.595  1.00  0.00     0.127 C 
HETATM    3  C3  UNL     1      15.716 -11.828  19.989  1.00  0.00     0.052 C 
HETATM    4  C4  UNL     1      15.357 -13.167  20.669  1.00  0.00     0.059 C 
HETATM    5  C21 UNL     1      15.440 -14.272  19.666  1.00  0.00     0.052 C 
HETATM    6  C22 UNL     1      14.678 -13.924  18.420  1.00  0.00     0.127 C 
ENDROOT
BRANCH   4   7
HETATM    7  C5  UNL     1      13.915 -13.046  21.131  1.00  0.00     0.263 C 
BRANCH   7   8
HETATM    8  N2  UNL     1      13.298 -11.815  20.778  1.00  0.00    -0.068 N 
ATOM      9  H22 UNL     1      13.978 -11.057  20.725  1.00  0.00     0.277 HD
ATOM     10  H21 UNL     1      12.988 -11.815  19.807  1.00  0.00     0.277 HD
BRANCH   8  11
HETATM   11  C6  UNL     1      12.191 -11.489  21.703  1.00  0.00     0.196 C 
HETATM   12  C7  UNL     1      12.004 -12.731  22.541  1.00  0.00     0.044 C 
HETATM   13  C8  UNL     1      10.889 -12.430  23.514  1.00  0.00     0.076 C 
HETATM   14  S1  UNL     1      11.373 -10.737  24.020  1.00  0.00    -0.167 SA
HETATM   15  C9  UNL     1      12.539 -10.365  22.642  1.00  0.00     0.106 C 
ENDBRANCH   8  11
ENDBRANCH   7   8
ENDBRANCH   4   7
BRANCH   4  16
HETATM   16  N3  UNL     1      16.214 -13.327  21.814  1.00  0.00    -0.348 N 
HETATM   17  C10 UNL     1      17.066 -14.410  22.094  1.00  0.00     0.241 C 
HETATM   18  O2  UNL     1      17.204 -15.387  21.379  1.00  0.00    -0.271 OA
ATOM     19  H3  UNL     1      16.202 -12.571  22.498  1.00  0.00     0.163 HD
BRANCH  17  20
HETATM   20  C11 UNL     1      17.863 -14.354  23.383  1.00  0.00     0.173 C 
HETATM   21  C12 UNL     1      19.256 -13.988  22.907  1.00  0.00     0.036 C 
HETATM   22  C13 UNL     1      20.357 -14.291  23.839  1.00  0.00     0.017 C 
HETATM   23  C14 UNL     1      20.203 -15.485  24.714  1.00  0.00    -0.009 C 
HETATM   24  C15 UNL     1      20.526 -15.020  26.148  1.00  0.00     0.015 C 
HETATM   25  C19 UNL     1      21.274 -16.562  24.436  1.00  0.00     0.015 C 
HETATM   26  C20 UNL     1      18.898 -16.191  24.649  1.00  0.00     0.066 C 
HETATM   27  C16 UNL     1      22.047 -14.974  26.314  1.00  0.00     0.001 C 
HETATM   28  C17 UNL     1      22.470 -16.398  26.626  1.00  0.00     0.000 C 
HETATM   29  C18 UNL     1      21.612 -17.298  25.740  1.00  0.00     0.001 C 
HETATM   30  N4  UNL     1      17.792 -15.555  24.099  1.00  0.00    -0.389 N 
ATOM     31  H4  UNL     1      16.877 -15.988  24.224  1.00  0.00     0.159 HD
ENDBRANCH  17  20
ENDBRANCH   4  16
BRANCH   1  32
HETATM   32  C1  UNL     1      15.143 -12.465  16.450  1.00  0.00     0.350 C 
HETATM   33  O1  UNL     1      14.485 -11.421  16.113  1.00  0.00    -0.284 OA
ENDBRANCH   1  32
TORSDOF 6
ENDMDL
MODEL 3
REMARK VINA RESULT: -8.284774719      2.392      2.944
REMARK  6 active torsions:
REMARK  status: ('A' for Active; 'I' for Inactive)
REMARK    1  A    between atoms: C1_2  and  N1_3 
REMARK    2  A    between atoms: C4_6  and  C5_7 
REMARK    3  A    between atoms: C4_6  and  N3_16 
REMARK    4  A    between atoms: C5_7  and  N2_8 
REMARK    5  A    between atoms: N2_8  and  C6_11 
REMARK       I    between atoms: N3_16  and  C10_18 
REMARK    6  A    between atoms: C10_18  and  C11_20 
ROOT
HETATM    1  N1  UNL     1      15.067 -12.511  17.754  1.00  0.00    -0.359 N 
HETATM    2  C2  UNL     1      16.373 -12.247  18.299  1.00  0.00     0.127 C 
HETATM    3  C3  UNL     1      16.315 -12.207  19.815  1.00  0.00     0.052 C 
HETATM    4  C4  UNL     1      15.706 -13.504  20.392  1.00  0.00     0.059 C 
HETATM    5  C21 UNL     1      15.131 -14.321  19.281  1.00  0.00     0.052 C 
HETATM    6  C22 UNL     1      14.237 -13.488  18.409  1.00  0.00     0.127 C 
ENDROOT
BRANCH   4   7
HETATM    7  C5  UNL     1      14.573 -13.080  21.311  1.00  0.00     0.263 C 
BRANCH   7   8
HETATM    8  N2  UNL     1      14.222 -11.707  21.197  1.00  0.00    -0.068 N 
ATOM      9  H22 UNL     1      14.903 -11.106  21.659  1.00  0.00     0.277 HD
ATOM     10  H21 UNL     1      14.339 -11.368  20.242  1.00  0.00     0.277 HD
BRANCH   8  11
HETATM   11  C6  UNL     1      12.852 -11.463  21.697  1.00  0.00     0.196 C 
HETATM   12  C7  UNL     1      12.410 -12.783  22.282  1.00  0.00     0.044 C 
HETATM   13  C8  UNL     1      11.015 -12.569  22.822  1.00  0.00     0.076 C 
HETATM   14  S1  UNL     1      11.250 -10.946  23.639  1.00  0.00    -0.167 SA
HETATM   15  C9  UNL     1      12.819 -10.449  22.809  1.00  0.00     0.106 C 
ENDBRANCH   8  11
ENDBRANCH   7   8
ENDBRANCH   4   7
BRANCH   4  16
HETATM   16  N3  UNL     1      16.725 -14.167  21.163  1.00  0.00    -0.348 N 
HETATM   17  C10 UNL     1      17.995 -13.669  21.500  1.00  0.00     0.241 C 
HETATM   18  O2  UNL     1      18.417 -12.571  21.183  1.00  0.00    -0.271 OA
ATOM     19  H3  UNL     1      16.499 -15.102  21.502  1.00  0.00     0.163 HD
BRANCH  17  20
HETATM   20  C11 UNL     1      18.903 -14.571  22.315  1.00  0.00     0.173 C 
HETATM   21  C12 UNL     1      18.189 -14.656  23.651  1.00  0.00     0.036 C 
HETATM   22  C13 UNL     1      19.015 -15.078  24.798  1.00  0.00     0.017 C 
HETATM   23  C14 UNL     1      20.449 -14.682  24.790  1.00  0.00    -0.009 C 
HETATM   24  C15 UNL     1      21.257 -15.959  25.093  1.00  0.00     0.015 C 
HETATM   25  C19 UNL     1      20.807 -13.744  25.963  1.00  0.00     0.015 C 
HETATM   26  C20 UNL     1      20.942 -14.000  23.566  1.00  0.00     0.066 C 
HETATM   27  C16 UNL     1      21.231 -16.204  26.603  1.00  0.00     0.001 C 
HETATM   28  C17 UNL     1      22.320 -15.318  27.181  1.00  0.00     0.000 C 
HETATM   29  C18 UNL     1      22.254 -14.006  26.405  1.00  0.00     0.001 C 
HETATM   30  N4  UNL     1      20.211 -14.076  22.388  1.00  0.00    -0.389 N 
ATOM     31  H4  UNL     1      20.651 -13.753  21.526  1.00  0.00     0.159 HD
ENDBRANCH  17  20
ENDBRANCH   4  16
BRANCH   1  32
HETATM   32  C1  UNL     1      14.641 -11.813  16.605  1.00  0.00     0.350 C 
HETATM   33  O1  UNL     1      13.878 -10.788  16.676  1.00  0.00    -0.284 OA
ENDBRANCH   1  32
TORSDOF 6
ENDMDL
MODEL 4
REMARK VINA RESULT: -8.157017716      1.473      1.773
REMARK  6 active torsions:
REMARK  status: ('A' for Active; 'I' for Inactive)
REMARK    1  A    between atoms: C1_2  and  N1_3 
REMARK    2  A    between atoms: C4_6  and  C5_7 
REMARK    3  A    between atoms: C4_6  and  N3_16 
REMARK    4  A    between atoms: C5_7  and  N2_8 
REMARK    5  A    between atoms: N2_8  and  C6_11 
REMARK       I    between atoms: N3_16  and  C10_18 
REMARK    6  A    between atoms: C10_18  and  C11_20 
ROOT
HETATM    1  N1  UNL     1      13.482 -18.808  19.585  1.00  0.00    -0.359 N 
HETATM    2  C2  UNL     1      14.733 -18.234  19.164  1.00  0.00     0.127 C 
HETATM    3  C3  UNL     1      14.710 -16.727  19.343  1.00  0.00     0.052 C 
HETATM    4  C4  UNL     1      14.363 -16.336  20.795  1.00  0.00     0.059 C 
HETATM    5  C21 UNL     1      13.915 -17.549  21.544  1.00  0.00     0.052 C 
HETATM    6  C22 UNL     1      12.861 -18.295  20.778  1.00  0.00     0.127 C 
ENDROOT
BRANCH   4   7
HETATM    7  C5  UNL     1      13.197 -15.364  20.716  1.00  0.00     0.263 C 
BRANCH   7   8
HETATM    8  N2  UNL     1      12.826 -14.807  21.970  1.00  0.00    -0.068 N 
ATOM      9  H22 UNL     1      11.879 -15.075  22.235  1.00  0.00     0.277 HD
ATOM     10  H21 UNL     1      13.333 -15.244  22.740  1.00  0.00     0.277 HD
BRANCH   8  11
HETATM   11  C6  UNL     1      12.996 -13.337  21.972  1.00  0.00     0.196 C 
HETATM   12  C7  UNL     1      12.956 -12.939  20.516  1.00  0.00     0.044 C 
HETATM   13  C8  UNL     1      13.109 -11.436  20.476  1.00  0.00     0.076 C 
HETATM   14  S1  UNL     1      11.984 -10.979  21.848  1.00  0.00    -0.167 SA
HETATM   15  C9  UNL     1      11.860 -12.629  22.660  1.00  0.00     0.106 C 
ENDBRANCH   8  11
ENDBRANCH   7   8
ENDBRANCH   4   7
BRANCH   4  16
HETATM   16  N3  UNL     1      15.505 -15.666  21.360  1.00  0.00    -0.348 N 
HETATM   17  C10 UNL     1      16.780 -16.209  21.590  1.00  0.00     0.241 C 
HETATM   18  O2  UNL     1      17.106 -17.353  21.327  1.00  0.00    -0.271 OA
ATOM     19  H3  UNL     1      15.373 -14.689  21.623  1.00  0.00     0.163 HD
BRANCH  17  20
HETATM   20  C11 UNL     1      17.822 -15.300  22.215  1.00  0.00     0.173 C 
HETATM   21  C12 UNL     1      19.058 -16.178  22.258  1.00  0.00     0.036 C 
HETATM   22  C13 UNL     1      20.111 -15.765  23.204  1.00  0.00     0.017 C 
HETATM   23  C14 UNL     1      19.677 -15.100  24.462  1.00  0.00    -0.009 C 
HETATM   24  C15 UNL     1      20.528 -13.822  24.597  1.00  0.00     0.015 C 
HETATM   25  C19 UNL     1      20.050 -15.915  25.719  1.00  0.00     0.015 C 
HETATM   26  C20 UNL     1      18.226 -14.807  24.591  1.00  0.00     0.066 C 
HETATM   27  C16 UNL     1      21.898 -14.207  25.159  1.00  0.00     0.001 C 
HETATM   28  C17 UNL     1      21.713 -14.304  26.662  1.00  0.00     0.000 C 
HETATM   29  C18 UNL     1      20.351 -14.957  26.880  1.00  0.00     0.001 C 
HETATM   30  N4  UNL     1      17.415 -14.812  23.463  1.00  0.00    -0.389 N 
ATOM     31  H4  UNL     1      16.470 -14.440  23.549  1.00  0.00     0.159 HD
ENDBRANCH  17  20
ENDBRANCH   4  16
BRANCH   1  32
HETATM   32  C1  UNL     1      12.905 -19.847  18.826  1.00  0.00     0.350 C 
HETATM   33  O1  UNL     1      11.778 -20.368  19.133  1.00  0.00    -0.284 OA
ENDBRANCH   1  32
TORSDOF 6
ENDMDL
MODEL 5
REMARK VINA RESULT: -8.099464540      2.844      4.063
REMARK  6 active torsions:
REMARK  status: ('A' for Active; 'I' for Inactive)
REMARK    1  A    between atoms: C1_2  and  N1_3 
REMARK    2  A    between atoms: C4_6  and  C5_7 
REMARK    3  A    between atoms: C4_6  and  N3_16 
REMARK    4  A    between atoms: C5_7  and  N2_8 
REMARK    5  A    between atoms: N2_8  and  C6_11 
REMARK       I    between atoms: N3_16  and  C10_18 
REMARK    6  A    between atoms: C10_18  and  C11_20 
ROOT
HETATM    1  N1  UNL     1      14.171 -12.399  19.173  1.00  0.00    -0.359 N 
HETATM    2  C2  UNL     1      15.007 -12.031  20.286  1.00  0.00     0.127 C 
HETATM    3  C3  UNL     1      14.791 -12.984  21.447  1.00  0.00     0.052 C 
HETATM    4  C4  UNL     1      15.018 -14.452  21.023  1.00  0.00     0.059 C 
HETATM    5  C21 UNL     1      15.149 -14.526  19.537  1.00  0.00     0.052 C 
HETATM    6  C22 UNL     1      14.024 -13.797  18.861  1.00  0.00     0.127 C 
ENDROOT
BRANCH   4   7
HETATM    7  C5  UNL     1      13.772 -15.219  21.433  1.00  0.00     0.263 C 
BRANCH   7   8
HETATM    8  N2  UNL     1      14.036 -16.534  21.905  1.00  0.00    -0.068 N 
ATOM      9  H22 UNL     1      15.034 -16.740  21.903  1.00  0.00     0.277 HD
ATOM     10  H21 UNL     1      13.862 -16.615  22.907  1.00  0.00     0.277 HD
BRANCH   8  11
HETATM   11  C6  UNL     1      13.271 -17.541  21.137  1.00  0.00     0.196 C 
HETATM   12  C7  UNL     1      12.087 -16.787  20.579  1.00  0.00     0.044 C 
HETATM   13  C8  UNL     1      11.287 -17.781  19.769  1.00  0.00     0.076 C 
HETATM   14  S1  UNL     1      12.654 -18.632  18.895  1.00  0.00    -0.167 SA
HETATM   15  C9  UNL     1      14.048 -18.083  19.968  1.00  0.00     0.106 C 
ENDBRANCH   8  11
ENDBRANCH   7   8
ENDBRANCH   4   7
BRANCH   4  16
HETATM   16  N3  UNL     1      16.151 -14.955  21.754  1.00  0.00    -0.348 N 
HETATM   17  C10 UNL     1      17.468 -14.465  21.724  1.00  0.00     0.241 C 
HETATM   18  O2  UNL     1      17.839 -13.513  21.060  1.00  0.00    -0.271 OA
ATOM     19  H3  UNL     1      15.979 -15.756  22.362  1.00  0.00     0.163 HD
BRANCH  17  20
HETATM   20  C11 UNL     1      18.498 -15.180  22.578  1.00  0.00     0.173 C 
HETATM   21  C12 UNL     1      17.957 -15.003  23.984  1.00  0.00     0.036 C 
HETATM   22  C13 UNL     1      18.930 -15.182  25.077  1.00  0.00     0.017 C 
HETATM   23  C14 UNL     1      20.339 -14.785  24.810  1.00  0.00    -0.009 C 
HETATM   24  C15 UNL     1      21.218 -15.972  25.253  1.00  0.00     0.015 C 
HETATM   25  C19 UNL     1      20.808 -13.631  25.720  1.00  0.00     0.015 C 
HETATM   26  C20 UNL     1      20.656 -14.357  23.424  1.00  0.00     0.066 C 
HETATM   27  C16 UNL     1      21.386 -15.912  26.772  1.00  0.00     0.001 C 
HETATM   28  C17 UNL     1      22.508 -14.921  27.023  1.00  0.00     0.000 C 
HETATM   29  C18 UNL     1      22.306 -13.789  26.018  1.00  0.00     0.001 C 
HETATM   30  N4  UNL     1      19.788 -14.671  22.385  1.00  0.00    -0.389 N 
ATOM     31  H4  UNL     1      20.109 -14.523  21.429  1.00  0.00     0.159 HD
ENDBRANCH  17  20
ENDBRANCH   4  16
BRANCH   1  32
HETATM   32  C1  UNL     1      13.527 -11.391  18.426  1.00  0.00     0.350 C 
HETATM   33  O1  UNL     1      13.822 -11.159  17.203  1.00  0.00    -0.284 OA
ENDBRANCH   1  32
TORSDOF 6
ENDMDL
