MODEL 1
REMARK VINA RESULT: -9.260601601      0.000      0.000
REMARK  14 active torsions:
REMARK  status: ('A' for Active; 'I' for Inactive)
REMARK    1  A    between atoms: O1_2  and  C2_3 
REMARK    2  A    between atoms: C2_3  and  C3_5 
REMARK    3  A    between atoms: C3_5  and  N1_6 
REMARK       I    between atoms: N1_6  and  C4_8 
REMARK    4  A    between atoms: C4_8  and  C5_10 
REMARK    5  A    between atoms: C5_10  and  C6_11 
REMARK    6  A    between atoms: C5_10  and  C12_17 
REMARK    7  A    between atoms: C6_11  and  C7_12 
REMARK       I    between atoms: C12_17  and  N2_19 
REMARK    8  A    between atoms: N2_19  and  C13_21 
REMARK    9  A    between atoms: C13_21  and  C14_22 
REMARK   10  A    between atoms: C13_21  and  C20_28 
REMARK   11  A    between atoms: C14_22  and  C15_23 
REMARK   12  A    between atoms: C20_28  and  C21_30 
REMARK       I    between atoms: C21_30  and  N3_32 
REMARK   13  A    between atoms: C26_38  and  C27_39 
REMARK       I    between atoms: C27_39  and  N4_41 
REMARK   14  A    between atoms: N4_41  and  C28_43 
ROOT
HETATM    1  C13 UNL     1      16.510  20.575   9.051  1.00  0.00     0.164 C 
ENDROOT
BRANCH   1   2
HETATM    2  N2  UNL     1      16.769  19.847   7.831  1.00  0.00    -0.348 N 
HETATM    3  C12 UNL     1      17.977  19.915   7.093  1.00  0.00     0.231 C 
HETATM    4  O4  UNL     1      18.890  20.656   7.527  1.00  0.00    -0.273 OA
ATOM      5  H2  UNL     1      16.030  19.241   7.475  1.00  0.00     0.163 HD
BRANCH   3   6
HETATM    6  C5  UNL     1      18.166  19.132   5.839  1.00  0.00     0.170 C 
BRANCH   6   7
HETATM    7  C4  UNL     1      18.705  17.793   6.145  1.00  0.00     0.232 C 
HETATM    8  N1  UNL     1      19.594  17.058   5.316  1.00  0.00    -0.341 N 
ATOM      9  H1  UNL     1      19.906  17.476   4.440  1.00  0.00     0.163 HD
HETATM   10  O3  UNL     1      18.349  17.241   7.230  1.00  0.00    -0.273 OA
BRANCH   8  11
HETATM   11  C3  UNL     1      20.081  15.723   5.670  1.00  0.00     0.124 A 
HETATM   12  C32 UNL     1      19.892  14.631   4.579  1.00  0.00     0.049 A 
HETATM   13  C33 UNL     1      19.075  14.641   5.846  1.00  0.00     0.023 A 
HETATM   14  C34 UNL     1      19.356  13.504   6.790  1.00  0.00     0.013 C 
BRANCH  11  15
HETATM   15  C2  UNL     1      21.328  15.594   6.447  1.00  0.00     0.287 C 
HETATM   16  O2  UNL     1      22.351  15.017   5.985  1.00  0.00    -0.262 OA
BRANCH  15  17
HETATM   17  O1  UNL     1      21.372  16.124   7.728  1.00  0.00    -0.325 OA
HETATM   18  C1  UNL     1      21.964  15.352   8.767  1.00  0.00     0.213 C 
ENDBRANCH  15  17
ENDBRANCH  11  15
ENDBRANCH   8  11
ENDBRANCH   6   7
BRANCH   6  19
HETATM   19  C6  UNL     1      16.861  19.075   5.109  1.00  0.00     0.028 C 
BRANCH  19  20
HETATM   20  C7  UNL     1      17.051  19.174   3.610  1.00  0.00    -0.013 C 
HETATM   21  C8  UNL     1      15.714  19.548   2.948  1.00  0.00     0.005 C 
HETATM   22  C9  UNL     1      15.924  19.110   1.530  1.00  0.00     0.000 C 
HETATM   23  C10 UNL     1      16.829  17.896   1.596  1.00  0.00     0.000 C 
HETATM   24  C11 UNL     1      17.371  17.845   2.996  1.00  0.00     0.005 C 
ENDBRANCH  19  20
ENDBRANCH   6  19
ENDBRANCH   3   6
ENDBRANCH   1   2
BRANCH   1  25
HETATM   25  C14 UNL     1      15.923  19.794  10.139  1.00  0.00     0.038 C 
BRANCH  25  26
HETATM   26  C15 UNL     1      16.562  18.410  10.313  1.00  0.00    -0.012 C 
HETATM   27  C16 UNL     1      17.601  18.514  11.438  1.00  0.00     0.005 C 
HETATM   28  C17 UNL     1      17.824  17.032  11.802  1.00  0.00     0.000 C 
HETATM   29  C18 UNL     1      16.401  16.504  11.855  1.00  0.00     0.000 C 
HETATM   30  C19 UNL     1      15.616  17.416  10.899  1.00  0.00     0.005 C 
ENDBRANCH  25  26
ENDBRANCH   1  25
BRANCH   1  31
HETATM   31  C20 UNL     1      15.876  21.880   8.736  1.00  0.00     0.239 C 
HETATM   32  O5  UNL     1      16.636  22.911   8.929  1.00  0.00    -0.285 OA
BRANCH  31  33
HETATM   33  C21 UNL     1      14.568  22.169   8.254  1.00  0.00     0.293 C 
HETATM   34  O6  UNL     1      13.622  22.234   9.110  1.00  0.00    -0.264 OA
HETATM   35  N3  UNL     1      14.273  22.381   6.852  1.00  0.00    -0.322 N 
HETATM   36  C22 UNL     1      15.313  22.444   5.865  1.00  0.00     0.202 C 
HETATM   37  C26 UNL     1      12.942  22.478   6.391  1.00  0.00     0.198 C 
HETATM   38  S1  UNL     1      14.423  23.095   4.377  1.00  0.00    -0.137 SA
HETATM   39  C23 UNL     1      12.808  22.394   4.927  1.00  0.00     0.032 C 
HETATM   40  C24 UNL     1      11.768  23.238   4.293  1.00  0.00     0.029 C 
HETATM   41  C25 UNL     1      12.727  20.939   4.505  1.00  0.00     0.029 C 
BRANCH  37  42
HETATM   42  C27 UNL     1      12.247  23.661   6.900  1.00  0.00     0.242 C 
HETATM   43  O7  UNL     1      12.914  24.744   7.031  1.00  0.00    -0.271 OA
HETATM   44  N4  UNL     1      10.883  23.733   7.271  1.00  0.00    -0.351 N 
ATOM     45  H4  UNL     1      10.318  22.887   7.191  1.00  0.00     0.163 HD
BRANCH  44  46
HETATM   46  C28 UNL     1      10.249  24.929   7.754  1.00  0.00     0.022 C 
HETATM   47  C29 UNL     1      10.337  26.054   6.719  1.00  0.00     0.037 C 
HETATM   48  C30 UNL     1       8.787  24.629   8.006  1.00  0.00     0.037 C 
HETATM   49  C31 UNL     1      10.818  25.462   9.038  1.00  0.00     0.037 C 
ENDBRANCH  44  46
ENDBRANCH  37  42
ENDBRANCH  31  33
ENDBRANCH   1  31
TORSDOF 14
ENDMDL
MODEL 2
REMARK VINA RESULT: -9.132053444      5.453     10.620
REMARK  14 active torsions:
REMARK  status: ('A' for Active; 'I' for Inactive)
REMARK    1  A    between atoms: O1_2  and  C2_3 
REMARK    2  A    between atoms: C2_3  and  C3_5 
REMARK    3  A    between atoms: C3_5  and  N1_6 
REMARK       I    between atoms: N1_6  and  C4_8 
REMARK    4  A    between atoms: C4_8  and  C5_10 
REMARK    5  A    between atoms: C5_10  and  C6_11 
REMARK    6  A    between atoms: C5_10  and  C12_17 
REMARK    7  A    between atoms: C6_11  and  C7_12 
REMARK       I    between atoms: C12_17  and  N2_19 
REMARK    8  A    between atoms: N2_19  and  C13_21 
REMARK    9  A    between atoms: C13_21  and  C14_22 
REMARK   10  A    between atoms: C13_21  and  C20_28 
REMARK   11  A    between atoms: C14_22  and  C15_23 
REMARK   12  A    between atoms: C20_28  and  C21_30 
REMARK       I    between atoms: C21_30  and  N3_32 
REMARK   13  A    between atoms: C26_38  and  C27_39 
REMARK       I    between atoms: C27_39  and  N4_41 
REMARK   14  A    between atoms: N4_41  and  C28_43 
ROOT
HETATM    1  C13 UNL     1       8.211  26.430   6.495  1.00  0.00     0.164 C 
ENDROOT
BRANCH   1   2
HETATM    2  N2  UNL     1       8.529  25.515   5.423  1.00  0.00    -0.348 N 
HETATM    3  C12 UNL     1       9.802  25.402   4.811  1.00  0.00     0.231 C 
HETATM    4  O4  UNL     1      10.722  26.145   5.228  1.00  0.00    -0.273 OA
ATOM      5  H2  UNL     1       7.783  24.907   5.083  1.00  0.00     0.163 HD
BRANCH   3   6
HETATM    6  C5  UNL     1      10.049  24.432   3.708  1.00  0.00     0.170 C 
BRANCH   6   7
HETATM    7  C4  UNL     1      11.092  23.464   4.097  1.00  0.00     0.232 C 
HETATM    8  N1  UNL     1      12.371  23.800   4.615  1.00  0.00    -0.341 N 
ATOM      9  H1  UNL     1      12.603  24.784   4.747  1.00  0.00     0.163 HD
HETATM   10  O3  UNL     1      10.840  22.229   3.957  1.00  0.00    -0.273 OA
BRANCH   8  11
HETATM   11  C3  UNL     1      13.370  22.788   4.968  1.00  0.00     0.124 A 
HETATM   12  C32 UNL     1      14.799  23.034   4.404  1.00  0.00     0.049 A 
HETATM   13  C33 UNL     1      13.911  21.936   3.875  1.00  0.00     0.023 A 
HETATM   14  C34 UNL     1      14.381  20.540   4.179  1.00  0.00     0.013 C 
BRANCH  11  15
HETATM   15  C2  UNL     1      13.345  22.192   6.316  1.00  0.00     0.287 C 
HETATM   16  O2  UNL     1      12.353  21.540   6.745  1.00  0.00    -0.262 OA
BRANCH  15  17
HETATM   17  O1  UNL     1      14.451  22.355   7.137  1.00  0.00    -0.325 OA
HETATM   18  C1  UNL     1      14.949  21.226   7.845  1.00  0.00     0.213 C 
ENDBRANCH  15  17
ENDBRANCH  11  15
ENDBRANCH   8  11
ENDBRANCH   6   7
BRANCH   6  19
HETATM   19  C6  UNL     1       8.754  23.773   3.350  1.00  0.00     0.028 C 
BRANCH  19  20
HETATM   20  C7  UNL     1       8.180  24.324   2.062  1.00  0.00    -0.013 C 
HETATM   21  C8  UNL     1       8.782  25.714   1.787  1.00  0.00     0.005 C 
HETATM   22  C9  UNL     1       7.786  26.312   0.839  1.00  0.00     0.000 C 
HETATM   23  C10 UNL     1       6.438  25.745   1.234  1.00  0.00     0.000 C 
HETATM   24  C11 UNL     1       6.713  24.609   2.178  1.00  0.00     0.005 C 
ENDBRANCH  19  20
ENDBRANCH   6  19
ENDBRANCH   3   6
ENDBRANCH   1   2
BRANCH   1  25
HETATM   25  C14 UNL     1       7.636  25.820   7.694  1.00  0.00     0.038 C 
BRANCH  25  26
HETATM   26  C15 UNL     1       8.442  26.101   8.969  1.00  0.00    -0.012 C 
HETATM   27  C16 UNL     1       9.926  25.897   8.638  1.00  0.00     0.005 C 
HETATM   28  C17 UNL     1      10.616  26.620   9.813  1.00  0.00     0.000 C 
HETATM   29  C18 UNL     1       9.820  27.910   9.899  1.00  0.00     0.000 C 
HETATM   30  C19 UNL     1       8.435  27.547   9.340  1.00  0.00     0.005 C 
ENDBRANCH  25  26
ENDBRANCH   1  25
BRANCH   1  31
HETATM   31  C20 UNL     1       7.524  27.628   5.950  1.00  0.00     0.239 C 
HETATM   32  O5  UNL     1       8.150  28.745   6.147  1.00  0.00    -0.285 OA
BRANCH  31  33
HETATM   33  C21 UNL     1       6.292  27.735   5.246  1.00  0.00     0.293 C 
HETATM   34  O6  UNL     1       6.323  27.619   3.974  1.00  0.00    -0.264 OA
HETATM   35  N3  UNL     1       5.025  27.974   5.906  1.00  0.00    -0.322 N 
HETATM   36  C22 UNL     1       4.912  27.988   7.337  1.00  0.00     0.202 C 
HETATM   37  C26 UNL     1       3.857  28.260   5.166  1.00  0.00     0.198 C 
HETATM   38  S1  UNL     1       3.079  27.949   7.601  1.00  0.00    -0.137 SA
HETATM   39  C23 UNL     1       2.741  28.766   5.983  1.00  0.00     0.032 C 
HETATM   40  C24 UNL     1       1.374  28.340   5.598  1.00  0.00     0.029 C 
HETATM   41  C25 UNL     1       2.867  30.268   6.147  1.00  0.00     0.029 C 
BRANCH  37  42
HETATM   42  C27 UNL     1       3.417  27.138   4.339  1.00  0.00     0.242 C 
HETATM   43  O7  UNL     1       3.124  27.367   3.115  1.00  0.00    -0.271 OA
HETATM   44  N4  UNL     1       3.278  25.794   4.760  1.00  0.00    -0.351 N 
ATOM     45  H4  UNL     1       3.493  25.570   5.732  1.00  0.00     0.163 HD
BRANCH  44  46
HETATM   46  C28 UNL     1       2.852  24.726   3.897  1.00  0.00     0.022 C 
HETATM   47  C29 UNL     1       3.610  23.433   4.208  1.00  0.00     0.037 C 
HETATM   48  C30 UNL     1       1.377  24.480   4.130  1.00  0.00     0.037 C 
HETATM   49  C31 UNL     1       3.026  25.001   2.431  1.00  0.00     0.037 C 
ENDBRANCH  44  46
ENDBRANCH  37  42
ENDBRANCH  31  33
ENDBRANCH   1  31
TORSDOF 14
ENDMDL
MODEL 3
REMARK VINA RESULT: -8.956030014      3.980     12.501
REMARK  14 active torsions:
REMARK  status: ('A' for Active; 'I' for Inactive)
REMARK    1  A    between atoms: O1_2  and  C2_3 
REMARK    2  A    between atoms: C2_3  and  C3_5 
REMARK    3  A    between atoms: C3_5  and  N1_6 
REMARK       I    between atoms: N1_6  and  C4_8 
REMARK    4  A    between atoms: C4_8  and  C5_10 
REMARK    5  A    between atoms: C5_10  and  C6_11 
REMARK    6  A    between atoms: C5_10  and  C12_17 
REMARK    7  A    between atoms: C6_11  and  C7_12 
REMARK       I    between atoms: C12_17  and  N2_19 
REMARK    8  A    between atoms: N2_19  and  C13_21 
REMARK    9  A    between atoms: C13_21  and  C14_22 
REMARK   10  A    between atoms: C13_21  and  C20_28 
REMARK   11  A    between atoms: C14_22  and  C15_23 
REMARK   12  A    between atoms: C20_28  and  C21_30 
REMARK       I    between atoms: C21_30  and  N3_32 
REMARK   13  A    between atoms: C26_38  and  C27_39 
REMARK       I    between atoms: C27_39  and  N4_41 
REMARK   14  A    between atoms: N4_41  and  C28_43 
ROOT
HETATM    1  C13 UNL     1      10.543  23.468   5.236  1.00  0.00     0.164 C 
ENDROOT
BRANCH   1   2
HETATM    2  N2  UNL     1       9.482  24.259   5.814  1.00  0.00    -0.348 N 
HETATM    3  C12 UNL     1       9.501  25.671   5.932  1.00  0.00     0.231 C 
HETATM    4  O4  UNL     1      10.509  26.283   5.504  1.00  0.00    -0.273 OA
ATOM      5  H2  UNL     1       8.659  23.766   6.162  1.00  0.00     0.163 HD
BRANCH   3   6
HETATM    6  C5  UNL     1       8.364  26.416   6.543  1.00  0.00     0.170 C 
BRANCH   6   7
HETATM    7  C4  UNL     1       7.254  26.541   5.580  1.00  0.00     0.232 C 
HETATM    8  N1  UNL     1       5.899  26.205   5.842  1.00  0.00    -0.341 N 
ATOM      9  H1  UNL     1       5.651  25.858   6.768  1.00  0.00     0.163 HD
HETATM   10  O3  UNL     1       7.519  26.976   4.418  1.00  0.00    -0.273 OA
BRANCH   8  11
HETATM   11  C3  UNL     1       4.845  26.337   4.834  1.00  0.00     0.124 A 
HETATM   12  C32 UNL     1       4.234  27.760   4.688  1.00  0.00     0.049 A 
HETATM   13  C33 UNL     1       3.463  26.622   5.307  1.00  0.00     0.023 A 
HETATM   14  C34 UNL     1       2.285  26.144   4.504  1.00  0.00     0.013 C 
BRANCH  11  15
HETATM   15  C2  UNL     1       4.965  25.596   3.565  1.00  0.00     0.287 C 
HETATM   16  O2  UNL     1       4.978  24.334   3.522  1.00  0.00    -0.262 OA
BRANCH  15  17
HETATM   17  O1  UNL     1       5.068  26.313   2.383  1.00  0.00    -0.325 OA
HETATM   18  C1  UNL     1       4.716  25.671   1.162  1.00  0.00     0.213 C 
ENDBRANCH  15  17
ENDBRANCH  11  15
ENDBRANCH   8  11
ENDBRANCH   6   7
BRANCH   6  19
HETATM   19  C6  UNL     1       7.959  25.719   7.804  1.00  0.00     0.028 C 
BRANCH  19  20
HETATM   20  C7  UNL     1       8.210  26.577   9.026  1.00  0.00    -0.013 C 
HETATM   21  C8  UNL     1       7.791  28.027   8.727  1.00  0.00     0.005 C 
HETATM   22  C9  UNL     1       8.548  28.800   9.766  1.00  0.00     0.000 C 
HETATM   23  C10 UNL     1       9.840  28.042   9.993  1.00  0.00     0.000 C 
HETATM   24  C11 UNL     1       9.672  26.705   9.331  1.00  0.00     0.005 C 
ENDBRANCH  19  20
ENDBRANCH   6  19
ENDBRANCH   3   6
ENDBRANCH   1   2
BRANCH   1  25
HETATM   25  C14 UNL     1      10.134  22.533   4.189  1.00  0.00     0.038 C 
BRANCH  25  26
HETATM   26  C15 UNL     1       9.786  23.217   2.860  1.00  0.00    -0.012 C 
HETATM   27  C16 UNL     1       8.357  23.763   2.977  1.00  0.00     0.005 C 
HETATM   28  C17 UNL     1       8.305  24.770   1.811  1.00  0.00     0.000 C 
HETATM   29  C18 UNL     1       9.628  25.500   1.967  1.00  0.00     0.000 C 
HETATM   30  C19 UNL     1      10.551  24.481   2.653  1.00  0.00     0.005 C 
ENDBRANCH  25  26
ENDBRANCH   1  25
BRANCH   1  31
HETATM   31  C20 UNL     1      11.421  22.939   6.311  1.00  0.00     0.239 C 
HETATM   32  O5  UNL     1      11.186  23.426   7.488  1.00  0.00    -0.285 OA
BRANCH  31  33
HETATM   33  C21 UNL     1      12.473  21.983   6.245  1.00  0.00     0.293 C 
HETATM   34  O6  UNL     1      12.260  20.910   5.586  1.00  0.00    -0.264 OA
HETATM   35  N3  UNL     1      13.755  22.175   6.893  1.00  0.00    -0.322 N 
HETATM   36  C22 UNL     1      14.094  23.412   7.538  1.00  0.00     0.202 C 
HETATM   37  C26 UNL     1      14.703  21.131   6.964  1.00  0.00     0.198 C 
HETATM   38  S1  UNL     1      15.914  23.231   7.832  1.00  0.00    -0.137 SA
HETATM   39  C23 UNL     1      15.810  21.391   7.900  1.00  0.00     0.032 C 
HETATM   40  C24 UNL     1      17.153  20.899   7.511  1.00  0.00     0.029 C 
HETATM   41  C25 UNL     1      15.406  20.966   9.298  1.00  0.00     0.029 C 
BRANCH  37  42
HETATM   42  C27 UNL     1      15.222  20.743   5.653  1.00  0.00     0.242 C 
HETATM   43  O7  UNL     1      15.664  21.661   4.881  1.00  0.00    -0.271 OA
HETATM   44  N4  UNL     1      15.289  19.426   5.139  1.00  0.00    -0.351 N 
ATOM     45  H4  UNL     1      14.938  18.664   5.720  1.00  0.00     0.163 HD
BRANCH  44  46
HETATM   46  C28 UNL     1      15.824  19.100   3.844  1.00  0.00     0.022 C 
HETATM   47  C29 UNL     1      17.342  19.294   3.813  1.00  0.00     0.037 C 
HETATM   48  C30 UNL     1      15.524  17.645   3.554  1.00  0.00     0.037 C 
HETATM   49  C31 UNL     1      15.249  19.903   2.712  1.00  0.00     0.037 C 
ENDBRANCH  44  46
ENDBRANCH  37  42
ENDBRANCH  31  33
ENDBRANCH   1  31
TORSDOF 14
ENDMDL
MODEL 4
REMARK VINA RESULT: -8.869528000      5.131     10.343
REMARK  14 active torsions:
REMARK  status: ('A' for Active; 'I' for Inactive)
REMARK    1  A    between atoms: O1_2  and  C2_3 
REMARK    2  A    between atoms: C2_3  and  C3_5 
REMARK    3  A    between atoms: C3_5  and  N1_6 
REMARK       I    between atoms: N1_6  and  C4_8 
REMARK    4  A    between atoms: C4_8  and  C5_10 
REMARK    5  A    between atoms: C5_10  and  C6_11 
REMARK    6  A    between atoms: C5_10  and  C12_17 
REMARK    7  A    between atoms: C6_11  and  C7_12 
REMARK       I    between atoms: C12_17  and  N2_19 
REMARK    8  A    between atoms: N2_19  and  C13_21 
REMARK    9  A    between atoms: C13_21  and  C14_22 
REMARK   10  A    between atoms: C13_21  and  C20_28 
REMARK   11  A    between atoms: C14_22  and  C15_23 
REMARK   12  A    between atoms: C20_28  and  C21_30 
REMARK       I    between atoms: C21_30  and  N3_32 
REMARK   13  A    between atoms: C26_38  and  C27_39 
REMARK       I    between atoms: C27_39  and  N4_41 
REMARK   14  A    between atoms: N4_41  and  C28_43 
ROOT
HETATM    1  C13 UNL     1       9.311  25.745   4.421  1.00  0.00     0.164 C 
ENDROOT
BRANCH   1   2
HETATM    2  N2  UNL     1      10.154  25.579   5.582  1.00  0.00    -0.348 N 
HETATM    3  C12 UNL     1       9.981  24.575   6.566  1.00  0.00     0.231 C 
HETATM    4  O4  UNL     1       9.031  23.768   6.423  1.00  0.00    -0.273 OA
ATOM      5  H2  UNL     1      10.929  26.232   5.702  1.00  0.00     0.163 HD
BRANCH   3   6
HETATM    6  C5  UNL     1      10.895  24.470   7.739  1.00  0.00     0.170 C 
BRANCH   6   7
HETATM    7  C4  UNL     1      12.035  23.590   7.426  1.00  0.00     0.232 C 
HETATM    8  N1  UNL     1      13.328  24.030   7.033  1.00  0.00    -0.341 N 
ATOM      9  H1  UNL     1      13.505  25.032   6.968  1.00  0.00     0.163 HD
HETATM   10  O3  UNL     1      11.860  22.336   7.503  1.00  0.00    -0.273 OA
BRANCH   8  11
HETATM   11  C3  UNL     1      14.416  23.101   6.719  1.00  0.00     0.124 A 
HETATM   12  C32 UNL     1      15.153  23.364   5.374  1.00  0.00     0.049 A 
HETATM   13  C33 UNL     1      14.234  22.183   5.562  1.00  0.00     0.023 A 
HETATM   14  C34 UNL     1      14.915  20.843   5.556  1.00  0.00     0.013 C 
BRANCH  11  15
HETATM   15  C2  UNL     1      15.290  22.622   7.806  1.00  0.00     0.287 C 
HETATM   16  O2  UNL     1      16.404  23.160   8.059  1.00  0.00    -0.262 OA
BRANCH  15  17
HETATM   17  O1  UNL     1      14.872  21.545   8.572  1.00  0.00    -0.325 OA
HETATM   18  C1  UNL     1      14.434  21.783   9.905  1.00  0.00     0.213 C 
ENDBRANCH  15  17
ENDBRANCH  11  15
ENDBRANCH   8  11
ENDBRANCH   6   7
BRANCH   6  19
HETATM   19  C6  UNL     1      11.321  25.848   8.137  1.00  0.00     0.028 C 
BRANCH  19  20
HETATM   20  C7  UNL     1      10.472  26.396   9.264  1.00  0.00    -0.013 C 
HETATM   21  C8  UNL     1       9.020  26.556   8.780  1.00  0.00     0.005 C 
HETATM   22  C9  UNL     1       8.461  27.541   9.763  1.00  0.00     0.000 C 
HETATM   23  C10 UNL     1       9.611  28.450  10.146  1.00  0.00     0.000 C 
HETATM   24  C11 UNL     1      10.861  27.796   9.632  1.00  0.00     0.005 C 
ENDBRANCH  19  20
ENDBRANCH   6  19
ENDBRANCH   3   6
ENDBRANCH   1   2
BRANCH   1  25
HETATM   25  C14 UNL     1       9.999  25.704   3.131  1.00  0.00     0.038 C 
BRANCH  25  26
HETATM   26  C15 UNL     1      10.318  24.282   2.653  1.00  0.00    -0.012 C 
HETATM   27  C16 UNL     1      11.425  23.722   3.557  1.00  0.00     0.005 C 
HETATM   28  C17 UNL     1      11.329  22.209   3.277  1.00  0.00     0.000 C 
HETATM   29  C18 UNL     1       9.831  21.972   3.336  1.00  0.00     0.000 C 
HETATM   30  C19 UNL     1       9.211  23.322   2.942  1.00  0.00     0.005 C 
ENDBRANCH  25  26
ENDBRANCH   1  25
BRANCH   1  31
HETATM   31  C20 UNL     1       8.358  26.862   4.644  1.00  0.00     0.239 C 
HETATM   32  O5  UNL     1       8.850  27.869   5.293  1.00  0.00    -0.285 OA
BRANCH  31  33
HETATM   33  C21 UNL     1       6.996  26.994   4.254  1.00  0.00     0.293 C 
HETATM   34  O6  UNL     1       6.732  26.977   3.005  1.00  0.00    -0.264 OA
HETATM   35  N3  UNL     1       5.915  27.150   5.206  1.00  0.00    -0.322 N 
HETATM   36  C22 UNL     1       6.137  27.050   6.621  1.00  0.00     0.202 C 
HETATM   37  C26 UNL     1       4.605  27.465   4.781  1.00  0.00     0.198 C 
HETATM   38  S1  UNL     1       4.416  26.946   7.297  1.00  0.00    -0.137 SA
HETATM   39  C23 UNL     1       3.706  27.878   5.872  1.00  0.00     0.032 C 
HETATM   40  C24 UNL     1       2.290  27.450   5.779  1.00  0.00     0.029 C 
HETATM   41  C25 UNL     1       3.859  29.366   6.123  1.00  0.00     0.029 C 
BRANCH  37  42
HETATM   42  C27 UNL     1       3.992  26.399   3.989  1.00  0.00     0.242 C 
HETATM   43  O7  UNL     1       3.442  26.712   2.877  1.00  0.00    -0.271 OA
HETATM   44  N4  UNL     1       3.941  25.027   4.333  1.00  0.00    -0.351 N 
ATOM     45  H4  UNL     1       4.360  24.737   5.216  1.00  0.00     0.163 HD
BRANCH  44  46
HETATM   46  C28 UNL     1       3.334  24.019   3.506  1.00  0.00     0.022 C 
HETATM   47  C29 UNL     1       3.716  22.615   3.983  1.00  0.00     0.037 C 
HETATM   48  C30 UNL     1       1.830  24.161   3.604  1.00  0.00     0.037 C 
HETATM   49  C31 UNL     1       3.691  24.107   2.050  1.00  0.00     0.037 C 
ENDBRANCH  44  46
ENDBRANCH  37  42
ENDBRANCH  31  33
ENDBRANCH   1  31
TORSDOF 14
ENDMDL
MODEL 5
REMARK VINA RESULT: -8.817988064      5.780     14.214
REMARK  14 active torsions:
REMARK  status: ('A' for Active; 'I' for Inactive)
REMARK    1  A    between atoms: O1_2  and  C2_3 
REMARK    2  A    between atoms: C2_3  and  C3_5 
REMARK    3  A    between atoms: C3_5  and  N1_6 
REMARK       I    between atoms: N1_6  and  C4_8 
REMARK    4  A    between atoms: C4_8  and  C5_10 
REMARK    5  A    between atoms: C5_10  and  C6_11 
REMARK    6  A    between atoms: C5_10  and  C12_17 
REMARK    7  A    between atoms: C6_11  and  C7_12 
REMARK       I    between atoms: C12_17  and  N2_19 
REMARK    8  A    between atoms: N2_19  and  C13_21 
REMARK    9  A    between atoms: C13_21  and  C14_22 
REMARK   10  A    between atoms: C13_21  and  C20_28 
REMARK   11  A    between atoms: C14_22  and  C15_23 
REMARK   12  A    between atoms: C20_28  and  C21_30 
REMARK       I    between atoms: C21_30  and  N3_32 
REMARK   13  A    between atoms: C26_38  and  C27_39 
REMARK       I    between atoms: C27_39  and  N4_41 
REMARK   14  A    between atoms: N4_41  and  C28_43 
ROOT
HETATM    1  C13 UNL     1       8.225  25.613   2.710  1.00  0.00     0.164 C 
ENDROOT
BRANCH   1   2
HETATM    2  N2  UNL     1       7.897  26.198   3.989  1.00  0.00    -0.348 N 
HETATM    3  C12 UNL     1       7.772  27.588   4.231  1.00  0.00     0.231 C 
HETATM    4  O4  UNL     1       7.956  28.371   3.268  1.00  0.00    -0.273 OA
ATOM      5  H2  UNL     1       7.745  25.565   4.774  1.00  0.00     0.163 HD
BRANCH   3   6
HETATM    6  C5  UNL     1       7.431  28.114   5.583  1.00  0.00     0.170 C 
BRANCH   6   7
HETATM    7  C4  UNL     1       5.992  27.942   5.855  1.00  0.00     0.232 C 
HETATM    8  N1  UNL     1       5.081  28.992   6.145  1.00  0.00    -0.341 N 
ATOM      9  H1  UNL     1       5.427  29.950   6.160  1.00  0.00     0.163 HD
HETATM   10  O3  UNL     1       5.519  26.765   5.837  1.00  0.00    -0.273 OA
BRANCH   8  11
HETATM   11  C3  UNL     1       3.663  28.751   6.423  1.00  0.00     0.124 A 
HETATM   12  C32 UNL     1       3.097  29.468   7.683  1.00  0.00     0.049 A 
HETATM   13  C33 UNL     1       3.317  27.977   7.646  1.00  0.00     0.023 A 
HETATM   14  C34 UNL     1       2.060  27.151   7.677  1.00  0.00     0.013 C 
BRANCH  11  15
HETATM   15  C2  UNL     1       2.713  28.662   5.299  1.00  0.00     0.287 C 
HETATM   16  O2  UNL     1       2.662  27.655   4.540  1.00  0.00    -0.262 OA
BRANCH  15  17
HETATM   17  O1  UNL     1       1.851  29.724   5.070  1.00  0.00    -0.325 OA
HETATM   18  C1  UNL     1       2.285  30.787   4.229  1.00  0.00     0.213 C 
ENDBRANCH  15  17
ENDBRANCH  11  15
ENDBRANCH   8  11
ENDBRANCH   6   7
BRANCH   6  19
HETATM   19  C6  UNL     1       8.296  27.429   6.594  1.00  0.00     0.028 C 
BRANCH  19  20
HETATM   20  C7  UNL     1       8.677  28.358   7.728  1.00  0.00    -0.013 C 
HETATM   21  C8  UNL     1       9.706  27.661   8.636  1.00  0.00     0.005 C 
HETATM   22  C9  UNL     1       9.583  28.438   9.913  1.00  0.00     0.000 C 
HETATM   23  C10 UNL     1       8.134  28.869  10.005  1.00  0.00     0.000 C 
HETATM   24  C11 UNL     1       7.527  28.612   8.655  1.00  0.00     0.005 C 
ENDBRANCH  19  20
ENDBRANCH   6  19
ENDBRANCH   3   6
ENDBRANCH   1   2
BRANCH   1  25
HETATM   25  C14 UNL     1       7.135  24.899   2.045  1.00  0.00     0.038 C 
BRANCH  25  26
HETATM   26  C15 UNL     1       5.746  25.459   2.375  1.00  0.00    -0.012 C 
HETATM   27  C16 UNL     1       4.959  25.558   1.061  1.00  0.00     0.005 C 
HETATM   28  C17 UNL     1       3.508  25.689   1.569  1.00  0.00     0.000 C 
HETATM   29  C18 UNL     1       3.453  24.617   2.642  1.00  0.00     0.000 C 
HETATM   30  C19 UNL     1       4.904  24.484   3.131  1.00  0.00     0.005 C 
ENDBRANCH  25  26
ENDBRANCH   1  25
BRANCH   1  31
HETATM   31  C20 UNL     1       9.536  24.922   2.792  1.00  0.00     0.239 C 
HETATM   32  O5  UNL     1      10.379  25.250   1.865  1.00  0.00    -0.285 OA
BRANCH  31  33
HETATM   33  C21 UNL     1      10.006  23.960   3.730  1.00  0.00     0.293 C 
HETATM   34  O6  UNL     1       9.790  22.727   3.475  1.00  0.00    -0.264 OA
HETATM   35  N3  UNL     1      10.704  24.321   4.947  1.00  0.00    -0.322 N 
HETATM   36  C22 UNL     1      11.084  25.678   5.222  1.00  0.00     0.202 C 
HETATM   37  C26 UNL     1      10.989  23.359   5.941  1.00  0.00     0.198 C 
HETATM   38  S1  UNL     1      12.237  25.493   6.660  1.00  0.00    -0.137 SA
HETATM   39  C23 UNL     1      11.426  23.936   7.223  1.00  0.00     0.032 C 
HETATM   40  C24 UNL     1      12.464  23.194   7.979  1.00  0.00     0.029 C 
HETATM   41  C25 UNL     1      10.214  24.281   8.067  1.00  0.00     0.029 C 
BRANCH  37  42
HETATM   42  C27 UNL     1      11.933  22.338   5.491  1.00  0.00     0.242 C 
HETATM   43  O7  UNL     1      11.574  21.112   5.552  1.00  0.00    -0.271 OA
HETATM   44  N4  UNL     1      13.234  22.569   4.984  1.00  0.00    -0.351 N 
ATOM     45  H4  UNL     1      13.564  23.533   4.927  1.00  0.00     0.163 HD
BRANCH  44  46
HETATM   46  C28 UNL     1      14.118  21.524   4.543  1.00  0.00     0.022 C 
HETATM   47  C29 UNL     1      14.050  21.352   3.023  1.00  0.00     0.037 C 
HETATM   48  C30 UNL     1      15.535  21.905   4.915  1.00  0.00     0.037 C 
HETATM   49  C31 UNL     1      13.848  20.179   5.155  1.00  0.00     0.037 C 
ENDBRANCH  44  46
ENDBRANCH  37  42
ENDBRANCH  31  33
ENDBRANCH   1  31
TORSDOF 14
ENDMDL
