MODEL 1
REMARK VINA RESULT: -9.788357300      0.000      0.000
REMARK  15 active torsions:
REMARK  status: ('A' for Active; 'I' for Inactive)
REMARK    1  A    between atoms: C2_2  and  C3_4 
REMARK    2  A    between atoms: C8_11  and  C9_12 
REMARK    3  A    between atoms: C9_12  and  O2_13 
REMARK    4  A    between atoms: C9_12  and  N2_15 
REMARK    5  A    between atoms: N2_15  and  C10_16 
REMARK    6  A    between atoms: C10_16  and  C11_17 
REMARK    7  A    between atoms: C10_16  and  C32_47 
REMARK       I    between atoms: C11_17  and  N3_19 
REMARK    8  A    between atoms: N3_19  and  C12_21 
REMARK    9  A    between atoms: C12_21  and  C13_22 
REMARK   10  A    between atoms: C12_21  and  C19_29 
REMARK   11  A    between atoms: C13_22  and  C14_23 
REMARK       I    between atoms: C19_29  and  N4_31 
REMARK   12  A    between atoms: N4_31  and  C20_33 
REMARK   13  A    between atoms: C20_33  and  C21_34 
REMARK   14  A    between atoms: C20_33  and  C28_41 
REMARK   15  A    between atoms: C21_34  and  C22_35 
ROOT
HETATM    1  C11 UNL     1      10.301  24.752   6.270  1.00  0.00     0.279 C 
HETATM    2  O3  UNL     1       9.330  24.017   5.914  1.00  0.00    -0.265 OA
HETATM    3  N3  UNL     1      11.582  24.204   6.003  1.00  0.00    -0.342 N 
ATOM      4  H3  UNL     1      12.430  24.703   6.271  1.00  0.00     0.163 HD
ENDROOT
BRANCH   3   5
HETATM    5  C12 UNL     1      11.658  22.896   5.330  1.00  0.00     0.177 C 
BRANCH   5   6
HETATM    6  C13 UNL     1      12.189  22.992   3.966  1.00  0.00     0.039 C 
BRANCH   6   7
HETATM    7  C14 UNL     1      11.183  23.427   2.936  1.00  0.00    -0.008 C 
HETATM    8  C15 UNL     1      10.968  24.892   2.805  1.00  0.00     0.031 C 
HETATM    9  C16 UNL     1       9.739  25.214   1.992  1.00  0.00     0.168 C 
HETATM   10  O4  UNL     1       8.678  24.375   2.207  1.00  0.00    -0.391 OA
HETATM   11  C17 UNL     1       9.038  23.071   1.897  1.00  0.00     0.168 C 
HETATM   12  C18 UNL     1       9.925  22.613   3.064  1.00  0.00     0.031 C 
ENDBRANCH   6   7
ENDBRANCH   5   6
BRANCH   5  13
HETATM   13  C19 UNL     1      12.704  22.076   6.153  1.00  0.00     0.244 C 
HETATM   14  O5  UNL     1      12.357  22.032   7.342  1.00  0.00    -0.271 OA
HETATM   15  N4  UNL     1      13.789  21.543   5.482  1.00  0.00    -0.330 N 
ATOM     16  H4  UNL     1      13.803  21.785   4.491  1.00  0.00     0.168 HD
BRANCH  15  17
HETATM   17  C20 UNL     1      14.892  20.730   5.871  1.00  0.00     0.019 C 
BRANCH  17  18
HETATM   18  C21 UNL     1      15.787  20.354   4.744  1.00  0.00     0.060 C 
BRANCH  18  19
HETATM   19  C22 UNL     1      15.241  19.372   3.759  1.00  0.00    -0.009 C 
HETATM   20  C23 UNL     1      15.487  17.973   4.276  1.00  0.00     0.005 C 
HETATM   21  C24 UNL     1      16.861  17.483   3.987  1.00  0.00     0.000 C 
HETATM   22  C25 UNL     1      17.022  17.397   2.480  1.00  0.00     0.000 C 
HETATM   23  C26 UNL     1      16.932  18.796   1.944  1.00  0.00     0.000 C 
HETATM   24  C27 UNL     1      15.668  19.486   2.348  1.00  0.00     0.005 C 
ENDBRANCH  18  19
ENDBRANCH  17  18
BRANCH  17  25
HETATM   25  C28 UNL     1      15.444  20.979   7.205  1.00  0.00     0.172 C 
HETATM   26  C29 UNL     1      16.786  20.238   7.477  1.00  0.00     0.075 C 
HETATM   27  C30 UNL     1      17.273  21.046   8.706  1.00  0.00     0.182 A 
HETATM   28  O6  UNL     1      18.052  22.154   8.486  1.00  0.00    -0.348 OA
HETATM   29  C31 UNL     1      16.635  22.353   8.442  1.00  0.00     0.290 A 
HETATM   30  O7  UNL     1      16.111  22.291   7.163  1.00  0.00    -0.348 OA
ENDBRANCH  17  25
ENDBRANCH  15  17
ENDBRANCH   5  13
ENDBRANCH   3   5
BRANCH   1  31
HETATM   31  C10 UNL     1      10.007  26.045   6.913  1.00  0.00     0.162 C 
BRANCH  31  32
HETATM   32  N2  UNL     1       9.120  26.890   6.265  1.00  0.00    -0.378 NA
BRANCH  32  33
HETATM   33  C9  UNL     1       8.243  27.725   5.623  1.00  0.00     0.227 C 
BRANCH  33  34
HETATM   34  C8  UNL     1       6.790  27.873   5.863  1.00  0.00     0.058 A 
HETATM   35  C6  UNL     1       6.327  28.639   6.881  1.00  0.00     0.021 A 
HETATM   36  N1  UNL     1       4.982  28.751   7.046  1.00  0.00    -0.362 N 
HETATM   37  C7  UNL     1       7.215  29.429   7.824  1.00  0.00     0.069 C 
HETATM   38  C4  UNL     1       4.055  28.163   6.275  1.00  0.00     0.020 A 
ATOM     39  H1  UNL     1       4.650  29.328   7.819  1.00  0.00     0.165 HD
HETATM   40  C3  UNL     1       4.553  27.384   5.237  1.00  0.00     0.038 A 
HETATM   41  C5  UNL     1       2.619  28.351   6.487  1.00  0.00     0.069 C 
HETATM   42  C36 UNL     1       5.894  27.225   5.013  1.00  0.00    -0.029 A 
HETATM   43  C37 UNL     1       6.394  26.390   3.895  1.00  0.00     0.050 C 
BRANCH  40  44
HETATM   44  C2  UNL     1       3.592  26.723   4.356  1.00  0.00     0.158 C 
HETATM   45  C1  UNL     1       3.077  25.356   4.677  1.00  0.00     0.097 C 
HETATM   46  O1  UNL     1       3.173  27.274   3.311  1.00  0.00    -0.293 OA
ENDBRANCH  40  44
ENDBRANCH  33  34
BRANCH  33  47
HETATM   47  O2  UNL     1       8.575  28.546   4.656  1.00  0.00    -0.335 OA
ATOM     48  H2  UNL     1       8.619  28.043   3.851  1.00  0.00     0.220 HD
ENDBRANCH  33  47
ENDBRANCH  32  33
ENDBRANCH  31  32
BRANCH  31  49
HETATM   49  C32 UNL     1       9.940  26.007   8.431  1.00  0.00     0.010 C 
HETATM   50  C33 UNL     1      10.894  25.084   9.080  1.00  0.00     0.022 C 
HETATM   51  C34 UNL     1      10.222  27.428   8.964  1.00  0.00     0.022 C 
HETATM   52  C35 UNL     1       8.542  25.647   8.901  1.00  0.00     0.022 C 
ENDBRANCH  31  49
ENDBRANCH   1  31
TORSDOF 15
ENDMDL
MODEL 2
REMARK VINA RESULT: -9.730300759      1.162      2.004
REMARK  15 active torsions:
REMARK  status: ('A' for Active; 'I' for Inactive)
REMARK    1  A    between atoms: C2_2  and  C3_4 
REMARK    2  A    between atoms: C8_11  and  C9_12 
REMARK    3  A    between atoms: C9_12  and  O2_13 
REMARK    4  A    between atoms: C9_12  and  N2_15 
REMARK    5  A    between atoms: N2_15  and  C10_16 
REMARK    6  A    between atoms: C10_16  and  C11_17 
REMARK    7  A    between atoms: C10_16  and  C32_47 
REMARK       I    between atoms: C11_17  and  N3_19 
REMARK    8  A    between atoms: N3_19  and  C12_21 
REMARK    9  A    between atoms: C12_21  and  C13_22 
REMARK   10  A    between atoms: C12_21  and  C19_29 
REMARK   11  A    between atoms: C13_22  and  C14_23 
REMARK       I    between atoms: C19_29  and  N4_31 
REMARK   12  A    between atoms: N4_31  and  C20_33 
REMARK   13  A    between atoms: C20_33  and  C21_34 
REMARK   14  A    between atoms: C20_33  and  C28_41 
REMARK   15  A    between atoms: C21_34  and  C22_35 
ROOT
HETATM    1  C11 UNL     1      10.179  24.577   6.863  1.00  0.00     0.279 C 
HETATM    2  O3  UNL     1       9.202  23.778   7.000  1.00  0.00    -0.265 OA
HETATM    3  N3  UNL     1      11.374  23.969   6.397  1.00  0.00    -0.342 N 
ATOM      4  H3  UNL     1      12.225  24.518   6.275  1.00  0.00     0.163 HD
ENDROOT
BRANCH   3   5
HETATM    5  C12 UNL     1      11.356  22.528   6.094  1.00  0.00     0.177 C 
BRANCH   5   6
HETATM    6  C13 UNL     1      11.376  22.253   4.654  1.00  0.00     0.039 C 
BRANCH   6   7
HETATM    7  C14 UNL     1      10.496  23.159   3.836  1.00  0.00    -0.008 C 
HETATM    8  C15 UNL     1       9.554  22.491   2.902  1.00  0.00     0.031 C 
HETATM    9  C16 UNL     1       8.951  23.461   1.915  1.00  0.00     0.168 C 
HETATM   10  O4  UNL     1       9.816  24.420   1.458  1.00  0.00    -0.391 OA
HETATM   11  C17 UNL     1      10.293  25.171   2.524  1.00  0.00     0.168 C 
HETATM   12  C18 UNL     1      11.315  24.264   3.226  1.00  0.00     0.031 C 
ENDBRANCH   6   7
ENDBRANCH   5   6
BRANCH   5  13
HETATM   13  C19 UNL     1      12.702  21.977   6.667  1.00  0.00     0.244 C 
HETATM   14  O5  UNL     1      12.765  22.207   7.883  1.00  0.00    -0.271 OA
HETATM   15  N4  UNL     1      13.569  21.342   5.796  1.00  0.00    -0.330 N 
ATOM     16  H4  UNL     1      13.234  21.337   4.832  1.00  0.00     0.168 HD
BRANCH  15  17
HETATM   17  C20 UNL     1      14.828  20.693   5.951  1.00  0.00     0.019 C 
BRANCH  17  18
HETATM   18  C21 UNL     1      15.598  20.571   4.684  1.00  0.00     0.060 C 
BRANCH  18  19
HETATM   19  C22 UNL     1      15.112  19.553   3.704  1.00  0.00    -0.009 C 
HETATM   20  C23 UNL     1      15.298  18.175   4.297  1.00  0.00     0.005 C 
HETATM   21  C24 UNL     1      16.682  17.657   4.132  1.00  0.00     0.000 C 
HETATM   22  C25 UNL     1      16.953  17.504   2.645  1.00  0.00     0.000 C 
HETATM   23  C26 UNL     1      16.922  18.879   2.045  1.00  0.00     0.000 C 
HETATM   24  C27 UNL     1      15.642  19.600   2.325  1.00  0.00     0.005 C 
ENDBRANCH  18  19
ENDBRANCH  17  18
BRANCH  17  25
HETATM   25  C28 UNL     1      15.521  20.916   7.222  1.00  0.00     0.172 C 
HETATM   26  C29 UNL     1      16.933  20.263   7.289  1.00  0.00     0.075 C 
HETATM   27  C30 UNL     1      17.512  21.041   8.496  1.00  0.00     0.182 A 
HETATM   28  O6  UNL     1      18.183  22.213   8.250  1.00  0.00    -0.348 OA
HETATM   29  C31 UNL     1      16.761  22.310   8.387  1.00  0.00     0.290 A 
HETATM   30  O7  UNL     1      16.090  22.274   7.177  1.00  0.00    -0.348 OA
ENDBRANCH  17  25
ENDBRANCH  15  17
ENDBRANCH   5  13
ENDBRANCH   3   5
BRANCH   1  31
HETATM   31  C10 UNL     1       9.980  25.996   7.204  1.00  0.00     0.162 C 
BRANCH  31  32
HETATM   32  N2  UNL     1       9.183  26.747   6.356  1.00  0.00    -0.378 NA
BRANCH  32  33
HETATM   33  C9  UNL     1       8.394  27.492   5.517  1.00  0.00     0.227 C 
BRANCH  33  34
HETATM   34  C8  UNL     1       6.917  27.595   5.514  1.00  0.00     0.058 A 
HETATM   35  C6  UNL     1       6.169  26.841   4.671  1.00  0.00     0.021 A 
HETATM   36  N1  UNL     1       4.816  26.966   4.721  1.00  0.00    -0.362 N 
HETATM   37  C7  UNL     1       6.742  25.820   3.705  1.00  0.00     0.069 C 
HETATM   38  C4  UNL     1       4.142  27.781   5.547  1.00  0.00     0.020 A 
ATOM     39  H1  UNL     1       4.268  26.394   4.078  1.00  0.00     0.165 HD
HETATM   40  C3  UNL     1       4.930  28.542   6.402  1.00  0.00     0.038 A 
HETATM   41  C5  UNL     1       2.681  27.843   5.572  1.00  0.00     0.069 C 
HETATM   42  C36 UNL     1       6.297  28.470   6.406  1.00  0.00    -0.029 A 
HETATM   43  C37 UNL     1       7.110  29.293   7.332  1.00  0.00     0.050 C 
BRANCH  40  44
HETATM   44  C2  UNL     1       4.255  29.444   7.332  1.00  0.00     0.158 C 
HETATM   45  C1  UNL     1       3.982  30.865   6.956  1.00  0.00     0.097 C 
HETATM   46  O1  UNL     1       3.886  29.061   8.468  1.00  0.00    -0.293 OA
ENDBRANCH  40  44
ENDBRANCH  33  34
BRANCH  33  47
HETATM   47  O2  UNL     1       8.850  28.250   4.549  1.00  0.00    -0.335 OA
ATOM     48  H2  UNL     1       9.766  28.429   4.728  1.00  0.00     0.220 HD
ENDBRANCH  33  47
ENDBRANCH  32  33
ENDBRANCH  31  32
BRANCH  31  49
HETATM   49  C32 UNL     1       9.878  26.292   8.691  1.00  0.00     0.010 C 
HETATM   50  C33 UNL     1      10.745  25.467   9.558  1.00  0.00     0.022 C 
HETATM   51  C34 UNL     1      10.254  27.771   8.918  1.00  0.00     0.022 C 
HETATM   52  C35 UNL     1       8.447  26.139   9.174  1.00  0.00     0.022 C 
ENDBRANCH  31  49
ENDBRANCH   1  31
TORSDOF 15
ENDMDL
MODEL 3
REMARK VINA RESULT: -9.530028137      2.284     10.563
REMARK  15 active torsions:
REMARK  status: ('A' for Active; 'I' for Inactive)
REMARK    1  A    between atoms: C2_2  and  C3_4 
REMARK    2  A    between atoms: C8_11  and  C9_12 
REMARK    3  A    between atoms: C9_12  and  O2_13 
REMARK    4  A    between atoms: C9_12  and  N2_15 
REMARK    5  A    between atoms: N2_15  and  C10_16 
REMARK    6  A    between atoms: C10_16  and  C11_17 
REMARK    7  A    between atoms: C10_16  and  C32_47 
REMARK       I    between atoms: C11_17  and  N3_19 
REMARK    8  A    between atoms: N3_19  and  C12_21 
REMARK    9  A    between atoms: C12_21  and  C13_22 
REMARK   10  A    between atoms: C12_21  and  C19_29 
REMARK   11  A    between atoms: C13_22  and  C14_23 
REMARK       I    between atoms: C19_29  and  N4_31 
REMARK   12  A    between atoms: N4_31  and  C20_33 
REMARK   13  A    between atoms: C20_33  and  C21_34 
REMARK   14  A    between atoms: C20_33  and  C28_41 
REMARK   15  A    between atoms: C21_34  and  C22_35 
ROOT
HETATM    1  C11 UNL     1      10.758  24.385   4.936  1.00  0.00     0.279 C 
HETATM    2  O3  UNL     1      11.220  24.972   3.910  1.00  0.00    -0.265 OA
HETATM    3  N3  UNL     1       9.342  24.332   4.995  1.00  0.00    -0.342 N 
ATOM      4  H3  UNL     1       8.868  23.902   5.789  1.00  0.00     0.163 HD
ENDROOT
BRANCH   3   5
HETATM    5  C12 UNL     1       8.572  24.912   3.881  1.00  0.00     0.177 C 
BRANCH   5   6
HETATM    6  C13 UNL     1       7.427  24.081   3.492  1.00  0.00     0.039 C 
BRANCH   6   7
HETATM    7  C14 UNL     1       6.268  24.850   2.919  1.00  0.00    -0.008 C 
HETATM    8  C15 UNL     1       4.923  24.500   3.446  1.00  0.00     0.031 C 
HETATM    9  C16 UNL     1       3.815  25.083   2.604  1.00  0.00     0.168 C 
HETATM   10  O4  UNL     1       4.056  25.069   1.256  1.00  0.00    -0.391 OA
HETATM   11  C17 UNL     1       5.205  25.796   0.973  1.00  0.00     0.168 C 
HETATM   12  C18 UNL     1       6.367  24.896   1.419  1.00  0.00     0.031 C 
ENDBRANCH   6   7
ENDBRANCH   5   6
BRANCH   5  13
HETATM   13  C19 UNL     1       7.978  26.242   4.448  1.00  0.00     0.244 C 
HETATM   14  O5  UNL     1       8.135  27.155   3.624  1.00  0.00    -0.271 OA
HETATM   15  N4  UNL     1       7.391  26.212   5.700  1.00  0.00    -0.330 N 
ATOM     16  H4  UNL     1       7.446  25.296   6.145  1.00  0.00     0.168 HD
BRANCH  15  17
HETATM   17  C20 UNL     1       6.727  27.182   6.505  1.00  0.00     0.019 C 
BRANCH  17  18
HETATM   18  C21 UNL     1       5.443  26.702   7.083  1.00  0.00     0.060 C 
BRANCH  18  19
HETATM   19  C22 UNL     1       4.203  27.033   6.320  1.00  0.00    -0.009 C 
HETATM   20  C23 UNL     1       3.743  28.419   6.711  1.00  0.00     0.005 C 
HETATM   21  C24 UNL     1       2.957  28.432   7.974  1.00  0.00     0.000 C 
HETATM   22  C25 UNL     1       1.689  27.628   7.746  1.00  0.00     0.000 C 
HETATM   23  C26 UNL     1       2.102  26.207   7.499  1.00  0.00     0.000 C 
HETATM   24  C27 UNL     1       3.075  26.079   6.370  1.00  0.00     0.005 C 
ENDBRANCH  18  19
ENDBRANCH  17  18
BRANCH  17  25
HETATM   25  C28 UNL     1       7.585  28.097   7.261  1.00  0.00     0.172 C 
HETATM   26  C29 UNL     1       7.073  28.390   8.702  1.00  0.00     0.075 C 
HETATM   27  C30 UNL     1       8.372  28.970   9.316  1.00  0.00     0.182 A 
HETATM   28  O6  UNL     1       9.248  28.102   9.918  1.00  0.00    -0.348 OA
HETATM   29  C31 UNL     1       9.391  28.272   8.504  1.00  0.00     0.290 A 
HETATM   30  O7  UNL     1       8.724  27.311   7.764  1.00  0.00    -0.348 OA
ENDBRANCH  17  25
ENDBRANCH  15  17
ENDBRANCH   5  13
ENDBRANCH   3   5
BRANCH   1  31
HETATM   31  C10 UNL     1      11.708  23.852   5.928  1.00  0.00     0.162 C 
BRANCH  31  32
HETATM   32  N2  UNL     1      13.028  23.711   5.533  1.00  0.00    -0.378 NA
BRANCH  32  33
HETATM   33  C9  UNL     1      14.334  23.570   5.141  1.00  0.00     0.227 C 
BRANCH  33  34
HETATM   34  C8  UNL     1      15.238  22.425   5.392  1.00  0.00     0.058 A 
HETATM   35  C6  UNL     1      15.988  22.363   6.519  1.00  0.00     0.021 A 
HETATM   36  N1  UNL     1      16.791  21.281   6.705  1.00  0.00    -0.362 N 
HETATM   37  C7  UNL     1      15.953  23.404   7.623  1.00  0.00     0.069 C 
HETATM   38  C4  UNL     1      16.905  20.247   5.857  1.00  0.00     0.020 A 
ATOM     39  H1  UNL     1      17.351  21.253   7.557  1.00  0.00     0.165 HD
HETATM   40  C3  UNL     1      16.126  20.331   4.709  1.00  0.00     0.038 A 
HETATM   41  C5  UNL     1      17.765  19.096   6.132  1.00  0.00     0.069 C 
HETATM   42  C36 UNL     1      15.298  21.392   4.456  1.00  0.00    -0.029 A 
HETATM   43  C37 UNL     1      14.477  21.451   3.224  1.00  0.00     0.050 C 
BRANCH  40  44
HETATM   44  C2  UNL     1      16.202  19.232   3.750  1.00  0.00     0.158 C 
HETATM   45  C1  UNL     1      15.282  18.058   3.861  1.00  0.00     0.097 C 
HETATM   46  O1  UNL     1      17.033  19.234   2.811  1.00  0.00    -0.293 OA
ENDBRANCH  40  44
ENDBRANCH  33  34
BRANCH  33  47
HETATM   47  O2  UNL     1      15.007  24.469   4.464  1.00  0.00    -0.335 OA
ATOM     48  H2  UNL     1      14.981  25.281   4.957  1.00  0.00     0.220 HD
ENDBRANCH  33  47
ENDBRANCH  32  33
ENDBRANCH  31  32
BRANCH  31  49
HETATM   49  C32 UNL     1      11.460  24.299   7.359  1.00  0.00     0.010 C 
HETATM   50  C33 UNL     1      10.048  24.266   7.793  1.00  0.00     0.022 C 
HETATM   51  C34 UNL     1      12.264  23.378   8.301  1.00  0.00     0.022 C 
HETATM   52  C35 UNL     1      11.989  25.704   7.585  1.00  0.00     0.022 C 
ENDBRANCH  31  49
ENDBRANCH   1  31
TORSDOF 15
ENDMDL
MODEL 4
REMARK VINA RESULT: -9.510404167      2.237     10.680
REMARK  15 active torsions:
REMARK  status: ('A' for Active; 'I' for Inactive)
REMARK    1  A    between atoms: C2_2  and  C3_4 
REMARK    2  A    between atoms: C8_11  and  C9_12 
REMARK    3  A    between atoms: C9_12  and  O2_13 
REMARK    4  A    between atoms: C9_12  and  N2_15 
REMARK    5  A    between atoms: N2_15  and  C10_16 
REMARK    6  A    between atoms: C10_16  and  C11_17 
REMARK    7  A    between atoms: C10_16  and  C32_47 
REMARK       I    between atoms: C11_17  and  N3_19 
REMARK    8  A    between atoms: N3_19  and  C12_21 
REMARK    9  A    between atoms: C12_21  and  C13_22 
REMARK   10  A    between atoms: C12_21  and  C19_29 
REMARK   11  A    between atoms: C13_22  and  C14_23 
REMARK       I    between atoms: C19_29  and  N4_31 
REMARK   12  A    between atoms: N4_31  and  C20_33 
REMARK   13  A    between atoms: C20_33  and  C21_34 
REMARK   14  A    between atoms: C20_33  and  C28_41 
REMARK   15  A    between atoms: C21_34  and  C22_35 
ROOT
HETATM    1  C11 UNL     1      10.770  24.404   4.964  1.00  0.00     0.279 C 
HETATM    2  O3  UNL     1      11.228  25.040   3.966  1.00  0.00    -0.265 OA
HETATM    3  N3  UNL     1       9.354  24.327   5.012  1.00  0.00    -0.342 N 
ATOM      4  H3  UNL     1       8.882  23.858   5.786  1.00  0.00     0.163 HD
ENDROOT
BRANCH   3   5
HETATM    5  C12 UNL     1       8.581  24.941   3.919  1.00  0.00     0.177 C 
BRANCH   5   6
HETATM    6  C13 UNL     1       7.536  24.054   3.398  1.00  0.00     0.039 C 
BRANCH   6   7
HETATM    7  C14 UNL     1       6.340  24.769   2.829  1.00  0.00    -0.008 C 
HETATM    8  C15 UNL     1       5.009  24.230   3.215  1.00  0.00     0.031 C 
HETATM    9  C16 UNL     1       3.901  24.798   2.363  1.00  0.00     0.168 C 
HETATM   10  O4  UNL     1       4.225  24.965   1.043  1.00  0.00    -0.391 OA
HETATM   11  C17 UNL     1       5.306  25.828   0.928  1.00  0.00     0.168 C 
HETATM   12  C18 UNL     1       6.526  24.999   1.355  1.00  0.00     0.031 C 
ENDBRANCH   6   7
ENDBRANCH   5   6
BRANCH   5  13
HETATM   13  C19 UNL     1       7.843  26.153   4.575  1.00  0.00     0.244 C 
HETATM   14  O5  UNL     1       8.027  27.173   3.895  1.00  0.00    -0.271 OA
HETATM   15  N4  UNL     1       7.127  25.929   5.737  1.00  0.00    -0.330 N 
ATOM     16  H4  UNL     1       7.193  24.966   6.067  1.00  0.00     0.168 HD
BRANCH  15  17
HETATM   17  C20 UNL     1       6.316  26.749   6.574  1.00  0.00     0.019 C 
BRANCH  17  18
HETATM   18  C21 UNL     1       6.913  27.015   7.910  1.00  0.00     0.060 C 
BRANCH  18  19
HETATM   19  C22 UNL     1       7.760  28.240   8.030  1.00  0.00    -0.009 C 
HETATM   20  C23 UNL     1       9.203  27.822   8.193  1.00  0.00     0.005 C 
HETATM   21  C24 UNL     1       9.546  27.461   9.595  1.00  0.00     0.000 C 
HETATM   22  C25 UNL     1       9.378  28.702  10.454  1.00  0.00     0.000 C 
HETATM   23  C26 UNL     1       7.921  29.062  10.434  1.00  0.00     0.000 C 
HETATM   24  C27 UNL     1       7.393  29.247   9.047  1.00  0.00     0.005 C 
ENDBRANCH  18  19
ENDBRANCH  17  18
BRANCH  17  25
HETATM   25  C28 UNL     1       5.517  27.775   5.900  1.00  0.00     0.172 C 
HETATM   26  C29 UNL     1       4.312  27.204   5.096  1.00  0.00     0.075 C 
HETATM   27  C30 UNL     1       3.489  28.504   4.922  1.00  0.00     0.182 A 
HETATM   28  O6  UNL     1       2.561  28.817   5.885  1.00  0.00    -0.348 OA
HETATM   29  C31 UNL     1       3.904  29.252   6.128  1.00  0.00     0.290 A 
HETATM   30  O7  UNL     1       4.631  28.373   6.912  1.00  0.00    -0.348 OA
ENDBRANCH  17  25
ENDBRANCH  15  17
ENDBRANCH   5  13
ENDBRANCH   3   5
BRANCH   1  31
HETATM   31  C10 UNL     1      11.722  23.845   5.939  1.00  0.00     0.162 C 
BRANCH  31  32
HETATM   32  N2  UNL     1      13.037  23.697   5.531  1.00  0.00    -0.378 NA
BRANCH  32  33
HETATM   33  C9  UNL     1      14.339  23.553   5.127  1.00  0.00     0.227 C 
BRANCH  33  34
HETATM   34  C8  UNL     1      15.246  22.410   5.380  1.00  0.00     0.058 A 
HETATM   35  C6  UNL     1      15.998  22.354   6.507  1.00  0.00     0.021 A 
HETATM   36  N1  UNL     1      16.803  21.275   6.694  1.00  0.00    -0.362 N 
HETATM   37  C7  UNL     1      15.962  23.399   7.607  1.00  0.00     0.069 C 
HETATM   38  C4  UNL     1      16.919  20.238   5.849  1.00  0.00     0.020 A 
ATOM     39  H1  UNL     1      17.365  21.250   7.545  1.00  0.00     0.165 HD
HETATM   40  C3  UNL     1      16.138  20.317   4.702  1.00  0.00     0.038 A 
HETATM   41  C5  UNL     1      17.781  19.089   6.127  1.00  0.00     0.069 C 
HETATM   42  C36 UNL     1      15.307  21.374   4.447  1.00  0.00    -0.029 A 
HETATM   43  C37 UNL     1      14.484  21.428   3.216  1.00  0.00     0.050 C 
BRANCH  40  44
HETATM   44  C2  UNL     1      16.214  19.214   3.747  1.00  0.00     0.158 C 
HETATM   45  C1  UNL     1      15.288  18.045   3.855  1.00  0.00     0.097 C 
HETATM   46  O1  UNL     1      17.052  19.210   2.814  1.00  0.00    -0.293 OA
ENDBRANCH  40  44
ENDBRANCH  33  34
BRANCH  33  47
HETATM   47  O2  UNL     1      15.004  24.445   4.434  1.00  0.00    -0.335 OA
ATOM     48  H2  UNL     1      14.874  24.252   3.513  1.00  0.00     0.220 HD
ENDBRANCH  33  47
ENDBRANCH  32  33
ENDBRANCH  31  32
BRANCH  31  49
HETATM   49  C32 UNL     1      11.490  24.270   7.380  1.00  0.00     0.010 C 
HETATM   50  C33 UNL     1      10.078  24.270   7.816  1.00  0.00     0.022 C 
HETATM   51  C34 UNL     1      12.268  23.306   8.301  1.00  0.00     0.022 C 
HETATM   52  C35 UNL     1      12.061  25.653   7.633  1.00  0.00     0.022 C 
ENDBRANCH  31  49
ENDBRANCH   1  31
TORSDOF 15
ENDMDL
MODEL 5
REMARK VINA RESULT: -9.494908422      1.287      3.035
REMARK  15 active torsions:
REMARK  status: ('A' for Active; 'I' for Inactive)
REMARK    1  A    between atoms: C2_2  and  C3_4 
REMARK    2  A    between atoms: C8_11  and  C9_12 
REMARK    3  A    between atoms: C9_12  and  O2_13 
REMARK    4  A    between atoms: C9_12  and  N2_15 
REMARK    5  A    between atoms: N2_15  and  C10_16 
REMARK    6  A    between atoms: C10_16  and  C11_17 
REMARK    7  A    between atoms: C10_16  and  C32_47 
REMARK       I    between atoms: C11_17  and  N3_19 
REMARK    8  A    between atoms: N3_19  and  C12_21 
REMARK    9  A    between atoms: C12_21  and  C13_22 
REMARK   10  A    between atoms: C12_21  and  C19_29 
REMARK   11  A    between atoms: C13_22  and  C14_23 
REMARK       I    between atoms: C19_29  and  N4_31 
REMARK   12  A    between atoms: N4_31  and  C20_33 
REMARK   13  A    between atoms: C20_33  and  C21_34 
REMARK   14  A    between atoms: C20_33  and  C28_41 
REMARK   15  A    between atoms: C21_34  and  C22_35 
ROOT
HETATM    1  C11 UNL     1      10.457  25.199   6.470  1.00  0.00     0.279 C 
HETATM    2  O3  UNL     1       9.655  24.237   6.264  1.00  0.00    -0.265 OA
HETATM    3  N3  UNL     1      11.798  24.938   6.089  1.00  0.00    -0.342 N 
ATOM      4  H3  UNL     1      12.528  25.637   6.233  1.00  0.00     0.163 HD
ENDROOT
BRANCH   3   5
HETATM    5  C12 UNL     1      12.113  23.634   5.481  1.00  0.00     0.177 C 
BRANCH   5   6
HETATM    6  C13 UNL     1      12.489  23.746   4.068  1.00  0.00     0.039 C 
BRANCH   6   7
HETATM    7  C14 UNL     1      11.329  23.703   3.111  1.00  0.00    -0.008 C 
HETATM    8  C15 UNL     1      10.734  25.014   2.741  1.00  0.00     0.031 C 
HETATM    9  C16 UNL     1       9.405  24.857   2.045  1.00  0.00     0.168 C 
HETATM   10  O4  UNL     1       8.616  23.854   2.542  1.00  0.00    -0.391 OA
HETATM   11  C17 UNL     1       9.276  22.637   2.434  1.00  0.00     0.168 C 
HETATM   12  C18 UNL     1      10.338  22.658   3.544  1.00  0.00     0.031 C 
ENDBRANCH   6   7
ENDBRANCH   5   6
BRANCH   5  13
HETATM   13  C19 UNL     1      13.385  23.131   6.237  1.00  0.00     0.244 C 
HETATM   14  O5  UNL     1      13.491  23.725   7.319  1.00  0.00    -0.271 OA
HETATM   15  N4  UNL     1      14.157  22.152   5.637  1.00  0.00    -0.330 N 
ATOM     16  H4  UNL     1      13.813  21.883   4.715  1.00  0.00     0.168 HD
BRANCH  15  17
HETATM   17  C20 UNL     1      15.326  21.437   6.024  1.00  0.00     0.019 C 
BRANCH  17  18
HETATM   18  C21 UNL     1      15.187  20.721   7.321  1.00  0.00     0.060 C 
BRANCH  18  19
HETATM   19  C22 UNL     1      15.636  21.458   8.540  1.00  0.00    -0.009 C 
HETATM   20  C23 UNL     1      17.009  22.038   8.284  1.00  0.00     0.005 C 
HETATM   21  C24 UNL     1      18.102  21.051   8.491  1.00  0.00     0.000 C 
HETATM   22  C25 UNL     1      18.096  20.643   9.953  1.00  0.00     0.000 C 
HETATM   23  C26 UNL     1      16.801  19.928  10.210  1.00  0.00     0.000 C 
HETATM   24  C27 UNL     1      15.608  20.749   9.837  1.00  0.00     0.005 C 
ENDBRANCH  18  19
ENDBRANCH  17  18
BRANCH  17  25
HETATM   25  C28 UNL     1      16.123  20.860   4.940  1.00  0.00     0.172 C 
HETATM   26  C29 UNL     1      17.069  19.711   5.400  1.00  0.00     0.075 C 
HETATM   27  C30 UNL     1      17.380  19.076   4.021  1.00  0.00     0.182 A 
HETATM   28  O6  UNL     1      16.558  18.075   3.569  1.00  0.00    -0.348 OA
HETATM   29  C31 UNL     1      16.146  19.416   3.281  1.00  0.00     0.290 A 
HETATM   30  O7  UNL     1      15.252  19.926   4.207  1.00  0.00    -0.348 OA
ENDBRANCH  17  25
ENDBRANCH  15  17
ENDBRANCH   5  13
ENDBRANCH   3   5
BRANCH   1  31
HETATM   31  C10 UNL     1       9.931  26.436   7.073  1.00  0.00     0.162 C 
BRANCH  31  32
HETATM   32  N2  UNL     1       9.015  27.165   6.332  1.00  0.00    -0.378 NA
BRANCH  32  33
HETATM   33  C9  UNL     1       8.109  27.887   5.598  1.00  0.00     0.227 C 
BRANCH  33  34
HETATM   34  C8  UNL     1       6.640  27.943   5.771  1.00  0.00     0.058 A 
HETATM   35  C6  UNL     1       6.083  28.685   6.760  1.00  0.00     0.021 A 
HETATM   36  N1  UNL     1       4.727  28.711   6.863  1.00  0.00    -0.362 N 
HETATM   37  C7  UNL     1       6.875  29.538   7.733  1.00  0.00     0.069 C 
HETATM   38  C4  UNL     1       3.875  28.059   6.057  1.00  0.00     0.020 A 
ATOM     39  H1  UNL     1       4.325  29.272   7.615  1.00  0.00     0.165 HD
HETATM   40  C3  UNL     1       4.469  27.306   5.051  1.00  0.00     0.038 A 
HETATM   41  C5  UNL     1       2.423  28.156   6.203  1.00  0.00     0.069 C 
HETATM   42  C36 UNL     1       5.826  27.232   4.889  1.00  0.00    -0.029 A 
HETATM   43  C37 UNL     1       6.429  26.422   3.804  1.00  0.00     0.050 C 
BRANCH  40  44
HETATM   44  C2  UNL     1       3.593  26.578   4.135  1.00  0.00     0.158 C 
HETATM   45  C1  UNL     1       3.148  25.186   4.449  1.00  0.00     0.097 C 
HETATM   46  O1  UNL     1       3.192  27.091   3.064  1.00  0.00    -0.293 OA
ENDBRANCH  40  44
ENDBRANCH  33  34
BRANCH  33  47
HETATM   47  O2  UNL     1       8.422  28.661   4.587  1.00  0.00    -0.335 OA
ATOM     48  H2  UNL     1       9.365  28.627   4.478  1.00  0.00     0.220 HD
ENDBRANCH  33  47
ENDBRANCH  32  33
ENDBRANCH  31  32
BRANCH  31  49
HETATM   49  C32 UNL     1       9.711  26.376   8.576  1.00  0.00     0.010 C 
HETATM   50  C33 UNL     1      10.635  25.487   9.311  1.00  0.00     0.022 C 
HETATM   51  C34 UNL     1       9.873  27.800   9.147  1.00  0.00     0.022 C 
HETATM   52  C35 UNL     1       8.291  25.948   8.897  1.00  0.00     0.022 C 
ENDBRANCH  31  49
ENDBRANCH   1  31
TORSDOF 15
ENDMDL
