MODEL 1
REMARK VINA RESULT: -9.122374935      0.000      0.000
REMARK  17 active torsions:
REMARK  status: ('A' for Active; 'I' for Inactive)
REMARK    1  A    between atoms: C2_2  and  C3_3 
REMARK    2  A    between atoms: C3_3  and  O1_5 
REMARK    3  A    between atoms: O1_5  and  C5_6 
REMARK    4  A    between atoms: C8_9  and  C9_10 
REMARK    5  A    between atoms: C9_10  and  N1_11 
REMARK    6  A    between atoms: C9_10  and  C24_39 
REMARK    7  A    between atoms: N1_11  and  C10_13 
REMARK    8  A    between atoms: C10_13  and  O2_14 
REMARK    9  A    between atoms: C10_13  and  C11_16 
REMARK   10  A    between atoms: C11_16  and  N2_17 
REMARK   11  A    between atoms: C11_16  and  C20_35 
REMARK       I    between atoms: N2_17  and  C12_19 
REMARK   12  A    between atoms: C12_19  and  C13_21 
REMARK   13  A    between atoms: C15_25  and  C16_26 
REMARK   14  A    between atoms: C16_26  and  C17_27 
REMARK   15  A    between atoms: C17_27  and  N4_30 
REMARK   16  A    between atoms: C24_39  and  O4_40 
REMARK   17  A    between atoms: C24_39  and  C25_42 
REMARK       I    between atoms: C25_42  and  N5_44 
REMARK       I    between atoms: N6_47  and  C28_48 
ROOT
HETATM    1  N1  UNL     1      13.195  22.454   5.331  1.00  0.00    -0.362 N 
ATOM      2  H1  UNL     1      13.752  23.308   5.349  1.00  0.00     0.162 HD
ENDROOT
BRANCH   1   3
HETATM    3  C9  UNL     1      12.840  21.823   3.996  1.00  0.00     0.150 C 
BRANCH   3   4
HETATM    4  C8  UNL     1      11.829  22.645   3.365  1.00  0.00     0.015 C 
HETATM    5  C7  UNL     1      10.420  22.137   3.520  1.00  0.00     0.009 C 
HETATM    6  C6  UNL     1       9.482  22.879   2.573  1.00  0.00     0.032 C 
HETATM    7  C5  UNL     1       9.535  24.364   2.898  1.00  0.00     0.122 C 
HETATM    8  C33 UNL     1      10.961  24.842   2.807  1.00  0.00     0.032 C 
HETATM    9  C32 UNL     1      11.771  24.101   3.863  1.00  0.00     0.009 C 
BRANCH   7  10
HETATM   10  O1  UNL     1       8.709  25.027   2.012  1.00  0.00    -0.381 OA
BRANCH  10  11
HETATM   11  C3  UNL     1       7.392  24.855   2.446  1.00  0.00     0.117 C 
HETATM   12  C4  UNL     1       7.136  25.573   3.746  1.00  0.00     0.039 C 
BRANCH  11  13
HETATM   13  C2  UNL     1       6.478  25.483   1.393  1.00  0.00     0.027 C 
HETATM   14  C1  UNL     1       5.049  25.131   1.670  1.00  0.00     0.007 C 
ENDBRANCH  11  13
ENDBRANCH  10  11
ENDBRANCH   7  10
ENDBRANCH   3   4
BRANCH   3  15
HETATM   15  C24 UNL     1      14.195  21.700   3.405  1.00  0.00     0.134 C 
BRANCH  15  16
HETATM   16  O4  UNL     1      14.821  22.859   3.474  1.00  0.00    -0.358 OA
ATOM     17  H4  UNL     1      15.480  22.830   4.158  1.00  0.00     0.217 HD
ENDBRANCH  15  16
BRANCH  15  18
HETATM   18  C25 UNL     1      14.906  20.657   2.810  1.00  0.00     0.274 C 
HETATM   19  O5  UNL     1      14.653  20.197   1.640  1.00  0.00    -0.266 OA
HETATM   20  N5  UNL     1      15.999  19.983   3.439  1.00  0.00    -0.344 N 
HETATM   21  C26 UNL     1      16.490  20.319   4.734  1.00  0.00     0.146 C 
HETATM   22  C31 UNL     1      16.671  18.876   2.728  1.00  0.00     0.146 C 
HETATM   23  C27 UNL     1      17.704  19.497   5.170  1.00  0.00     0.145 C 
HETATM   24  N6  UNL     1      17.518  18.107   4.864  1.00  0.00    -0.349 N 
HETATM   25  C28 UNL     1      18.045  17.109   5.708  1.00  0.00     0.215 C 
HETATM   26  C30 UNL     1      16.779  17.690   3.671  1.00  0.00     0.145 C 
HETATM   27  C29 UNL     1      18.800  17.524   6.932  1.00  0.00     0.117 C 
HETATM   28  O6  UNL     1      17.885  15.883   5.437  1.00  0.00    -0.274 OA
ENDBRANCH  15  18
ENDBRANCH   3  15
ENDBRANCH   1   3
BRANCH   1  29
HETATM   29  C10 UNL     1      12.774  21.891   6.522  1.00  0.00     0.136 C 
BRANCH  29  30
HETATM   30  O2  UNL     1      12.047  20.800   6.388  1.00  0.00    -0.348 OA
ATOM     31  H2  UNL     1      12.545  20.010   6.210  1.00  0.00     0.219 HD
ENDBRANCH  29  30
BRANCH  29  32
HETATM   32  C11 UNL     1      12.981  22.267   7.913  1.00  0.00     0.166 C 
BRANCH  32  33
HETATM   33  N2  UNL     1      12.376  23.563   8.165  1.00  0.00    -0.344 N 
HETATM   34  C12 UNL     1      11.122  23.953   7.655  1.00  0.00     0.260 C 
HETATM   35  O3  UNL     1      10.475  23.165   6.936  1.00  0.00    -0.267 OA
ATOM     36  H2  UNL     1      12.888  24.229   8.745  1.00  0.00     0.163 HD
BRANCH  34  37
HETATM   37  C13 UNL     1      10.530  25.268   7.938  1.00  0.00     0.089 A 
HETATM   38  C14 UNL     1      10.512  25.959   9.122  1.00  0.00     0.113 A 
HETATM   39  N3  UNL     1       9.915  27.109   9.149  1.00  0.00    -0.362 N 
HETATM   40  C15 UNL     1       9.347  27.570   8.040  1.00  0.00     0.053 A 
ATOM     41  H3  UNL     1       9.882  27.653  10.012  1.00  0.00     0.165 HD
HETATM   42  S1  UNL     1       9.670  26.335   6.917  1.00  0.00    -0.070 SA
BRANCH  40  43
HETATM   43  C16 UNL     1       8.614  28.872   7.944  1.00  0.00     0.102 C 
BRANCH  43  44
HETATM   44  C17 UNL     1       7.191  28.668   7.493  1.00  0.00     0.122 C 
HETATM   45  C18 UNL     1       6.603  27.400   8.068  1.00  0.00     0.046 C 
HETATM   46  C19 UNL     1       6.397  29.837   8.095  1.00  0.00     0.046 C 
BRANCH  44  47
HETATM   47  N4  UNL     1       7.012  28.682   6.088  1.00  0.00    -0.071 N 
ATOM     48  H43 UNL     1       7.542  29.447   5.670  1.00  0.00     0.275 HD
ATOM     49  H42 UNL     1       7.488  27.886   5.661  1.00  0.00     0.275 HD
ATOM     50  H41 UNL     1       6.039  28.717   5.785  1.00  0.00     0.275 HD
ENDBRANCH  44  47
ENDBRANCH  43  44
ENDBRANCH  40  43
ENDBRANCH  34  37
ENDBRANCH  32  33
BRANCH  32  51
HETATM   51  C20 UNL     1      14.364  22.128   8.411  1.00  0.00    -0.023 C 
HETATM   52  C21 UNL     1      15.093  20.884   7.982  1.00  0.00     0.017 C 
HETATM   53  C22 UNL     1      14.254  22.038   9.954  1.00  0.00     0.017 C 
HETATM   54  C23 UNL     1      15.272  23.292   8.057  1.00  0.00     0.017 C 
ENDBRANCH  32  51
ENDBRANCH  29  32
ENDBRANCH   1  29
TORSDOF 17
ENDMDL
MODEL 2
REMARK VINA RESULT: -8.782903309      2.900     10.147
REMARK  17 active torsions:
REMARK  status: ('A' for Active; 'I' for Inactive)
REMARK    1  A    between atoms: C2_2  and  C3_3 
REMARK    2  A    between atoms: C3_3  and  O1_5 
REMARK    3  A    between atoms: O1_5  and  C5_6 
REMARK    4  A    between atoms: C8_9  and  C9_10 
REMARK    5  A    between atoms: C9_10  and  N1_11 
REMARK    6  A    between atoms: C9_10  and  C24_39 
REMARK    7  A    between atoms: N1_11  and  C10_13 
REMARK    8  A    between atoms: C10_13  and  O2_14 
REMARK    9  A    between atoms: C10_13  and  C11_16 
REMARK   10  A    between atoms: C11_16  and  N2_17 
REMARK   11  A    between atoms: C11_16  and  C20_35 
REMARK       I    between atoms: N2_17  and  C12_19 
REMARK   12  A    between atoms: C12_19  and  C13_21 
REMARK   13  A    between atoms: C15_25  and  C16_26 
REMARK   14  A    between atoms: C16_26  and  C17_27 
REMARK   15  A    between atoms: C17_27  and  N4_30 
REMARK   16  A    between atoms: C24_39  and  O4_40 
REMARK   17  A    between atoms: C24_39  and  C25_42 
REMARK       I    between atoms: C25_42  and  N5_44 
REMARK       I    between atoms: N6_47  and  C28_48 
ROOT
HETATM    1  N1  UNL     1      13.818  22.592   6.232  1.00  0.00    -0.362 N 
ATOM      2  H1  UNL     1      14.157  23.459   5.814  1.00  0.00     0.162 HD
ENDROOT
BRANCH   1   3
HETATM    3  C9  UNL     1      12.352  22.466   6.605  1.00  0.00     0.150 C 
BRANCH   3   4
HETATM    4  C8  UNL     1      11.976  23.646   7.356  1.00  0.00     0.015 C 
HETATM    5  C7  UNL     1      12.535  24.937   6.819  1.00  0.00     0.009 C 
HETATM    6  C6  UNL     1      12.351  26.058   7.837  1.00  0.00     0.032 C 
HETATM    7  C5  UNL     1      10.866  26.218   8.125  1.00  0.00     0.122 C 
HETATM    8  C33 UNL     1      10.308  24.899   8.595  1.00  0.00     0.032 C 
HETATM    9  C32 UNL     1      10.461  23.895   7.460  1.00  0.00     0.009 C 
BRANCH   7  10
HETATM   10  O1  UNL     1      10.718  27.211   9.073  1.00  0.00    -0.381 OA
BRANCH  10  11
HETATM   11  C3  UNL     1       9.362  27.544   9.134  1.00  0.00     0.117 C 
HETATM   12  C4  UNL     1       9.076  28.509  10.254  1.00  0.00     0.039 C 
BRANCH  11  13
HETATM   13  C2  UNL     1       9.007  28.250   7.824  1.00  0.00     0.027 C 
HETATM   14  C1  UNL     1       7.709  28.984   7.968  1.00  0.00     0.007 C 
ENDBRANCH  11  13
ENDBRANCH  10  11
ENDBRANCH   7  10
ENDBRANCH   3   4
BRANCH   3  15
HETATM   15  C24 UNL     1      11.770  22.204   5.266  1.00  0.00     0.134 C 
BRANCH  15  16
HETATM   16  O4  UNL     1      11.216  21.007   5.245  1.00  0.00    -0.358 OA
ATOM     17  H4  UNL     1      10.395  21.040   4.768  1.00  0.00     0.217 HD
ENDBRANCH  15  16
BRANCH  15  18
HETATM   18  C25 UNL     1      11.700  22.931   4.077  1.00  0.00     0.274 C 
HETATM   19  O5  UNL     1      12.715  23.187   3.337  1.00  0.00    -0.266 OA
HETATM   20  N5  UNL     1      10.486  23.470   3.547  1.00  0.00    -0.344 N 
HETATM   21  C26 UNL     1       9.215  23.305   4.170  1.00  0.00     0.146 C 
HETATM   22  C31 UNL     1      10.527  24.242   2.288  1.00  0.00     0.146 C 
HETATM   23  C27 UNL     1       8.055  23.921   3.385  1.00  0.00     0.145 C 
HETATM   24  N6  UNL     1       8.400  25.227   2.902  1.00  0.00    -0.349 N 
HETATM   25  C28 UNL     1       7.425  26.240   2.809  1.00  0.00     0.215 C 
HETATM   26  C30 UNL     1       9.770  25.542   2.494  1.00  0.00     0.145 C 
HETATM   27  C29 UNL     1       6.021  25.931   3.227  1.00  0.00     0.117 C 
HETATM   28  O6  UNL     1       7.727  27.392   2.380  1.00  0.00    -0.274 OA
ENDBRANCH  15  18
ENDBRANCH   3  15
ENDBRANCH   1   3
BRANCH   1  29
HETATM   29  C10 UNL     1      14.703  21.552   6.451  1.00  0.00     0.136 C 
BRANCH  29  30
HETATM   30  O2  UNL     1      14.222  20.355   6.180  1.00  0.00    -0.348 OA
ATOM     31  H2  UNL     1      13.571  20.041   6.796  1.00  0.00     0.219 HD
ENDBRANCH  29  30
BRANCH  29  32
HETATM   32  C11 UNL     1      16.080  21.517   6.922  1.00  0.00     0.166 C 
BRANCH  32  33
HETATM   33  N2  UNL     1      16.677  20.233   6.596  1.00  0.00    -0.344 N 
HETATM   34  C12 UNL     1      17.020  19.840   5.288  1.00  0.00     0.260 C 
HETATM   35  O3  UNL     1      16.803  20.613   4.333  1.00  0.00    -0.267 OA
ATOM     36  H2  UNL     1      16.858  19.580   7.359  1.00  0.00     0.163 HD
BRANCH  34  37
HETATM   37  C13 UNL     1      17.634  18.539   4.991  1.00  0.00     0.089 A 
HETATM   38  C14 UNL     1      17.836  17.949   3.769  1.00  0.00     0.113 A 
HETATM   39  N3  UNL     1      18.390  16.778   3.741  1.00  0.00    -0.362 N 
HETATM   40  C15 UNL     1      18.738  16.197   4.885  1.00  0.00     0.053 A 
ATOM     41  H3  UNL     1      18.557  16.307   2.851  1.00  0.00     0.165 HD
HETATM   42  S1  UNL     1      18.267  17.350   6.044  1.00  0.00    -0.070 SA
BRANCH  40  43
HETATM   43  C16 UNL     1      19.368  14.843   4.988  1.00  0.00     0.102 C 
BRANCH  43  44
HETATM   44  C17 UNL     1      20.860  14.947   5.172  1.00  0.00     0.122 C 
HETATM   45  C18 UNL     1      21.217  15.420   6.563  1.00  0.00     0.046 C 
HETATM   46  C19 UNL     1      21.390  13.511   5.044  1.00  0.00     0.046 C 
BRANCH  44  47
HETATM   47  N4  UNL     1      21.516  15.754   4.211  1.00  0.00    -0.071 N 
ATOM     48  H43 UNL     1      20.844  16.357   3.736  1.00  0.00     0.275 HD
ATOM     49  H42 UNL     1      22.090  16.460   4.673  1.00  0.00     0.275 HD
ATOM     50  H41 UNL     1      22.071  15.236   3.530  1.00  0.00     0.275 HD
ENDBRANCH  44  47
ENDBRANCH  43  44
ENDBRANCH  40  43
ENDBRANCH  34  37
ENDBRANCH  32  33
BRANCH  32  51
HETATM   51  C20 UNL     1      16.286  21.954   8.316  1.00  0.00    -0.023 C 
HETATM   52  C21 UNL     1      16.358  23.440   8.534  1.00  0.00     0.017 C 
HETATM   53  C22 UNL     1      17.674  21.403   8.735  1.00  0.00     0.017 C 
HETATM   54  C23 UNL     1      15.245  21.435   9.292  1.00  0.00     0.017 C 
ENDBRANCH  32  51
ENDBRANCH  29  32
ENDBRANCH   1  29
TORSDOF 17
ENDMDL
MODEL 3
REMARK VINA RESULT: -8.607496558      2.339      6.172
REMARK  17 active torsions:
REMARK  status: ('A' for Active; 'I' for Inactive)
REMARK    1  A    between atoms: C2_2  and  C3_3 
REMARK    2  A    between atoms: C3_3  and  O1_5 
REMARK    3  A    between atoms: O1_5  and  C5_6 
REMARK    4  A    between atoms: C8_9  and  C9_10 
REMARK    5  A    between atoms: C9_10  and  N1_11 
REMARK    6  A    between atoms: C9_10  and  C24_39 
REMARK    7  A    between atoms: N1_11  and  C10_13 
REMARK    8  A    between atoms: C10_13  and  O2_14 
REMARK    9  A    between atoms: C10_13  and  C11_16 
REMARK   10  A    between atoms: C11_16  and  N2_17 
REMARK   11  A    between atoms: C11_16  and  C20_35 
REMARK       I    between atoms: N2_17  and  C12_19 
REMARK   12  A    between atoms: C12_19  and  C13_21 
REMARK   13  A    between atoms: C15_25  and  C16_26 
REMARK   14  A    between atoms: C16_26  and  C17_27 
REMARK   15  A    between atoms: C17_27  and  N4_30 
REMARK   16  A    between atoms: C24_39  and  O4_40 
REMARK   17  A    between atoms: C24_39  and  C25_42 
REMARK       I    between atoms: C25_42  and  N5_44 
REMARK       I    between atoms: N6_47  and  C28_48 
ROOT
HETATM    1  N1  UNL     1      12.406  23.370   5.392  1.00  0.00    -0.362 N 
ATOM      2  H1  UNL     1      13.107  24.032   5.058  1.00  0.00     0.162 HD
ENDROOT
BRANCH   1   3
HETATM    3  C9  UNL     1      12.854  22.075   6.045  1.00  0.00     0.150 C 
BRANCH   3   4
HETATM    4  C8  UNL     1      13.470  21.248   5.029  1.00  0.00     0.015 C 
HETATM    5  C7  UNL     1      14.223  22.012   3.971  1.00  0.00     0.009 C 
HETATM    6  C6  UNL     1      14.559  21.097   2.796  1.00  0.00     0.032 C 
HETATM    7  C5  UNL     1      15.409  19.943   3.303  1.00  0.00     0.122 C 
HETATM    8  C33 UNL     1      14.672  19.232   4.410  1.00  0.00     0.032 C 
HETATM    9  C32 UNL     1      14.486  20.218   5.556  1.00  0.00     0.009 C 
BRANCH   7  10
HETATM   10  O1  UNL     1      15.675  19.106   2.238  1.00  0.00    -0.381 OA
BRANCH  10  11
HETATM   11  C3  UNL     1      16.515  18.087   2.695  1.00  0.00     0.117 C 
HETATM   12  C4  UNL     1      16.985  17.205   1.568  1.00  0.00     0.039 C 
BRANCH  11  13
HETATM   13  C2  UNL     1      17.753  18.752   3.299  1.00  0.00     0.027 C 
HETATM   14  C1  UNL     1      18.698  17.712   3.819  1.00  0.00     0.007 C 
ENDBRANCH  11  13
ENDBRANCH  10  11
ENDBRANCH   7  10
ENDBRANCH   3   4
BRANCH   3  15
HETATM   15  C24 UNL     1      13.656  22.619   7.168  1.00  0.00     0.134 C 
BRANCH  15  16
HETATM   16  O4  UNL     1      12.856  23.123   8.088  1.00  0.00    -0.358 OA
ATOM     17  H4  UNL     1      12.489  23.944   7.781  1.00  0.00     0.217 HD
ENDBRANCH  15  16
BRANCH  15  18
HETATM   18  C25 UNL     1      15.024  22.710   7.432  1.00  0.00     0.274 C 
HETATM   19  O5  UNL     1      15.803  23.561   6.874  1.00  0.00    -0.266 OA
HETATM   20  N5  UNL     1      15.710  21.863   8.358  1.00  0.00    -0.344 N 
HETATM   21  C26 UNL     1      15.064  20.849   9.124  1.00  0.00     0.146 C 
HETATM   22  C31 UNL     1      17.165  22.031   8.549  1.00  0.00     0.146 C 
HETATM   23  C27 UNL     1      15.995  20.113  10.089  1.00  0.00     0.145 C 
HETATM   24  N6  UNL     1      17.237  19.783   9.451  1.00  0.00    -0.349 N 
HETATM   25  C28 UNL     1      17.921  18.595   9.780  1.00  0.00     0.215 C 
HETATM   26  C30 UNL     1      17.826  20.667   8.444  1.00  0.00     0.145 C 
HETATM   27  C29 UNL     1      17.327  17.681  10.807  1.00  0.00     0.117 C 
HETATM   28  O6  UNL     1      19.018  18.304   9.221  1.00  0.00    -0.274 OA
ENDBRANCH  15  18
ENDBRANCH   3  15
ENDBRANCH   1   3
BRANCH   1  29
HETATM   29  C10 UNL     1      11.064  23.668   5.241  1.00  0.00     0.136 C 
BRANCH  29  30
HETATM   30  O2  UNL     1      10.283  23.183   6.186  1.00  0.00    -0.348 OA
ATOM     31  H2  UNL     1       9.664  23.806   6.548  1.00  0.00     0.219 HD
ENDBRANCH  29  30
BRANCH  29  32
HETATM   32  C11 UNL     1      10.334  24.425   4.235  1.00  0.00     0.166 C 
BRANCH  32  33
HETATM   33  N2  UNL     1       9.440  25.368   4.884  1.00  0.00    -0.344 N 
HETATM   34  C12 UNL     1       9.849  26.270   5.886  1.00  0.00     0.260 C 
HETATM   35  O3  UNL     1      11.038  26.276   6.265  1.00  0.00    -0.267 OA
ATOM     36  H2  UNL     1       8.461  25.378   4.598  1.00  0.00     0.163 HD
BRANCH  34  37
HETATM   37  C13 UNL     1       8.923  27.221   6.517  1.00  0.00     0.089 A 
HETATM   38  C14 UNL     1       8.948  27.717   7.795  1.00  0.00     0.113 A 
HETATM   39  N3  UNL     1       8.015  28.544   8.148  1.00  0.00    -0.362 N 
HETATM   40  C15 UNL     1       7.077  28.877   7.267  1.00  0.00     0.053 A 
ATOM     41  H3  UNL     1       8.000  28.934   9.091  1.00  0.00     0.165 HD
HETATM   42  S1  UNL     1       7.532  27.990   5.888  1.00  0.00    -0.070 SA
BRANCH  40  43
HETATM   43  C16 UNL     1       5.939  29.806   7.554  1.00  0.00     0.102 C 
BRANCH  43  44
HETATM   44  C17 UNL     1       4.624  29.211   7.122  1.00  0.00     0.122 C 
HETATM   45  C18 UNL     1       4.497  27.769   7.558  1.00  0.00     0.046 C 
HETATM   46  C19 UNL     1       3.547  29.999   7.881  1.00  0.00     0.046 C 
BRANCH  44  47
HETATM   47  N4  UNL     1       4.360  29.314   5.734  1.00  0.00    -0.071 N 
ATOM     48  H43 UNL     1       3.894  30.197   5.527  1.00  0.00     0.275 HD
ATOM     49  H42 UNL     1       5.229  29.449   5.217  1.00  0.00     0.275 HD
ATOM     50  H41 UNL     1       3.832  28.534   5.344  1.00  0.00     0.275 HD
ENDBRANCH  44  47
ENDBRANCH  43  44
ENDBRANCH  40  43
ENDBRANCH  34  37
ENDBRANCH  32  33
BRANCH  32  51
HETATM   51  C20 UNL     1       9.708  23.623   3.166  1.00  0.00    -0.023 C 
HETATM   52  C21 UNL     1       9.918  24.124   1.763  1.00  0.00     0.017 C 
HETATM   53  C22 UNL     1       8.179  23.702   3.413  1.00  0.00     0.017 C 
HETATM   54  C23 UNL     1      10.123  22.163   3.158  1.00  0.00     0.017 C 
ENDBRANCH  32  51
ENDBRANCH  29  32
ENDBRANCH   1  29
TORSDOF 17
ENDMDL
MODEL 4
REMARK VINA RESULT: -8.579724391      2.807      9.856
REMARK  17 active torsions:
REMARK  status: ('A' for Active; 'I' for Inactive)
REMARK    1  A    between atoms: C2_2  and  C3_3 
REMARK    2  A    between atoms: C3_3  and  O1_5 
REMARK    3  A    between atoms: O1_5  and  C5_6 
REMARK    4  A    between atoms: C8_9  and  C9_10 
REMARK    5  A    between atoms: C9_10  and  N1_11 
REMARK    6  A    between atoms: C9_10  and  C24_39 
REMARK    7  A    between atoms: N1_11  and  C10_13 
REMARK    8  A    between atoms: C10_13  and  O2_14 
REMARK    9  A    between atoms: C10_13  and  C11_16 
REMARK   10  A    between atoms: C11_16  and  N2_17 
REMARK   11  A    between atoms: C11_16  and  C20_35 
REMARK       I    between atoms: N2_17  and  C12_19 
REMARK   12  A    between atoms: C12_19  and  C13_21 
REMARK   13  A    between atoms: C15_25  and  C16_26 
REMARK   14  A    between atoms: C16_26  and  C17_27 
REMARK   15  A    between atoms: C17_27  and  N4_30 
REMARK   16  A    between atoms: C24_39  and  O4_40 
REMARK   17  A    between atoms: C24_39  and  C25_42 
REMARK       I    between atoms: C25_42  and  N5_44 
REMARK       I    between atoms: N6_47  and  C28_48 
ROOT
HETATM    1  N1  UNL     1      13.144  22.913   6.722  1.00  0.00    -0.362 N 
ATOM      2  H1  UNL     1      13.473  23.879   6.717  1.00  0.00     0.162 HD
ENDROOT
BRANCH   1   3
HETATM    3  C9  UNL     1      11.653  22.632   6.679  1.00  0.00     0.150 C 
BRANCH   3   4
HETATM    4  C8  UNL     1      10.982  23.642   7.471  1.00  0.00     0.015 C 
HETATM    5  C7  UNL     1      11.754  24.924   7.635  1.00  0.00     0.009 C 
HETATM    6  C6  UNL     1      11.121  25.787   8.723  1.00  0.00     0.032 C 
HETATM    7  C5  UNL     1       9.685  26.095   8.329  1.00  0.00     0.122 C 
HETATM    8  C33 UNL     1       8.945  24.802   8.100  1.00  0.00     0.032 C 
HETATM    9  C32 UNL     1       9.610  24.084   6.931  1.00  0.00     0.009 C 
BRANCH   7  10
HETATM   10  O1  UNL     1       9.115  26.845   9.338  1.00  0.00    -0.381 OA
BRANCH  10  11
HETATM   11  C3  UNL     1       9.200  28.191   8.969  1.00  0.00     0.117 C 
HETATM   12  C4  UNL     1       8.712  28.413   7.561  1.00  0.00     0.039 C 
BRANCH  11  13
HETATM   13  C2  UNL     1       8.276  28.979   9.900  1.00  0.00     0.027 C 
HETATM   14  C1  UNL     1       6.988  29.296   9.205  1.00  0.00     0.007 C 
ENDBRANCH  11  13
ENDBRANCH  10  11
ENDBRANCH   7  10
ENDBRANCH   3   4
BRANCH   3  15
HETATM   15  C24 UNL     1      11.449  22.560   5.212  1.00  0.00     0.134 C 
BRANCH  15  16
HETATM   16  O4  UNL     1      11.044  21.350   4.874  1.00  0.00    -0.358 OA
ATOM     17  H4  UNL     1      10.162  21.204   5.195  1.00  0.00     0.217 HD
ENDBRANCH  15  16
BRANCH  15  18
HETATM   18  C25 UNL     1      11.599  23.468   4.163  1.00  0.00     0.274 C 
HETATM   19  O5  UNL     1      12.689  24.094   3.912  1.00  0.00    -0.266 OA
HETATM   20  N5  UNL     1      10.553  23.802   3.248  1.00  0.00    -0.344 N 
HETATM   21  C26 UNL     1       9.249  23.227   3.299  1.00  0.00     0.146 C 
HETATM   22  C31 UNL     1      10.812  24.794   2.183  1.00  0.00     0.146 C 
HETATM   23  C27 UNL     1       8.319  23.697   2.179  1.00  0.00     0.145 C 
HETATM   24  N6  UNL     1       8.418  25.116   1.993  1.00  0.00    -0.349 N 
HETATM   25  C28 UNL     1       7.290  25.871   1.614  1.00  0.00     0.215 C 
HETATM   26  C30 UNL     1       9.689  25.815   2.190  1.00  0.00     0.145 C 
HETATM   27  C29 UNL     1       5.985  25.167   1.411  1.00  0.00     0.117 C 
HETATM   28  O6  UNL     1       7.377  27.123   1.445  1.00  0.00    -0.274 OA
ENDBRANCH  15  18
ENDBRANCH   3  15
ENDBRANCH   1   3
BRANCH   1  29
HETATM   29  C10 UNL     1      14.065  21.882   6.768  1.00  0.00     0.136 C 
BRANCH  29  30
HETATM   30  O2  UNL     1      13.593  20.705   6.407  1.00  0.00    -0.348 OA
ATOM     31  H2  UNL     1      13.502  20.080   7.117  1.00  0.00     0.219 HD
ENDBRANCH  29  30
BRANCH  29  32
HETATM   32  C11 UNL     1      15.473  21.839   7.136  1.00  0.00     0.166 C 
BRANCH  32  33
HETATM   33  N2  UNL     1      16.072  20.612   6.640  1.00  0.00    -0.344 N 
HETATM   34  C12 UNL     1      16.355  20.376   5.280  1.00  0.00     0.260 C 
HETATM   35  O3  UNL     1      16.079  21.246   4.430  1.00  0.00    -0.267 OA
ATOM     36  H2  UNL     1      16.301  19.882   7.313  1.00  0.00     0.163 HD
BRANCH  34  37
HETATM   37  C13 UNL     1      16.974  19.129   4.809  1.00  0.00     0.089 A 
HETATM   38  C14 UNL     1      16.419  18.139   4.038  1.00  0.00     0.113 A 
HETATM   39  N3  UNL     1      17.150  17.109   3.749  1.00  0.00    -0.362 N 
HETATM   40  C15 UNL     1      18.396  17.049   4.207  1.00  0.00     0.053 A 
ATOM     41  H3  UNL     1      16.772  16.352   3.177  1.00  0.00     0.165 HD
HETATM   42  S1  UNL     1      18.542  18.504   5.076  1.00  0.00    -0.070 SA
BRANCH  40  43
HETATM   43  C16 UNL     1      19.334  15.909   3.959  1.00  0.00     0.102 C 
BRANCH  43  44
HETATM   44  C17 UNL     1      19.827  15.314   5.252  1.00  0.00     0.122 C 
HETATM   45  C18 UNL     1      18.743  15.297   6.305  1.00  0.00     0.046 C 
HETATM   46  C19 UNL     1      20.156  13.848   4.932  1.00  0.00     0.046 C 
BRANCH  44  47
HETATM   47  N4  UNL     1      20.991  15.930   5.776  1.00  0.00    -0.071 N 
ATOM     48  H43 UNL     1      21.031  15.809   6.788  1.00  0.00     0.275 HD
ATOM     49  H42 UNL     1      21.823  15.405   5.504  1.00  0.00     0.275 HD
ATOM     50  H41 UNL     1      21.096  16.914   5.531  1.00  0.00     0.275 HD
ENDBRANCH  44  47
ENDBRANCH  43  44
ENDBRANCH  40  43
ENDBRANCH  34  37
ENDBRANCH  32  33
BRANCH  32  51
HETATM   51  C20 UNL     1      15.770  22.138   8.551  1.00  0.00    -0.023 C 
HETATM   52  C21 UNL     1      14.618  21.992   9.507  1.00  0.00     0.017 C 
HETATM   53  C22 UNL     1      16.164  23.636   8.596  1.00  0.00     0.017 C 
HETATM   54  C23 UNL     1      16.908  21.320   9.134  1.00  0.00     0.017 C 
ENDBRANCH  32  51
ENDBRANCH  29  32
ENDBRANCH   1  29
TORSDOF 17
ENDMDL
MODEL 5
REMARK VINA RESULT: -8.566190402      2.817     10.189
REMARK  17 active torsions:
REMARK  status: ('A' for Active; 'I' for Inactive)
REMARK    1  A    between atoms: C2_2  and  C3_3 
REMARK    2  A    between atoms: C3_3  and  O1_5 
REMARK    3  A    between atoms: O1_5  and  C5_6 
REMARK    4  A    between atoms: C8_9  and  C9_10 
REMARK    5  A    between atoms: C9_10  and  N1_11 
REMARK    6  A    between atoms: C9_10  and  C24_39 
REMARK    7  A    between atoms: N1_11  and  C10_13 
REMARK    8  A    between atoms: C10_13  and  O2_14 
REMARK    9  A    between atoms: C10_13  and  C11_16 
REMARK   10  A    between atoms: C11_16  and  N2_17 
REMARK   11  A    between atoms: C11_16  and  C20_35 
REMARK       I    between atoms: N2_17  and  C12_19 
REMARK   12  A    between atoms: C12_19  and  C13_21 
REMARK   13  A    between atoms: C15_25  and  C16_26 
REMARK   14  A    between atoms: C16_26  and  C17_27 
REMARK   15  A    between atoms: C17_27  and  N4_30 
REMARK   16  A    between atoms: C24_39  and  O4_40 
REMARK   17  A    between atoms: C24_39  and  C25_42 
REMARK       I    between atoms: C25_42  and  N5_44 
REMARK       I    between atoms: N6_47  and  C28_48 
ROOT
HETATM    1  N1  UNL     1      12.681  22.707   5.315  1.00  0.00    -0.362 N 
ATOM      2  H1  UNL     1      13.165  23.326   4.664  1.00  0.00     0.162 HD
ENDROOT
BRANCH   1   3
HETATM    3  C9  UNL     1      11.190  22.880   5.541  1.00  0.00     0.150 C 
BRANCH   3   4
HETATM    4  C8  UNL     1      11.005  23.850   6.600  1.00  0.00     0.015 C 
HETATM    5  C7  UNL     1      11.786  25.126   6.425  1.00  0.00     0.009 C 
HETATM    6  C6  UNL     1      11.775  25.935   7.719  1.00  0.00     0.032 C 
HETATM    7  C5  UNL     1      10.333  26.257   8.081  1.00  0.00     0.122 C 
HETATM    8  C33 UNL     1       9.549  24.974   8.183  1.00  0.00     0.032 C 
HETATM    9  C32 UNL     1       9.552  24.314   6.810  1.00  0.00     0.009 C 
BRANCH   7  10
HETATM   10  O1  UNL     1      10.336  26.958   9.271  1.00  0.00    -0.381 OA
BRANCH  10  11
HETATM   11  C3  UNL     1       9.135  27.669   9.351  1.00  0.00     0.117 C 
HETATM   12  C4  UNL     1       9.120  28.604  10.531  1.00  0.00     0.039 C 
BRANCH  11  13
HETATM   13  C2  UNL     1       9.028  28.526   8.089  1.00  0.00     0.027 C 
HETATM   14  C1  UNL     1       7.614  28.978   7.889  1.00  0.00     0.007 C 
ENDBRANCH  11  13
ENDBRANCH  10  11
ENDBRANCH   7  10
ENDBRANCH   3   4
BRANCH   3  15
HETATM   15  C24 UNL     1      10.755  23.180   4.155  1.00  0.00     0.134 C 
BRANCH  15  16
HETATM   16  O4  UNL     1      10.797  22.082   3.425  1.00  0.00    -0.358 OA
ATOM     17  H4  UNL     1      10.455  21.349   3.924  1.00  0.00     0.217 HD
ENDBRANCH  15  16
BRANCH  15  18
HETATM   18  C25 UNL     1      10.338  24.337   3.494  1.00  0.00     0.274 C 
HETATM   19  O5  UNL     1      11.141  25.225   3.037  1.00  0.00    -0.266 OA
HETATM   20  N5  UNL     1       8.967  24.660   3.252  1.00  0.00    -0.344 N 
HETATM   21  C26 UNL     1       7.880  23.824   3.643  1.00  0.00     0.146 C 
HETATM   22  C31 UNL     1       8.633  25.922   2.560  1.00  0.00     0.146 C 
HETATM   23  C27 UNL     1       6.508  24.353   3.223  1.00  0.00     0.145 C 
HETATM   24  N6  UNL     1       6.399  25.760   3.484  1.00  0.00    -0.349 N 
HETATM   25  C28 UNL     1       5.167  26.325   3.869  1.00  0.00     0.215 C 
HETATM   26  C30 UNL     1       7.560  26.642   3.359  1.00  0.00     0.145 C 
HETATM   27  C29 UNL     1       3.973  25.432   4.004  1.00  0.00     0.117 C 
HETATM   28  O6  UNL     1       5.069  27.567   4.097  1.00  0.00    -0.274 OA
ENDBRANCH  15  18
ENDBRANCH   3  15
ENDBRANCH   1   3
BRANCH   1  29
HETATM   29  C10 UNL     1      13.395  21.725   5.977  1.00  0.00     0.136 C 
BRANCH  29  30
HETATM   30  O2  UNL     1      12.796  20.552   6.032  1.00  0.00    -0.348 OA
ATOM     31  H2  UNL     1      12.121  20.420   5.377  1.00  0.00     0.219 HD
ENDBRANCH  29  30
BRANCH  29  32
HETATM   32  C11 UNL     1      14.696  21.729   6.631  1.00  0.00     0.166 C 
BRANCH  32  33
HETATM   33  N2  UNL     1      15.426  20.525   6.275  1.00  0.00    -0.344 N 
HETATM   34  C12 UNL     1      16.113  20.359   5.056  1.00  0.00     0.260 C 
HETATM   35  O3  UNL     1      16.104  21.276   4.211  1.00  0.00    -0.267 OA
ATOM     36  H2  UNL     1      15.444  19.756   6.946  1.00  0.00     0.163 HD
BRANCH  34  37
HETATM   37  C13 UNL     1      16.854  19.132   4.729  1.00  0.00     0.089 A 
HETATM   38  C14 UNL     1      16.435  18.051   3.998  1.00  0.00     0.113 A 
HETATM   39  N3  UNL     1      17.257  17.062   3.844  1.00  0.00    -0.362 N 
HETATM   40  C15 UNL     1      18.465  17.131   4.396  1.00  0.00     0.053 A 
ATOM     41  H3  UNL     1      16.982  16.240   3.306  1.00  0.00     0.165 HD
HETATM   42  S1  UNL     1      18.437  18.651   5.158  1.00  0.00    -0.070 SA
BRANCH  40  43
HETATM   43  C16 UNL     1      19.498  16.052   4.306  1.00  0.00     0.102 C 
BRANCH  43  44
HETATM   44  C17 UNL     1      19.832  15.498   5.667  1.00  0.00     0.122 C 
HETATM   45  C18 UNL     1      18.626  15.501   6.578  1.00  0.00     0.046 C 
HETATM   46  C19 UNL     1      20.205  14.027   5.432  1.00  0.00     0.046 C 
BRANCH  44  47
HETATM   47  N4  UNL     1      20.918  16.139   6.312  1.00  0.00    -0.071 N 
ATOM     48  H43 UNL     1      21.553  15.446   6.708  1.00  0.00     0.275 HD
ATOM     49  H42 UNL     1      21.536  16.569   5.623  1.00  0.00     0.275 HD
ATOM     50  H41 UNL     1      20.648  16.820   7.021  1.00  0.00     0.275 HD
ENDBRANCH  44  47
ENDBRANCH  43  44
ENDBRANCH  40  43
ENDBRANCH  34  37
ENDBRANCH  32  33
BRANCH  32  51
HETATM   51  C20 UNL     1      14.681  22.033   8.075  1.00  0.00    -0.023 C 
HETATM   52  C21 UNL     1      13.378  22.545   8.624  1.00  0.00     0.017 C 
HETATM   53  C22 UNL     1      15.701  23.184   8.278  1.00  0.00     0.017 C 
HETATM   54  C23 UNL     1      15.083  20.868   8.961  1.00  0.00     0.017 C 
ENDBRANCH  32  51
ENDBRANCH  29  32
ENDBRANCH   1  29
TORSDOF 17
ENDMDL
