MODEL 1
REMARK VINA RESULT: -9.275037371      0.000      0.000
REMARK  14 active torsions:
REMARK  status: ('A' for Active; 'I' for Inactive)
REMARK    1  A    between atoms: C2_2  and  C3_3 
REMARK    2  A    between atoms: C3_3  and  C4_4 
REMARK    3  A    between atoms: C4_4  and  C5_5 
REMARK    4  A    between atoms: C5_5  and  N1_6 
REMARK    5  A    between atoms: C5_5  and  C23_31 
REMARK       I    between atoms: N1_6  and  C6_8 
REMARK    6  A    between atoms: C6_8  and  C7_10 
REMARK    7  A    between atoms: C7_10  and  N2_11 
REMARK       I    between atoms: N2_11  and  C8_13 
REMARK    8  A    between atoms: C8_13  and  C9_15 
REMARK    9  A    between atoms: C13_19  and  N3_20 
REMARK   10  A    between atoms: C23_31  and  C24_33 
REMARK       I    between atoms: C24_33  and  N4_35 
REMARK   11  A    between atoms: N4_35  and  C25_37 
REMARK   12  A    between atoms: C29_42  and  O6_43 
REMARK   13  A    between atoms: O6_43  and  C30_44 
REMARK   14  A    between atoms: C30_44  and  C31_46 
ROOT
HETATM    1  N1  UNL     1      13.189  22.137   6.368  1.00  0.00    -0.347 N 
ATOM      2  H1  UNL     1      12.290  21.676   6.503  1.00  0.00     0.163 HD
HETATM    3  C6  UNL     1      13.116  23.299   5.607  1.00  0.00     0.247 C 
HETATM    4  O1  UNL     1      14.162  23.941   5.358  1.00  0.00    -0.271 OA
ENDROOT
BRANCH   1   5
HETATM    5  C5  UNL     1      14.270  21.474   6.987  1.00  0.00     0.164 C 
BRANCH   5   6
HETATM    6  C4  UNL     1      14.935  22.241   8.115  1.00  0.00     0.033 C 
BRANCH   6   7
HETATM    7  C3  UNL     1      14.616  21.785   9.483  1.00  0.00     0.002 C 
BRANCH   7   8
HETATM    8  C2  UNL     1      15.222  20.421   9.710  1.00  0.00    -0.004 C 
HETATM    9  C1  UNL     1      16.712  20.383   9.631  1.00  0.00     0.005 C 
ENDBRANCH   7   8
ENDBRANCH   6   7
ENDBRANCH   5   6
BRANCH   5  10
HETATM   10  C23 UNL     1      15.323  21.058   6.062  1.00  0.00     0.238 C 
HETATM   11  O3  UNL     1      16.429  21.704   6.100  1.00  0.00    -0.285 OA
BRANCH  10  12
HETATM   12  C24 UNL     1      15.256  19.981   5.091  1.00  0.00     0.290 C 
HETATM   13  O4  UNL     1      14.189  19.827   4.448  1.00  0.00    -0.264 OA
HETATM   14  N4  UNL     1      16.322  19.103   4.832  1.00  0.00    -0.345 N 
ATOM     15  H4  UNL     1      17.170  19.243   5.381  1.00  0.00     0.163 HD
BRANCH  14  16
HETATM   16  C25 UNL     1      16.346  18.033   3.882  1.00  0.00     0.145 C 
HETATM   17  C26 UNL     1      16.929  18.615   2.599  1.00  0.00     0.142 C 
HETATM   18  C27 UNL     1      16.940  17.621   1.467  1.00  0.00     0.042 C 
HETATM   19  O5  UNL     1      18.233  18.920   3.020  1.00  0.00    -0.382 OA
HETATM   20  C28 UNL     1      18.675  17.898   3.842  1.00  0.00     0.203 C 
HETATM   21  C29 UNL     1      17.504  17.048   4.201  1.00  0.00     0.180 C 
BRANCH  21  22
HETATM   22  O6  UNL     1      17.522  16.751   5.575  1.00  0.00    -0.311 OA
BRANCH  22  23
HETATM   23  C30 UNL     1      18.494  15.887   6.055  1.00  0.00     0.267 C 
HETATM   24  O7  UNL     1      18.945  15.021   5.240  1.00  0.00    -0.264 OA
BRANCH  23  25
HETATM   25  C31 UNL     1      19.047  15.881   7.412  1.00  0.00     0.037 C 
HETATM   26  C32 UNL     1      18.683  14.561   8.111  1.00  0.00     0.025 C 
HETATM   27  C33 UNL     1      20.580  15.869   7.374  1.00  0.00     0.025 C 
HETATM   28  C34 UNL     1      18.552  16.998   8.297  1.00  0.00     0.025 C 
ENDBRANCH  23  25
ENDBRANCH  22  23
ENDBRANCH  21  22
ENDBRANCH  14  16
ENDBRANCH  10  12
ENDBRANCH   5  10
ENDBRANCH   1   5
BRANCH   3  29
HETATM   29  C7  UNL     1      11.847  23.869   5.039  1.00  0.00     0.122 C 
HETATM   30  C18 UNL     1      10.919  22.702   4.857  1.00  0.00     0.042 C 
HETATM   31  C19 UNL     1      10.928  21.997   3.570  1.00  0.00     0.004 C 
HETATM   32  C20 UNL     1       9.557  22.228   2.912  1.00  0.00     0.010 C 
HETATM   33  C21 UNL     1       9.469  23.750   2.719  1.00  0.00     0.074 C 
HETATM   34  S1  UNL     1      11.135  24.319   2.375  1.00  0.00    -0.166 SA
HETATM   35  C22 UNL     1      12.075  24.716   3.834  1.00  0.00     0.115 C 
BRANCH  29  36
HETATM   36  N2  UNL     1      11.207  24.712   6.038  1.00  0.00    -0.342 N 
HETATM   37  C8  UNL     1      10.372  24.220   7.062  1.00  0.00     0.222 C 
HETATM   38  O2  UNL     1      10.163  22.985   7.120  1.00  0.00    -0.273 OA
ATOM     39  H2  UNL     1      11.372  25.718   5.996  1.00  0.00     0.163 HD
BRANCH  37  40
HETATM   40  C9  UNL     1       9.716  25.068   8.088  1.00  0.00     0.078 C 
HETATM   41  C10 UNL     1      10.699  25.480   9.169  1.00  0.00     0.014 C 
HETATM   42  C11 UNL     1      11.167  26.905   8.965  1.00  0.00     0.003 C 
HETATM   43  C12 UNL     1      10.124  27.938   9.222  1.00  0.00     0.036 C 
HETATM   44  C13 UNL     1       8.783  27.420   9.618  1.00  0.00     0.222 C 
HETATM   45  C16 UNL     1       8.062  26.892   8.417  1.00  0.00     0.036 C 
HETATM   46  C17 UNL     1       9.068  26.288   7.466  1.00  0.00     0.016 C 
BRANCH  44  47
HETATM   47  N3  UNL     1       8.069  28.498  10.279  1.00  0.00     0.084 N 
HETATM   48  C14 UNL     1       7.313  29.302   9.370  1.00  0.00     0.309 C 
HETATM   49  C15 UNL     1       8.915  29.272  11.148  1.00  0.00     0.309 C 
ENDBRANCH  44  47
ENDBRANCH  37  40
ENDBRANCH  29  36
ENDBRANCH   3  29
TORSDOF 14
ENDMDL
MODEL 2
REMARK VINA RESULT: -9.261835654      3.254      5.821
REMARK  14 active torsions:
REMARK  status: ('A' for Active; 'I' for Inactive)
REMARK    1  A    between atoms: C2_2  and  C3_3 
REMARK    2  A    between atoms: C3_3  and  C4_4 
REMARK    3  A    between atoms: C4_4  and  C5_5 
REMARK    4  A    between atoms: C5_5  and  N1_6 
REMARK    5  A    between atoms: C5_5  and  C23_31 
REMARK       I    between atoms: N1_6  and  C6_8 
REMARK    6  A    between atoms: C6_8  and  C7_10 
REMARK    7  A    between atoms: C7_10  and  N2_11 
REMARK       I    between atoms: N2_11  and  C8_13 
REMARK    8  A    between atoms: C8_13  and  C9_15 
REMARK    9  A    between atoms: C13_19  and  N3_20 
REMARK   10  A    between atoms: C23_31  and  C24_33 
REMARK       I    between atoms: C24_33  and  N4_35 
REMARK   11  A    between atoms: N4_35  and  C25_37 
REMARK   12  A    between atoms: C29_42  and  O6_43 
REMARK   13  A    between atoms: O6_43  and  C30_44 
REMARK   14  A    between atoms: C30_44  and  C31_46 
ROOT
HETATM    1  N1  UNL     1       9.340  24.811   6.813  1.00  0.00    -0.347 N 
ATOM      2  H1  UNL     1       8.464  24.301   6.923  1.00  0.00     0.163 HD
HETATM    3  C6  UNL     1       9.377  25.629   5.688  1.00  0.00     0.247 C 
HETATM    4  O1  UNL     1      10.412  26.290   5.439  1.00  0.00    -0.271 OA
ENDROOT
BRANCH   1   5
HETATM    5  C5  UNL     1      10.283  24.553   7.831  1.00  0.00     0.164 C 
BRANCH   5   6
HETATM    6  C4  UNL     1      10.525  25.702   8.791  1.00  0.00     0.033 C 
BRANCH   6   7
HETATM    7  C3  UNL     1       9.321  26.422   9.254  1.00  0.00     0.002 C 
BRANCH   7   8
HETATM    8  C2  UNL     1       9.693  27.840   9.613  1.00  0.00    -0.004 C 
HETATM    9  C1  UNL     1       8.536  28.720   9.951  1.00  0.00     0.005 C 
ENDBRANCH   7   8
ENDBRANCH   6   7
ENDBRANCH   5   6
BRANCH   5  10
HETATM   10  C23 UNL     1      11.588  24.114   7.337  1.00  0.00     0.238 C 
HETATM   11  O3  UNL     1      12.593  24.873   7.577  1.00  0.00    -0.285 OA
BRANCH  10  12
HETATM   12  C24 UNL     1      11.877  22.902   6.594  1.00  0.00     0.290 C 
HETATM   13  O4  UNL     1      11.095  21.928   6.718  1.00  0.00    -0.264 OA
HETATM   14  N4  UNL     1      12.987  22.760   5.743  1.00  0.00    -0.345 N 
ATOM     15  H4  UNL     1      13.613  23.562   5.675  1.00  0.00     0.163 HD
BRANCH  14  16
HETATM   16  C25 UNL     1      13.333  21.612   4.963  1.00  0.00     0.145 C 
HETATM   17  C26 UNL     1      13.799  22.140   3.610  1.00  0.00     0.142 C 
HETATM   18  C27 UNL     1      14.121  21.036   2.639  1.00  0.00     0.042 C 
HETATM   19  O5  UNL     1      14.958  22.838   3.988  1.00  0.00    -0.382 OA
HETATM   20  C28 UNL     1      15.615  22.098   4.955  1.00  0.00     0.203 C 
HETATM   21  C29 UNL     1      14.694  21.026   5.430  1.00  0.00     0.180 C 
BRANCH  21  22
HETATM   22  O6  UNL     1      14.729  20.943   6.833  1.00  0.00    -0.311 OA
BRANCH  22  23
HETATM   23  C30 UNL     1      15.961  20.882   7.464  1.00  0.00     0.267 C 
HETATM   24  O7  UNL     1      16.857  20.172   6.906  1.00  0.00    -0.264 OA
BRANCH  23  25
HETATM   25  C31 UNL     1      16.324  21.557   8.713  1.00  0.00     0.037 C 
HETATM   26  C32 UNL     1      16.335  23.078   8.492  1.00  0.00     0.025 C 
HETATM   27  C33 UNL     1      15.243  21.345   9.779  1.00  0.00     0.025 C 
HETATM   28  C34 UNL     1      17.680  21.182   9.258  1.00  0.00     0.025 C 
ENDBRANCH  23  25
ENDBRANCH  22  23
ENDBRANCH  21  22
ENDBRANCH  14  16
ENDBRANCH  10  12
ENDBRANCH   5  10
ENDBRANCH   1   5
BRANCH   3  29
HETATM   29  C7  UNL     1       8.246  25.791   4.713  1.00  0.00     0.122 C 
HETATM   30  C18 UNL     1       8.129  24.475   3.998  1.00  0.00     0.042 C 
HETATM   31  C19 UNL     1       8.890  24.285   2.758  1.00  0.00     0.004 C 
HETATM   32  C20 UNL     1       7.872  24.144   1.613  1.00  0.00     0.010 C 
HETATM   33  C21 UNL     1       7.108  25.477   1.606  1.00  0.00     0.074 C 
HETATM   34  S1  UNL     1       8.283  26.743   2.087  1.00  0.00    -0.166 SA
HETATM   35  C22 UNL     1       8.389  26.995   3.846  1.00  0.00     0.115 C 
BRANCH  29  36
HETATM   36  N2  UNL     1       6.996  25.938   5.445  1.00  0.00    -0.342 N 
HETATM   37  C8  UNL     1       6.754  26.957   6.389  1.00  0.00     0.222 C 
HETATM   38  O2  UNL     1       7.665  27.786   6.619  1.00  0.00    -0.273 OA
ATOM     39  H2  UNL     1       6.251  25.266   5.263  1.00  0.00     0.163 HD
BRANCH  37  40
HETATM   40  C9  UNL     1       5.484  27.119   7.139  1.00  0.00     0.078 C 
HETATM   41  C10 UNL     1       5.415  28.477   7.813  1.00  0.00     0.014 C 
HETATM   42  C11 UNL     1       4.532  29.428   7.034  1.00  0.00     0.003 C 
HETATM   43  C12 UNL     1       3.080  29.095   7.078  1.00  0.00     0.036 C 
HETATM   44  C13 UNL     1       2.718  27.878   7.859  1.00  0.00     0.222 C 
HETATM   45  C16 UNL     1       3.046  26.648   7.071  1.00  0.00     0.036 C 
HETATM   46  C17 UNL     1       4.280  26.909   6.242  1.00  0.00     0.016 C 
BRANCH  44  47
HETATM   47  N3  UNL     1       1.311  27.973   8.202  1.00  0.00     0.084 N 
HETATM   48  C14 UNL     1       0.531  26.911   7.646  1.00  0.00     0.309 C 
HETATM   49  C15 UNL     1       0.762  29.276   7.936  1.00  0.00     0.309 C 
ENDBRANCH  44  47
ENDBRANCH  37  40
ENDBRANCH  29  36
ENDBRANCH   3  29
TORSDOF 14
ENDMDL
MODEL 3
REMARK VINA RESULT: -9.192983312      0.944      1.231
REMARK  14 active torsions:
REMARK  status: ('A' for Active; 'I' for Inactive)
REMARK    1  A    between atoms: C2_2  and  C3_3 
REMARK    2  A    between atoms: C3_3  and  C4_4 
REMARK    3  A    between atoms: C4_4  and  C5_5 
REMARK    4  A    between atoms: C5_5  and  N1_6 
REMARK    5  A    between atoms: C5_5  and  C23_31 
REMARK       I    between atoms: N1_6  and  C6_8 
REMARK    6  A    between atoms: C6_8  and  C7_10 
REMARK    7  A    between atoms: C7_10  and  N2_11 
REMARK       I    between atoms: N2_11  and  C8_13 
REMARK    8  A    between atoms: C8_13  and  C9_15 
REMARK    9  A    between atoms: C13_19  and  N3_20 
REMARK   10  A    between atoms: C23_31  and  C24_33 
REMARK       I    between atoms: C24_33  and  N4_35 
REMARK   11  A    between atoms: N4_35  and  C25_37 
REMARK   12  A    between atoms: C29_42  and  O6_43 
REMARK   13  A    between atoms: O6_43  and  C30_44 
REMARK   14  A    between atoms: C30_44  and  C31_46 
ROOT
HETATM    1  N1  UNL     1      13.131  22.393   5.856  1.00  0.00    -0.347 N 
ATOM      2  H1  UNL     1      13.493  23.309   5.592  1.00  0.00     0.163 HD
HETATM    3  C6  UNL     1      11.789  22.208   5.543  1.00  0.00     0.247 C 
HETATM    4  O1  UNL     1      11.229  21.127   5.838  1.00  0.00    -0.271 OA
ENDROOT
BRANCH   1   5
HETATM    5  C5  UNL     1      14.087  21.556   6.469  1.00  0.00     0.164 C 
BRANCH   5   6
HETATM    6  C4  UNL     1      14.683  22.094   7.757  1.00  0.00     0.033 C 
BRANCH   6   7
HETATM    7  C3  UNL     1      13.766  22.167   8.913  1.00  0.00     0.002 C 
BRANCH   7   8
HETATM    8  C2  UNL     1      14.427  21.539  10.116  1.00  0.00    -0.004 C 
HETATM    9  C1  UNL     1      15.530  20.587   9.792  1.00  0.00     0.005 C 
ENDBRANCH   7   8
ENDBRANCH   6   7
ENDBRANCH   5   6
BRANCH   5  10
HETATM   10  C23 UNL     1      15.199  21.182   5.596  1.00  0.00     0.238 C 
HETATM   11  O3  UNL     1      16.256  21.905   5.648  1.00  0.00    -0.285 OA
BRANCH  10  12
HETATM   12  C24 UNL     1      15.241  20.071   4.663  1.00  0.00     0.290 C 
HETATM   13  O4  UNL     1      14.374  20.023   3.758  1.00  0.00    -0.264 OA
HETATM   14  N4  UNL     1      16.201  19.047   4.721  1.00  0.00    -0.345 N 
ATOM     15  H4  UNL     1      16.883  19.104   5.477  1.00  0.00     0.163 HD
BRANCH  14  16
HETATM   16  C25 UNL     1      16.325  17.931   3.834  1.00  0.00     0.145 C 
HETATM   17  C26 UNL     1      16.973  18.468   2.561  1.00  0.00     0.142 C 
HETATM   18  C27 UNL     1      17.094  17.418   1.488  1.00  0.00     0.042 C 
HETATM   19  O5  UNL     1      18.235  18.842   3.050  1.00  0.00    -0.382 OA
HETATM   20  C28 UNL     1      18.655  17.881   3.953  1.00  0.00     0.203 C 
HETATM   21  C29 UNL     1      17.492  17.007   4.279  1.00  0.00     0.180 C 
BRANCH  21  22
HETATM   22  O6  UNL     1      17.427  16.783   5.666  1.00  0.00    -0.311 OA
BRANCH  22  23
HETATM   23  C30 UNL     1      18.613  16.652   6.373  1.00  0.00     0.267 C 
HETATM   24  O7  UNL     1      19.102  17.714   6.873  1.00  0.00    -0.264 OA
BRANCH  23  25
HETATM   25  C31 UNL     1      19.350  15.406   6.595  1.00  0.00     0.037 C 
HETATM   26  C32 UNL     1      19.267  14.525   5.337  1.00  0.00     0.025 C 
HETATM   27  C33 UNL     1      20.850  15.684   6.753  1.00  0.00     0.025 C 
HETATM   28  C34 UNL     1      18.846  14.574   7.748  1.00  0.00     0.025 C 
ENDBRANCH  23  25
ENDBRANCH  22  23
ENDBRANCH  21  22
ENDBRANCH  14  16
ENDBRANCH  10  12
ENDBRANCH   5  10
ENDBRANCH   1   5
BRANCH   3  29
HETATM   29  C7  UNL     1      10.923  23.228   4.860  1.00  0.00     0.122 C 
HETATM   30  C18 UNL     1       9.923  22.445   4.056  1.00  0.00     0.042 C 
HETATM   31  C19 UNL     1      10.255  22.108   2.667  1.00  0.00     0.004 C 
HETATM   32  C20 UNL     1       9.266  22.864   1.764  1.00  0.00     0.010 C 
HETATM   33  C21 UNL     1       9.525  24.350   2.060  1.00  0.00     0.074 C 
HETATM   34  S1  UNL     1      11.278  24.506   2.401  1.00  0.00    -0.166 SA
HETATM   35  C22 UNL     1      11.704  24.253   4.111  1.00  0.00     0.115 C 
BRANCH  29  36
HETATM   36  N2  UNL     1      10.135  23.938   5.858  1.00  0.00    -0.342 N 
HETATM   37  C8  UNL     1      10.695  24.672   6.923  1.00  0.00     0.222 C 
HETATM   38  O2  UNL     1      11.944  24.720   7.024  1.00  0.00    -0.273 OA
ATOM     39  H2  UNL     1       9.118  23.903   5.782  1.00  0.00     0.163 HD
BRANCH  37  40
HETATM   40  C9  UNL     1       9.904  25.402   7.945  1.00  0.00     0.078 C 
HETATM   41  C10 UNL     1      10.726  25.660   9.194  1.00  0.00     0.014 C 
HETATM   42  C11 UNL     1      11.222  27.089   9.235  1.00  0.00     0.003 C 
HETATM   43  C12 UNL     1      10.157  28.104   9.470  1.00  0.00     0.036 C 
HETATM   44  C13 UNL     1       8.772  27.569   9.609  1.00  0.00     0.222 C 
HETATM   45  C16 UNL     1       8.226  27.206   8.263  1.00  0.00     0.036 C 
HETATM   46  C17 UNL     1       9.353  26.702   7.394  1.00  0.00     0.016 C 
BRANCH  44  47
HETATM   47  N3  UNL     1       7.976  28.572  10.293  1.00  0.00     0.084 N 
HETATM   48  C14 UNL     1       7.197  29.368   9.395  1.00  0.00     0.309 C 
HETATM   49  C15 UNL     1       8.748  29.356  11.219  1.00  0.00     0.309 C 
ENDBRANCH  44  47
ENDBRANCH  37  40
ENDBRANCH  29  36
ENDBRANCH   3  29
TORSDOF 14
ENDMDL
MODEL 4
REMARK VINA RESULT: -8.900003913      3.445     11.325
REMARK  14 active torsions:
REMARK  status: ('A' for Active; 'I' for Inactive)
REMARK    1  A    between atoms: C2_2  and  C3_3 
REMARK    2  A    between atoms: C3_3  and  C4_4 
REMARK    3  A    between atoms: C4_4  and  C5_5 
REMARK    4  A    between atoms: C5_5  and  N1_6 
REMARK    5  A    between atoms: C5_5  and  C23_31 
REMARK       I    between atoms: N1_6  and  C6_8 
REMARK    6  A    between atoms: C6_8  and  C7_10 
REMARK    7  A    between atoms: C7_10  and  N2_11 
REMARK       I    between atoms: N2_11  and  C8_13 
REMARK    8  A    between atoms: C8_13  and  C9_15 
REMARK    9  A    between atoms: C13_19  and  N3_20 
REMARK   10  A    between atoms: C23_31  and  C24_33 
REMARK       I    between atoms: C24_33  and  N4_35 
REMARK   11  A    between atoms: N4_35  and  C25_37 
REMARK   12  A    between atoms: C29_42  and  O6_43 
REMARK   13  A    between atoms: O6_43  and  C30_44 
REMARK   14  A    between atoms: C30_44  and  C31_46 
ROOT
HETATM    1  N1  UNL     1      10.268  25.830   6.198  1.00  0.00    -0.347 N 
ATOM      2  H1  UNL     1       9.390  25.313   6.150  1.00  0.00     0.163 HD
HETATM    3  C6  UNL     1      11.173  25.495   5.196  1.00  0.00     0.247 C 
HETATM    4  O1  UNL     1      12.294  26.053   5.165  1.00  0.00    -0.271 OA
ENDROOT
BRANCH   1   5
HETATM    5  C5  UNL     1      10.332  26.749   7.268  1.00  0.00     0.164 C 
BRANCH   5   6
HETATM    6  C4  UNL     1      10.888  26.190   8.564  1.00  0.00     0.033 C 
BRANCH   6   7
HETATM    7  C3  UNL     1      10.982  24.718   8.646  1.00  0.00     0.002 C 
BRANCH   7   8
HETATM    8  C2  UNL     1      12.376  24.283   8.263  1.00  0.00    -0.004 C 
HETATM    9  C1  UNL     1      12.488  22.855   7.843  1.00  0.00     0.005 C 
ENDBRANCH   7   8
ENDBRANCH   6   7
ENDBRANCH   5   6
BRANCH   5  10
HETATM   10  C23 UNL     1       9.056  27.390   7.580  1.00  0.00     0.238 C 
HETATM   11  O3  UNL     1       9.076  28.644   7.843  1.00  0.00    -0.285 OA
BRANCH  10  12
HETATM   12  C24 UNL     1       7.750  26.757   7.628  1.00  0.00     0.290 C 
HETATM   13  O4  UNL     1       7.652  25.640   8.190  1.00  0.00    -0.264 OA
HETATM   14  N4  UNL     1       6.591  27.330   7.079  1.00  0.00    -0.345 N 
ATOM     15  H4  UNL     1       6.705  28.232   6.615  1.00  0.00     0.163 HD
BRANCH  14  16
HETATM   16  C25 UNL     1       5.268  26.786   7.099  1.00  0.00     0.145 C 
HETATM   17  C26 UNL     1       4.346  27.922   7.531  1.00  0.00     0.142 C 
HETATM   18  C27 UNL     1       2.915  27.478   7.684  1.00  0.00     0.042 C 
HETATM   19  O5  UNL     1       4.492  28.802   6.447  1.00  0.00    -0.382 OA
HETATM   20  C28 UNL     1       4.537  28.055   5.283  1.00  0.00     0.203 C 
HETATM   21  C29 UNL     1       4.723  26.623   5.654  1.00  0.00     0.180 C 
BRANCH  21  22
HETATM   22  O6  UNL     1       5.699  26.032   4.833  1.00  0.00    -0.311 OA
BRANCH  22  23
HETATM   23  C30 UNL     1       5.486  26.002   3.464  1.00  0.00     0.267 C 
HETATM   24  O7  UNL     1       6.201  26.779   2.754  1.00  0.00    -0.264 OA
BRANCH  23  25
HETATM   25  C31 UNL     1       4.514  25.160   2.762  1.00  0.00     0.037 C 
HETATM   26  C32 UNL     1       3.193  25.928   2.592  1.00  0.00     0.025 C 
HETATM   27  C33 UNL     1       4.971  24.886   1.324  1.00  0.00     0.025 C 
HETATM   28  C34 UNL     1       4.182  23.866   3.463  1.00  0.00     0.025 C 
ENDBRANCH  23  25
ENDBRANCH  22  23
ENDBRANCH  21  22
ENDBRANCH  14  16
ENDBRANCH  10  12
ENDBRANCH   5  10
ENDBRANCH   1   5
BRANCH   3  29
HETATM   29  C7  UNL     1      10.913  24.488   4.113  1.00  0.00     0.122 C 
HETATM   30  C18 UNL     1      10.664  25.284   2.863  1.00  0.00     0.042 C 
HETATM   31  C19 UNL     1       9.284  25.668   2.544  1.00  0.00     0.004 C 
HETATM   32  C20 UNL     1       8.891  24.929   1.252  1.00  0.00     0.010 C 
HETATM   33  C21 UNL     1       8.992  23.438   1.611  1.00  0.00     0.074 C 
HETATM   34  S1  UNL     1       8.511  23.292   3.332  1.00  0.00    -0.166 SA
HETATM   35  C22 UNL     1       9.861  23.496   4.475  1.00  0.00     0.115 C 
BRANCH  29  36
HETATM   36  N2  UNL     1      12.133  23.738   3.849  1.00  0.00    -0.342 N 
HETATM   37  C8  UNL     1      12.311  22.382   4.191  1.00  0.00     0.222 C 
HETATM   38  O2  UNL     1      11.369  21.781   4.758  1.00  0.00    -0.273 OA
ATOM     39  H2  UNL     1      12.904  24.222   3.389  1.00  0.00     0.163 HD
BRANCH  37  40
HETATM   40  C9  UNL     1      13.548  21.607   3.926  1.00  0.00     0.078 C 
HETATM   41  C10 UNL     1      14.779  22.488   4.026  1.00  0.00     0.014 C 
HETATM   42  C11 UNL     1      15.492  22.280   5.345  1.00  0.00     0.003 C 
HETATM   43  C12 UNL     1      16.166  20.958   5.479  1.00  0.00     0.036 C 
HETATM   44  C13 UNL     1      16.025  20.038   4.315  1.00  0.00     0.222 C 
HETATM   45  C16 UNL     1      14.661  19.420   4.314  1.00  0.00     0.036 C 
HETATM   46  C17 UNL     1      13.668  20.418   4.859  1.00  0.00     0.016 C 
BRANCH  44  47
HETATM   47  N3  UNL     1      17.092  19.056   4.393  1.00  0.00     0.084 N 
HETATM   48  C14 UNL     1      16.634  17.720   4.169  1.00  0.00     0.309 C 
HETATM   49  C15 UNL     1      17.882  19.191   5.587  1.00  0.00     0.309 C 
ENDBRANCH  44  47
ENDBRANCH  37  40
ENDBRANCH  29  36
ENDBRANCH   3  29
TORSDOF 14
ENDMDL
MODEL 5
REMARK VINA RESULT: -8.887199940      3.132      5.884
REMARK  14 active torsions:
REMARK  status: ('A' for Active; 'I' for Inactive)
REMARK    1  A    between atoms: C2_2  and  C3_3 
REMARK    2  A    between atoms: C3_3  and  C4_4 
REMARK    3  A    between atoms: C4_4  and  C5_5 
REMARK    4  A    between atoms: C5_5  and  N1_6 
REMARK    5  A    between atoms: C5_5  and  C23_31 
REMARK       I    between atoms: N1_6  and  C6_8 
REMARK    6  A    between atoms: C6_8  and  C7_10 
REMARK    7  A    between atoms: C7_10  and  N2_11 
REMARK       I    between atoms: N2_11  and  C8_13 
REMARK    8  A    between atoms: C8_13  and  C9_15 
REMARK    9  A    between atoms: C13_19  and  N3_20 
REMARK   10  A    between atoms: C23_31  and  C24_33 
REMARK       I    between atoms: C24_33  and  N4_35 
REMARK   11  A    between atoms: N4_35  and  C25_37 
REMARK   12  A    between atoms: C29_42  and  O6_43 
REMARK   13  A    between atoms: O6_43  and  C30_44 
REMARK   14  A    between atoms: C30_44  and  C31_46 
ROOT
HETATM    1  N1  UNL     1       9.244  24.356   6.378  1.00  0.00    -0.347 N 
ATOM      2  H1  UNL     1       8.363  23.843   6.408  1.00  0.00     0.163 HD
HETATM    3  C6  UNL     1       9.278  25.358   5.414  1.00  0.00     0.247 C 
HETATM    4  O1  UNL     1      10.318  26.043   5.272  1.00  0.00    -0.271 OA
ENDROOT
BRANCH   1   5
HETATM    5  C5  UNL     1      10.194  23.914   7.323  1.00  0.00     0.164 C 
BRANCH   5   6
HETATM    6  C4  UNL     1      11.042  25.008   7.944  1.00  0.00     0.033 C 
BRANCH   6   7
HETATM    7  C3  UNL     1      10.484  25.654   9.149  1.00  0.00     0.002 C 
BRANCH   7   8
HETATM    8  C2  UNL     1      10.326  27.134   8.896  1.00  0.00    -0.004 C 
HETATM    9  C1  UNL     1       9.212  27.778   9.652  1.00  0.00     0.005 C 
ENDBRANCH   7   8
ENDBRANCH   6   7
ENDBRANCH   5   6
BRANCH   5  10
HETATM   10  C23 UNL     1      11.106  22.889   6.816  1.00  0.00     0.238 C 
HETATM   11  O3  UNL     1      10.624  21.717   6.622  1.00  0.00    -0.285 OA
BRANCH  10  12
HETATM   12  C24 UNL     1      12.514  23.051   6.504  1.00  0.00     0.290 C 
HETATM   13  O4  UNL     1      12.828  23.783   5.535  1.00  0.00    -0.264 OA
HETATM   14  N4  UNL     1      13.545  22.430   7.230  1.00  0.00    -0.345 N 
ATOM     15  H4  UNL     1      13.259  21.828   8.002  1.00  0.00     0.163 HD
BRANCH  14  16
HETATM   16  C25 UNL     1      14.952  22.550   7.002  1.00  0.00     0.145 C 
HETATM   17  C26 UNL     1      15.587  22.780   8.370  1.00  0.00     0.142 C 
HETATM   18  C27 UNL     1      17.073  23.013   8.286  1.00  0.00     0.042 C 
HETATM   19  O5  UNL     1      15.300  21.557   8.999  1.00  0.00    -0.382 OA
HETATM   20  C28 UNL     1      15.467  20.542   8.073  1.00  0.00     0.203 C 
HETATM   21  C29 UNL     1      15.580  21.158   6.720  1.00  0.00     0.180 C 
BRANCH  21  22
HETATM   22  O6  UNL     1      14.790  20.450   5.797  1.00  0.00    -0.311 OA
BRANCH  22  23
HETATM   23  C30 UNL     1      15.177  20.435   4.466  1.00  0.00     0.267 C 
HETATM   24  O7  UNL     1      14.905  21.470   3.778  1.00  0.00    -0.264 OA
BRANCH  23  25
HETATM   25  C31 UNL     1      15.868  19.340   3.782  1.00  0.00     0.037 C 
HETATM   26  C32 UNL     1      15.221  17.999   4.170  1.00  0.00     0.025 C 
HETATM   27  C33 UNL     1      15.657  19.427   2.266  1.00  0.00     0.025 C 
HETATM   28  C34 UNL     1      17.338  19.227   4.102  1.00  0.00     0.025 C 
ENDBRANCH  23  25
ENDBRANCH  22  23
ENDBRANCH  21  22
ENDBRANCH  14  16
ENDBRANCH  10  12
ENDBRANCH   5  10
ENDBRANCH   1   5
BRANCH   3  29
HETATM   29  C7  UNL     1       8.139  25.701   4.497  1.00  0.00     0.122 C 
HETATM   30  C18 UNL     1       7.891  24.468   3.673  1.00  0.00     0.042 C 
HETATM   31  C19 UNL     1       8.599  24.330   2.396  1.00  0.00     0.004 C 
HETATM   32  C20 UNL     1       7.542  24.377   1.279  1.00  0.00     0.010 C 
HETATM   33  C21 UNL     1       6.893  25.764   1.416  1.00  0.00     0.074 C 
HETATM   34  S1  UNL     1       8.185  26.881   1.965  1.00  0.00    -0.166 SA
HETATM   35  C22 UNL     1       8.359  26.962   3.735  1.00  0.00     0.115 C 
BRANCH  29  36
HETATM   36  N2  UNL     1       6.926  25.883   5.282  1.00  0.00    -0.342 N 
HETATM   37  C8  UNL     1       6.751  26.913   6.228  1.00  0.00     0.222 C 
HETATM   38  O2  UNL     1       7.691  27.721   6.412  1.00  0.00    -0.273 OA
ATOM     39  H2  UNL     1       6.158  25.227   5.138  1.00  0.00     0.163 HD
BRANCH  37  40
HETATM   40  C9  UNL     1       5.520  27.111   7.033  1.00  0.00     0.078 C 
HETATM   41  C10 UNL     1       5.512  28.476   7.696  1.00  0.00     0.014 C 
HETATM   42  C11 UNL     1       4.616  29.440   6.948  1.00  0.00     0.003 C 
HETATM   43  C12 UNL     1       3.160  29.142   7.060  1.00  0.00     0.036 C 
HETATM   44  C13 UNL     1       2.806  27.940   7.867  1.00  0.00     0.222 C 
HETATM   45  C16 UNL     1       3.071  26.696   7.077  1.00  0.00     0.036 C 
HETATM   46  C17 UNL     1       4.273  26.922   6.192  1.00  0.00     0.016 C 
BRANCH  44  47
HETATM   47  N3  UNL     1       1.418  28.070   8.272  1.00  0.00     0.084 N 
HETATM   48  C14 UNL     1       0.594  27.012   7.774  1.00  0.00     0.309 C 
HETATM   49  C15 UNL     1       0.883  29.378   8.002  1.00  0.00     0.309 C 
ENDBRANCH  44  47
ENDBRANCH  37  40
ENDBRANCH  29  36
ENDBRANCH   3  29
TORSDOF 14
ENDMDL
