MODEL 1
REMARK VINA RESULT: -9.153475570      0.000      0.000
REMARK  17 active torsions:
REMARK  status: ('A' for Active; 'I' for Inactive)
REMARK    1  A    between atoms: C2_2  and  C4_4 
REMARK    2  A    between atoms: C4_4  and  C5_5 
REMARK    3  A    between atoms: C5_5  and  N1_6 
REMARK    4  A    between atoms: C5_5  and  C11_15 
REMARK       I    between atoms: N1_6  and  C6_8 
REMARK    5  A    between atoms: C6_8  and  O2_10 
REMARK    6  A    between atoms: O2_10  and  C7_11 
REMARK    7  A    between atoms: C11_15  and  C12_17 
REMARK    8  A    between atoms: C12_17  and  O4_18 
REMARK    9  A    between atoms: C12_17  and  N2_20 
REMARK   10  A    between atoms: N2_20  and  C13_22 
REMARK   11  A    between atoms: C13_22  and  C14_23 
REMARK   12  A    between atoms: C13_22  and  C21_30 
REMARK   13  A    between atoms: C14_23  and  C15_24 
REMARK   14  A    between atoms: C21_30  and  N3_32 
REMARK       I    between atoms: N4_38  and  C28_39 
REMARK   15  A    between atoms: C28_39  and  C29_41 
REMARK   16  A    between atoms: C29_41  and  O6_42 
REMARK   17  A    between atoms: O6_42  and  C30_43 
REMARK       I    between atoms: C30_43  and  N5_45 
ROOT
HETATM    1  C13 UNL     1      11.493  24.290   6.814  1.00  0.00     0.102 C 
ENDROOT
BRANCH   1   2
HETATM    2  N2  UNL     1      10.517  24.216   5.847  1.00  0.00    -0.385 N 
ATOM      3  H2  UNL     1       9.958  23.363   5.855  1.00  0.00     0.156 HD
BRANCH   2   4
HETATM    4  C12 UNL     1      10.186  25.129   4.867  1.00  0.00     0.287 C 
BRANCH   4   5
HETATM    5  C11 UNL     1       9.065  24.522   4.011  1.00  0.00     0.197 C 
HETATM    6  O3  UNL     1       9.254  23.350   3.730  1.00  0.00    -0.291 OA
BRANCH   5   7
HETATM    7  C5  UNL     1       7.907  25.323   3.605  1.00  0.00     0.161 C 
BRANCH   7   8
HETATM    8  C4  UNL     1       6.769  24.514   3.024  1.00  0.00     0.037 C 
BRANCH   8   9
HETATM    9  C2  UNL     1       6.443  24.996   1.623  1.00  0.00    -0.020 C 
HETATM   10  C1  UNL     1       7.506  26.028   1.246  1.00  0.00     0.009 C 
HETATM   11  C3  UNL     1       5.112  25.666   1.545  1.00  0.00     0.009 C 
ENDBRANCH   8   9
ENDBRANCH   7   8
BRANCH   7  12
HETATM   12  N1  UNL     1       7.316  26.022   4.740  1.00  0.00    -0.325 N 
HETATM   13  C6  UNL     1       7.090  27.390   4.814  1.00  0.00     0.361 C 
HETATM   14  O1  UNL     1       7.397  28.140   3.865  1.00  0.00    -0.238 OA
ATOM     15  H1  UNL     1       7.046  25.459   5.547  1.00  0.00     0.165 HD
BRANCH  13  16
HETATM   16  O2  UNL     1       6.521  27.944   5.941  1.00  0.00    -0.294 OA
BRANCH  16  17
HETATM   17  C7  UNL     1       5.151  27.953   6.232  1.00  0.00     0.061 C 
HETATM   18  C8  UNL     1       4.879  29.267   6.972  1.00  0.00     0.046 C 
HETATM   19  C9  UNL     1       4.294  27.997   4.984  1.00  0.00     0.046 C 
HETATM   20  C10 UNL     1       4.699  26.816   7.113  1.00  0.00     0.046 C 
ENDBRANCH  16  17
ENDBRANCH  13  16
ENDBRANCH   7  12
ENDBRANCH   5   7
ENDBRANCH   4   5
BRANCH   4  21
HETATM   21  O4  UNL     1      11.150  25.582   4.007  1.00  0.00    -0.370 OA
ATOM     22  H4  UNL     1      11.402  26.450   4.300  1.00  0.00     0.212 HD
ENDBRANCH   4  21
ENDBRANCH   2   4
ENDBRANCH   1   2
BRANCH   1  23
HETATM   23  C14 UNL     1      11.074  24.719   8.161  1.00  0.00     0.031 C 
BRANCH  23  24
HETATM   24  C15 UNL     1      10.180  25.875   8.345  1.00  0.00    -0.013 C 
HETATM   25  C16 UNL     1       8.786  25.309   8.766  1.00  0.00     0.005 C 
HETATM   26  C17 UNL     1       7.838  26.476   8.648  1.00  0.00     0.000 C 
HETATM   27  C18 UNL     1       8.519  27.778   8.947  1.00  0.00     0.000 C 
HETATM   28  C19 UNL     1       9.597  27.669   9.996  1.00  0.00     0.000 C 
HETATM   29  C20 UNL     1      10.616  26.627   9.603  1.00  0.00     0.005 C 
ENDBRANCH  23  24
ENDBRANCH   1  23
BRANCH   1  30
HETATM   30  C21 UNL     1      12.048  22.839   6.987  1.00  0.00     0.105 C 
HETATM   31  C22 UNL     1      11.050  21.887   6.388  1.00  0.00     0.034 C 
BRANCH  30  32
HETATM   32  N3  UNL     1      13.366  22.719   6.431  1.00  0.00    -0.344 N 
HETATM   33  C23 UNL     1      13.574  22.716   5.016  1.00  0.00     0.136 C 
HETATM   34  C24 UNL     1      14.356  21.541   4.498  1.00  0.00    -0.015 C 
HETATM   35  C25 UNL     1      13.869  20.225   5.048  1.00  0.00     0.018 C 
HETATM   36  C26 UNL     1      14.170  21.489   2.992  1.00  0.00     0.018 C 
HETATM   37  C27 UNL     1      15.837  21.645   4.784  1.00  0.00     0.136 C 
HETATM   38  N4  UNL     1      16.176  21.561   6.170  1.00  0.00    -0.341 N 
HETATM   39  C28 UNL     1      16.873  20.440   6.678  1.00  0.00     0.244 C 
HETATM   40  C33 UNL     1      15.858  22.562   7.185  1.00  0.00     0.228 C 
HETATM   41  O5  UNL     1      17.179  19.524   5.870  1.00  0.00    -0.271 OA
HETATM   42  C34 UNL     1      14.395  22.600   7.435  1.00  0.00     0.238 C 
HETATM   43  O8  UNL     1      14.003  22.520   8.639  1.00  0.00    -0.272 OA
BRANCH  39  44
HETATM   44  C29 UNL     1      17.229  20.342   8.103  1.00  0.00     0.283 C 
BRANCH  44  45
HETATM   45  O6  UNL     1      18.161  19.326   8.362  1.00  0.00    -0.295 OA
BRANCH  45  46
HETATM   46  C30 UNL     1      17.981  18.255   9.193  1.00  0.00     0.362 C 
HETATM   47  O7  UNL     1      17.631  18.460  10.393  1.00  0.00    -0.238 OA
HETATM   48  N5  UNL     1      18.175  16.921   8.748  1.00  0.00    -0.337 N 
HETATM   49  C31 UNL     1      18.577  16.703   7.380  1.00  0.00     0.154 C 
HETATM   50  C32 UNL     1      17.974  15.792   9.655  1.00  0.00     0.154 C 
ENDBRANCH  45  46
ENDBRANCH  44  45
ENDBRANCH  39  44
ENDBRANCH  30  32
ENDBRANCH   1  30
TORSDOF 17
ENDMDL
MODEL 2
REMARK VINA RESULT: -9.146527468      1.108      1.566
REMARK  17 active torsions:
REMARK  status: ('A' for Active; 'I' for Inactive)
REMARK    1  A    between atoms: C2_2  and  C4_4 
REMARK    2  A    between atoms: C4_4  and  C5_5 
REMARK    3  A    between atoms: C5_5  and  N1_6 
REMARK    4  A    between atoms: C5_5  and  C11_15 
REMARK       I    between atoms: N1_6  and  C6_8 
REMARK    5  A    between atoms: C6_8  and  O2_10 
REMARK    6  A    between atoms: O2_10  and  C7_11 
REMARK    7  A    between atoms: C11_15  and  C12_17 
REMARK    8  A    between atoms: C12_17  and  O4_18 
REMARK    9  A    between atoms: C12_17  and  N2_20 
REMARK   10  A    between atoms: N2_20  and  C13_22 
REMARK   11  A    between atoms: C13_22  and  C14_23 
REMARK   12  A    between atoms: C13_22  and  C21_30 
REMARK   13  A    between atoms: C14_23  and  C15_24 
REMARK   14  A    between atoms: C21_30  and  N3_32 
REMARK       I    between atoms: N4_38  and  C28_39 
REMARK   15  A    between atoms: C28_39  and  C29_41 
REMARK   16  A    between atoms: C29_41  and  O6_42 
REMARK   17  A    between atoms: O6_42  and  C30_43 
REMARK       I    between atoms: C30_43  and  N5_45 
ROOT
HETATM    1  C13 UNL     1      11.749  24.322   7.000  1.00  0.00     0.102 C 
ENDROOT
BRANCH   1   2
HETATM    2  N2  UNL     1      11.143  24.473   5.774  1.00  0.00    -0.385 N 
ATOM      3  H2  UNL     1      10.633  23.657   5.436  1.00  0.00     0.156 HD
BRANCH   2   4
HETATM    4  C12 UNL     1      11.124  25.569   4.937  1.00  0.00     0.287 C 
BRANCH   4   5
HETATM    5  C11 UNL     1       9.674  26.064   4.835  1.00  0.00     0.197 C 
HETATM    6  O3  UNL     1       9.490  27.135   5.389  1.00  0.00    -0.291 OA
BRANCH   5   7
HETATM    7  C5  UNL     1       8.657  25.282   4.127  1.00  0.00     0.161 C 
BRANCH   7   8
HETATM    8  C4  UNL     1       8.810  23.786   4.283  1.00  0.00     0.037 C 
BRANCH   8   9
HETATM    9  C2  UNL     1       8.845  23.116   2.921  1.00  0.00    -0.020 C 
HETATM   10  C1  UNL     1       9.993  22.107   2.947  1.00  0.00     0.009 C 
HETATM   11  C3  UNL     1       9.114  24.083   1.817  1.00  0.00     0.009 C 
ENDBRANCH   8   9
ENDBRANCH   7   8
BRANCH   7  12
HETATM   12  N1  UNL     1       7.318  25.567   4.627  1.00  0.00    -0.325 N 
HETATM   13  C6  UNL     1       6.331  26.258   3.938  1.00  0.00     0.361 C 
HETATM   14  O1  UNL     1       6.544  26.701   2.790  1.00  0.00    -0.238 OA
ATOM     15  H1  UNL     1       7.087  25.231   5.561  1.00  0.00     0.165 HD
BRANCH  13  16
HETATM   16  O2  UNL     1       5.095  26.468   4.510  1.00  0.00    -0.294 OA
BRANCH  16  17
HETATM   17  C7  UNL     1       4.824  27.386   5.532  1.00  0.00     0.061 C 
HETATM   18  C8  UNL     1       3.655  28.245   5.038  1.00  0.00     0.046 C 
HETATM   19  C9  UNL     1       4.336  26.714   6.799  1.00  0.00     0.046 C 
HETATM   20  C10 UNL     1       5.974  28.304   5.860  1.00  0.00     0.046 C 
ENDBRANCH  16  17
ENDBRANCH  13  16
ENDBRANCH   7  12
ENDBRANCH   5   7
ENDBRANCH   4   5
BRANCH   4  21
HETATM   21  O4  UNL     1      11.602  25.455   3.659  1.00  0.00    -0.370 OA
ATOM     22  H4  UNL     1      12.195  24.712   3.647  1.00  0.00     0.212 HD
ENDBRANCH   4  21
ENDBRANCH   2   4
ENDBRANCH   1   2
BRANCH   1  23
HETATM   23  C14 UNL     1      10.911  24.528   8.195  1.00  0.00     0.031 C 
BRANCH  23  24
HETATM   24  C15 UNL     1      10.055  25.720   8.325  1.00  0.00    -0.013 C 
HETATM   25  C16 UNL     1       8.609  25.210   8.624  1.00  0.00     0.005 C 
HETATM   26  C17 UNL     1       7.724  26.418   8.449  1.00  0.00     0.000 C 
HETATM   27  C18 UNL     1       8.433  27.686   8.821  1.00  0.00     0.000 C 
HETATM   28  C19 UNL     1       9.417  27.518   9.952  1.00  0.00     0.000 C 
HETATM   29  C20 UNL     1      10.419  26.437   9.626  1.00  0.00     0.005 C 
ENDBRANCH  23  24
ENDBRANCH   1  23
BRANCH   1  30
HETATM   30  C21 UNL     1      12.227  22.836   7.072  1.00  0.00     0.105 C 
HETATM   31  C22 UNL     1      11.161  21.977   6.450  1.00  0.00     0.034 C 
BRANCH  30  32
HETATM   32  N3  UNL     1      13.521  22.678   6.470  1.00  0.00    -0.344 N 
HETATM   33  C23 UNL     1      13.673  22.622   5.049  1.00  0.00     0.136 C 
HETATM   34  C24 UNL     1      14.419  21.419   4.543  1.00  0.00    -0.015 C 
HETATM   35  C25 UNL     1      13.938  20.129   5.160  1.00  0.00     0.018 C 
HETATM   36  C26 UNL     1      14.173  21.315   3.049  1.00  0.00     0.018 C 
HETATM   37  C27 UNL     1      15.911  21.512   4.768  1.00  0.00     0.136 C 
HETATM   38  N4  UNL     1      16.303  21.473   6.142  1.00  0.00    -0.341 N 
HETATM   39  C28 UNL     1      17.006  20.361   6.662  1.00  0.00     0.244 C 
HETATM   40  C33 UNL     1      16.038  22.514   7.131  1.00  0.00     0.228 C 
HETATM   41  O5  UNL     1      17.269  19.413   5.876  1.00  0.00    -0.271 OA
HETATM   42  C34 UNL     1      14.587  22.580   7.436  1.00  0.00     0.238 C 
HETATM   43  O8  UNL     1      14.242  22.549   8.657  1.00  0.00    -0.272 OA
BRANCH  39  44
HETATM   44  C29 UNL     1      17.417  20.309   8.075  1.00  0.00     0.283 C 
BRANCH  44  45
HETATM   45  O6  UNL     1      18.270  19.231   8.354  1.00  0.00    -0.295 OA
BRANCH  45  46
HETATM   46  C30 UNL     1      18.017  18.200   9.215  1.00  0.00     0.362 C 
HETATM   47  O7  UNL     1      17.633  18.462  10.393  1.00  0.00    -0.238 OA
HETATM   48  N5  UNL     1      18.170  16.843   8.824  1.00  0.00    -0.337 N 
HETATM   49  C31 UNL     1      18.610  16.559   7.481  1.00  0.00     0.154 C 
HETATM   50  C32 UNL     1      17.889  15.758   9.763  1.00  0.00     0.154 C 
ENDBRANCH  45  46
ENDBRANCH  44  45
ENDBRANCH  39  44
ENDBRANCH  30  32
ENDBRANCH   1  30
TORSDOF 17
ENDMDL
MODEL 3
REMARK VINA RESULT: -9.118567657      2.587     10.973
REMARK  17 active torsions:
REMARK  status: ('A' for Active; 'I' for Inactive)
REMARK    1  A    between atoms: C2_2  and  C4_4 
REMARK    2  A    between atoms: C4_4  and  C5_5 
REMARK    3  A    between atoms: C5_5  and  N1_6 
REMARK    4  A    between atoms: C5_5  and  C11_15 
REMARK       I    between atoms: N1_6  and  C6_8 
REMARK    5  A    between atoms: C6_8  and  O2_10 
REMARK    6  A    between atoms: O2_10  and  C7_11 
REMARK    7  A    between atoms: C11_15  and  C12_17 
REMARK    8  A    between atoms: C12_17  and  O4_18 
REMARK    9  A    between atoms: C12_17  and  N2_20 
REMARK   10  A    between atoms: N2_20  and  C13_22 
REMARK   11  A    between atoms: C13_22  and  C14_23 
REMARK   12  A    between atoms: C13_22  and  C21_30 
REMARK   13  A    between atoms: C14_23  and  C15_24 
REMARK   14  A    between atoms: C21_30  and  N3_32 
REMARK       I    between atoms: N4_38  and  C28_39 
REMARK   15  A    between atoms: C28_39  and  C29_41 
REMARK   16  A    between atoms: C29_41  and  O6_42 
REMARK   17  A    between atoms: O6_42  and  C30_43 
REMARK       I    between atoms: C30_43  and  N5_45 
ROOT
HETATM    1  C13 UNL     1       9.872  24.607   4.562  1.00  0.00     0.102 C 
ENDROOT
BRANCH   1   2
HETATM    2  N2  UNL     1      11.048  24.005   4.947  1.00  0.00    -0.385 N 
ATOM      3  H2  UNL     1      11.374  24.243   5.883  1.00  0.00     0.156 HD
BRANCH   2   4
HETATM    4  C12 UNL     1      11.849  23.125   4.248  1.00  0.00     0.287 C 
BRANCH   4   5
HETATM    5  C11 UNL     1      12.203  21.960   5.184  1.00  0.00     0.197 C 
HETATM    6  O3  UNL     1      11.288  21.167   5.334  1.00  0.00    -0.291 OA
BRANCH   5   7
HETATM    7  C5  UNL     1      13.527  21.865   5.804  1.00  0.00     0.161 C 
BRANCH   7   8
HETATM    8  C4  UNL     1      13.507  21.925   7.315  1.00  0.00     0.037 C 
BRANCH   8   9
HETATM    9  C2  UNL     1      14.914  21.779   7.865  1.00  0.00    -0.020 C 
HETATM   10  C1  UNL     1      14.783  21.455   9.353  1.00  0.00     0.009 C 
HETATM   11  C3  UNL     1      15.708  23.037   7.742  1.00  0.00     0.009 C 
ENDBRANCH   8   9
ENDBRANCH   7   8
BRANCH   7  12
HETATM   12  N1  UNL     1      14.172  20.595   5.497  1.00  0.00    -0.325 N 
HETATM   13  C6  UNL     1      14.735  20.252   4.275  1.00  0.00     0.361 C 
HETATM   14  O1  UNL     1      14.718  21.053   3.317  1.00  0.00    -0.238 OA
ATOM     15  H1  UNL     1      14.214  19.899   6.242  1.00  0.00     0.165 HD
BRANCH  13  16
HETATM   16  O2  UNL     1      15.323  19.018   4.097  1.00  0.00    -0.294 OA
BRANCH  16  17
HETATM   17  C7  UNL     1      16.699  18.790   3.972  1.00  0.00     0.061 C 
HETATM   18  C8  UNL     1      16.937  17.345   4.425  1.00  0.00     0.046 C 
HETATM   19  C9  UNL     1      17.168  18.854   2.533  1.00  0.00     0.046 C 
HETATM   20  C10 UNL     1      17.556  19.695   4.821  1.00  0.00     0.046 C 
ENDBRANCH  16  17
ENDBRANCH  13  16
ENDBRANCH   7  12
ENDBRANCH   5   7
ENDBRANCH   4   5
BRANCH   4  21
HETATM   21  O4  UNL     1      13.020  23.567   3.694  1.00  0.00    -0.370 OA
ATOM     22  H4  UNL     1      13.473  24.071   4.361  1.00  0.00     0.212 HD
ENDBRANCH   4  21
ENDBRANCH   2   4
ENDBRANCH   1   2
BRANCH   1  23
HETATM   23  C14 UNL     1       9.006  23.859   3.632  1.00  0.00     0.031 C 
BRANCH  23  24
HETATM   24  C15 UNL     1       8.363  24.530   2.489  1.00  0.00    -0.013 C 
HETATM   25  C16 UNL     1       6.858  24.721   2.862  1.00  0.00     0.005 C 
HETATM   26  C17 UNL     1       6.183  25.123   1.575  1.00  0.00     0.000 C 
HETATM   27  C18 UNL     1       7.101  25.911   0.689  1.00  0.00     0.000 C 
HETATM   28  C19 UNL     1       8.064  26.790   1.445  1.00  0.00     0.000 C 
HETATM   29  C20 UNL     1       8.867  25.973   2.429  1.00  0.00     0.005 C 
ENDBRANCH  23  24
ENDBRANCH   1  23
BRANCH   1  30
HETATM   30  C21 UNL     1       9.029  24.793   5.864  1.00  0.00     0.105 C 
HETATM   31  C22 UNL     1       9.492  23.771   6.865  1.00  0.00     0.034 C 
BRANCH  30  32
HETATM   32  N3  UNL     1       9.106  26.145   6.342  1.00  0.00    -0.344 N 
HETATM   33  C23 UNL     1      10.171  26.567   7.199  1.00  0.00     0.136 C 
HETATM   34  C24 UNL     1       9.728  27.220   8.478  1.00  0.00    -0.015 C 
HETATM   35  C25 UNL     1       8.643  26.447   9.185  1.00  0.00     0.018 C 
HETATM   36  C26 UNL     1      10.923  27.264   9.414  1.00  0.00     0.018 C 
HETATM   37  C27 UNL     1       9.236  28.636   8.279  1.00  0.00     0.136 C 
HETATM   38  N4  UNL     1       8.023  28.737   7.530  1.00  0.00    -0.341 N 
HETATM   39  C28 UNL     1       6.823  29.157   8.150  1.00  0.00     0.244 C 
HETATM   40  C33 UNL     1       7.873  28.431   6.110  1.00  0.00     0.228 C 
HETATM   41  O5  UNL     1       6.862  29.434   9.378  1.00  0.00    -0.271 OA
HETATM   42  C34 UNL     1       8.021  26.973   5.876  1.00  0.00     0.238 C 
HETATM   43  O8  UNL     1       7.114  26.391   5.205  1.00  0.00    -0.272 OA
BRANCH  39  44
HETATM   44  C29 UNL     1       5.568  29.267   7.389  1.00  0.00     0.283 C 
BRANCH  44  45
HETATM   45  O6  UNL     1       4.549  28.447   7.899  1.00  0.00    -0.295 OA
BRANCH  45  46
HETATM   46  C30 UNL     1       4.163  27.233   7.402  1.00  0.00     0.362 C 
HETATM   47  O7  UNL     1       4.963  26.254   7.479  1.00  0.00    -0.238 OA
HETATM   48  N5  UNL     1       2.889  27.039   6.806  1.00  0.00    -0.337 N 
HETATM   49  C31 UNL     1       1.990  28.163   6.722  1.00  0.00     0.154 C 
HETATM   50  C32 UNL     1       2.498  25.730   6.285  1.00  0.00     0.154 C 
ENDBRANCH  45  46
ENDBRANCH  44  45
ENDBRANCH  39  44
ENDBRANCH  30  32
ENDBRANCH   1  30
TORSDOF 17
ENDMDL
MODEL 4
REMARK VINA RESULT: -9.043874674      2.476     11.109
REMARK  17 active torsions:
REMARK  status: ('A' for Active; 'I' for Inactive)
REMARK    1  A    between atoms: C2_2  and  C4_4 
REMARK    2  A    between atoms: C4_4  and  C5_5 
REMARK    3  A    between atoms: C5_5  and  N1_6 
REMARK    4  A    between atoms: C5_5  and  C11_15 
REMARK       I    between atoms: N1_6  and  C6_8 
REMARK    5  A    between atoms: C6_8  and  O2_10 
REMARK    6  A    between atoms: O2_10  and  C7_11 
REMARK    7  A    between atoms: C11_15  and  C12_17 
REMARK    8  A    between atoms: C12_17  and  O4_18 
REMARK    9  A    between atoms: C12_17  and  N2_20 
REMARK   10  A    between atoms: N2_20  and  C13_22 
REMARK   11  A    between atoms: C13_22  and  C14_23 
REMARK   12  A    between atoms: C13_22  and  C21_30 
REMARK   13  A    between atoms: C14_23  and  C15_24 
REMARK   14  A    between atoms: C21_30  and  N3_32 
REMARK       I    between atoms: N4_38  and  C28_39 
REMARK   15  A    between atoms: C28_39  and  C29_41 
REMARK   16  A    between atoms: C29_41  and  O6_42 
REMARK   17  A    between atoms: O6_42  and  C30_43 
REMARK       I    between atoms: C30_43  and  N5_45 
ROOT
HETATM    1  C13 UNL     1      11.685  25.283   5.906  1.00  0.00     0.102 C 
ENDROOT
BRANCH   1   2
HETATM    2  N2  UNL     1      12.352  24.330   6.640  1.00  0.00    -0.385 N 
ATOM      3  H2  UNL     1      12.033  24.218   7.602  1.00  0.00     0.156 HD
BRANCH   2   4
HETATM    4  C12 UNL     1      13.389  23.503   6.261  1.00  0.00     0.287 C 
BRANCH   4   5
HETATM    5  C11 UNL     1      13.664  22.527   7.415  1.00  0.00     0.197 C 
HETATM    6  O3  UNL     1      12.792  22.532   8.268  1.00  0.00    -0.291 OA
BRANCH   5   7
HETATM    7  C5  UNL     1      14.872  21.698   7.431  1.00  0.00     0.161 C 
BRANCH   7   8
HETATM    8  C4  UNL     1      15.107  20.973   8.737  1.00  0.00     0.037 C 
BRANCH   8   9
HETATM    9  C2  UNL     1      16.535  20.465   8.806  1.00  0.00    -0.020 C 
HETATM   10  C1  UNL     1      16.728  19.857  10.195  1.00  0.00     0.009 C 
HETATM   11  C3  UNL     1      17.539  21.557   8.646  1.00  0.00     0.009 C 
ENDBRANCH   8   9
ENDBRANCH   7   8
BRANCH   7  12
HETATM   12  N1  UNL     1      14.808  20.639   6.431  1.00  0.00    -0.325 N 
HETATM   13  C6  UNL     1      15.272  20.734   5.126  1.00  0.00     0.361 C 
HETATM   14  O1  UNL     1      15.796  21.788   4.710  1.00  0.00    -0.238 OA
ATOM     15  H1  UNL     1      14.387  19.755   6.714  1.00  0.00     0.165 HD
BRANCH  13  16
HETATM   16  O2  UNL     1      15.161  19.664   4.265  1.00  0.00    -0.294 OA
BRANCH  16  17
HETATM   17  C7  UNL     1      16.229  18.888   3.799  1.00  0.00     0.061 C 
HETATM   18  C8  UNL     1      15.837  17.427   4.044  1.00  0.00     0.046 C 
HETATM   19  C9  UNL     1      16.428  19.017   2.303  1.00  0.00     0.046 C 
HETATM   20  C10 UNL     1      17.536  19.148   4.504  1.00  0.00     0.046 C 
ENDBRANCH  16  17
ENDBRANCH  13  16
ENDBRANCH   7  12
ENDBRANCH   5   7
ENDBRANCH   4   5
BRANCH   4  21
HETATM   21  O4  UNL     1      14.592  24.046   5.897  1.00  0.00    -0.370 OA
ATOM     22  H4  UNL     1      14.459  24.982   5.803  1.00  0.00     0.212 HD
ENDBRANCH   4  21
ENDBRANCH   2   4
ENDBRANCH   1   2
BRANCH   1  23
HETATM   23  C14 UNL     1      11.715  25.145   4.438  1.00  0.00     0.031 C 
BRANCH  23  24
HETATM   24  C15 UNL     1      10.605  24.503   3.714  1.00  0.00    -0.013 C 
HETATM   25  C16 UNL     1      10.755  24.896   2.210  1.00  0.00     0.005 C 
HETATM   26  C17 UNL     1       9.457  24.482   1.565  1.00  0.00     0.000 C 
HETATM   27  C18 UNL     1       8.867  23.272   2.227  1.00  0.00     0.000 C 
HETATM   28  C19 UNL     1       9.901  22.301   2.741  1.00  0.00     0.000 C 
HETATM   29  C20 UNL     1      10.858  22.994   3.680  1.00  0.00     0.005 C 
ENDBRANCH  23  24
ENDBRANCH   1  23
BRANCH   1  30
HETATM   30  C21 UNL     1      10.179  25.171   6.308  1.00  0.00     0.105 C 
HETATM   31  C22 UNL     1      10.075  24.189   7.442  1.00  0.00     0.034 C 
BRANCH  30  32
HETATM   32  N3  UNL     1       9.626  26.461   6.609  1.00  0.00    -0.344 N 
HETATM   33  C23 UNL     1      10.032  27.187   7.772  1.00  0.00     0.136 C 
HETATM   34  C24 UNL     1       8.906  27.628   8.665  1.00  0.00    -0.015 C 
HETATM   35  C25 UNL     1       7.916  26.525   8.946  1.00  0.00     0.018 C 
HETATM   36  C26 UNL     1       9.504  28.037   9.999  1.00  0.00     0.018 C 
HETATM   37  C27 UNL     1       8.142  28.809   8.111  1.00  0.00     0.136 C 
HETATM   38  N4  UNL     1       7.403  28.526   6.921  1.00  0.00    -0.341 N 
HETATM   39  C28 UNL     1       5.988  28.515   6.933  1.00  0.00     0.244 C 
HETATM   40  C33 UNL     1       7.980  28.223   5.614  1.00  0.00     0.228 C 
HETATM   41  O5  UNL     1       5.409  28.759   8.024  1.00  0.00    -0.271 OA
HETATM   42  C34 UNL     1       8.652  26.899   5.639  1.00  0.00     0.238 C 
HETATM   43  O8  UNL     1       8.348  26.070   4.729  1.00  0.00    -0.272 OA
BRANCH  39  44
HETATM   44  C29 UNL     1       5.216  28.227   5.713  1.00  0.00     0.283 C 
BRANCH  44  45
HETATM   45  O6  UNL     1       4.879  26.870   5.591  1.00  0.00    -0.295 OA
BRANCH  45  46
HETATM   46  C30 UNL     1       4.670  26.190   4.424  1.00  0.00     0.362 C 
HETATM   47  O7  UNL     1       5.354  26.495   3.403  1.00  0.00    -0.238 OA
HETATM   48  N5  UNL     1       3.707  25.150   4.326  1.00  0.00    -0.337 N 
HETATM   49  C31 UNL     1       2.933  24.816   5.495  1.00  0.00     0.154 C 
HETATM   50  C32 UNL     1       3.504  24.435   3.067  1.00  0.00     0.154 C 
ENDBRANCH  45  46
ENDBRANCH  44  45
ENDBRANCH  39  44
ENDBRANCH  30  32
ENDBRANCH   1  30
TORSDOF 17
ENDMDL
MODEL 5
REMARK VINA RESULT: -9.008190557      2.070     10.193
REMARK  17 active torsions:
REMARK  status: ('A' for Active; 'I' for Inactive)
REMARK    1  A    between atoms: C2_2  and  C4_4 
REMARK    2  A    between atoms: C4_4  and  C5_5 
REMARK    3  A    between atoms: C5_5  and  N1_6 
REMARK    4  A    between atoms: C5_5  and  C11_15 
REMARK       I    between atoms: N1_6  and  C6_8 
REMARK    5  A    between atoms: C6_8  and  O2_10 
REMARK    6  A    between atoms: O2_10  and  C7_11 
REMARK    7  A    between atoms: C11_15  and  C12_17 
REMARK    8  A    between atoms: C12_17  and  O4_18 
REMARK    9  A    between atoms: C12_17  and  N2_20 
REMARK   10  A    between atoms: N2_20  and  C13_22 
REMARK   11  A    between atoms: C13_22  and  C14_23 
REMARK   12  A    between atoms: C13_22  and  C21_30 
REMARK   13  A    between atoms: C14_23  and  C15_24 
REMARK   14  A    between atoms: C21_30  and  N3_32 
REMARK       I    between atoms: N4_38  and  C28_39 
REMARK   15  A    between atoms: C28_39  and  C29_41 
REMARK   16  A    between atoms: C29_41  and  O6_42 
REMARK   17  A    between atoms: O6_42  and  C30_43 
REMARK       I    between atoms: C30_43  and  N5_45 
ROOT
HETATM    1  C13 UNL     1      11.832  25.034   7.152  1.00  0.00     0.102 C 
ENDROOT
BRANCH   1   2
HETATM    2  N2  UNL     1      13.071  24.465   6.964  1.00  0.00    -0.385 N 
ATOM      3  H2  UNL     1      13.679  24.952   6.306  1.00  0.00     0.156 HD
BRANCH   2   4
HETATM    4  C12 UNL     1      13.608  23.332   7.538  1.00  0.00     0.287 C 
BRANCH   4   5
HETATM    5  C11 UNL     1      14.691  22.789   6.594  1.00  0.00     0.197 C 
HETATM    6  O3  UNL     1      15.171  23.644   5.868  1.00  0.00    -0.291 OA
BRANCH   5   7
HETATM    7  C5  UNL     1      15.067  21.373   6.612  1.00  0.00     0.161 C 
BRANCH   7   8
HETATM    8  C4  UNL     1      15.751  20.900   5.349  1.00  0.00     0.037 C 
BRANCH   8   9
HETATM    9  C2  UNL     1      14.743  20.255   4.416  1.00  0.00    -0.020 C 
HETATM   10  C1  UNL     1      15.436  19.057   3.766  1.00  0.00     0.009 C 
HETATM   11  C3  UNL     1      14.306  21.173   3.324  1.00  0.00     0.009 C 
ENDBRANCH   8   9
ENDBRANCH   7   8
BRANCH   7  12
HETATM   12  N1  UNL     1      16.023  21.087   7.675  1.00  0.00    -0.325 N 
HETATM   13  C6  UNL     1      15.697  20.758   8.984  1.00  0.00     0.361 C 
HETATM   14  O1  UNL     1      14.505  20.688   9.346  1.00  0.00    -0.238 OA
ATOM     15  H1  UNL     1      17.013  21.132   7.437  1.00  0.00     0.165 HD
BRANCH  13  16
HETATM   16  O2  UNL     1      16.688  20.505   9.908  1.00  0.00    -0.294 OA
BRANCH  16  17
HETATM   17  C7  UNL     1      17.253  19.249  10.161  1.00  0.00     0.061 C 
HETATM   18  C8  UNL     1      18.127  19.416  11.409  1.00  0.00     0.046 C 
HETATM   19  C9  UNL     1      16.214  18.208  10.521  1.00  0.00     0.046 C 
HETATM   20  C10 UNL     1      18.123  18.726   9.046  1.00  0.00     0.046 C 
ENDBRANCH  16  17
ENDBRANCH  13  16
ENDBRANCH   7  12
ENDBRANCH   5   7
ENDBRANCH   4   5
BRANCH   4  21
HETATM   21  O4  UNL     1      12.791  22.281   7.861  1.00  0.00    -0.370 OA
ATOM     22  H4  UNL     1      11.987  22.649   8.210  1.00  0.00     0.212 HD
ENDBRANCH   4  21
ENDBRANCH   2   4
ENDBRANCH   1   2
BRANCH   1  23
HETATM   23  C14 UNL     1      11.744  26.157   8.102  1.00  0.00     0.031 C 
BRANCH  23  24
HETATM   24  C15 UNL     1      10.463  26.840   8.353  1.00  0.00    -0.013 C 
HETATM   25  C16 UNL     1       9.449  25.747   8.817  1.00  0.00     0.005 C 
HETATM   26  C17 UNL     1       8.100  26.419   8.769  1.00  0.00     0.000 C 
HETATM   27  C18 UNL     1       8.197  27.884   9.072  1.00  0.00     0.000 C 
HETATM   28  C19 UNL     1       9.273  28.224  10.073  1.00  0.00     0.000 C 
HETATM   29  C20 UNL     1      10.611  27.698   9.611  1.00  0.00     0.005 C 
ENDBRANCH  23  24
ENDBRANCH   1  23
BRANCH   1  30
HETATM   30  C21 UNL     1      11.405  25.620   5.767  1.00  0.00     0.105 C 
HETATM   31  C22 UNL     1      12.610  25.605   4.867  1.00  0.00     0.034 C 
BRANCH  30  32
HETATM   32  N3  UNL     1      10.276  24.913   5.232  1.00  0.00    -0.344 N 
HETATM   33  C23 UNL     1      10.374  23.536   4.860  1.00  0.00     0.136 C 
HETATM   34  C24 UNL     1       9.938  23.231   3.454  1.00  0.00    -0.015 C 
HETATM   35  C25 UNL     1      10.524  24.182   2.440  1.00  0.00     0.018 C 
HETATM   36  C26 UNL     1      10.443  21.843   3.103  1.00  0.00     0.018 C 
HETATM   37  C27 UNL     1       8.436  23.240   3.286  1.00  0.00     0.136 C 
HETATM   38  N4  UNL     1       7.834  24.527   3.446  1.00  0.00    -0.341 N 
HETATM   39  C28 UNL     1       7.255  25.196   2.342  1.00  0.00     0.244 C 
HETATM   40  C33 UNL     1       7.749  25.275   4.696  1.00  0.00     0.228 C 
HETATM   41  O5  UNL     1       7.292  24.623   1.222  1.00  0.00    -0.271 OA
HETATM   42  C34 UNL     1       9.097  25.736   5.116  1.00  0.00     0.238 C 
HETATM   43  O8  UNL     1       9.234  26.964   5.402  1.00  0.00    -0.272 OA
BRANCH  39  44
HETATM   44  C29 UNL     1       6.630  26.520   2.494  1.00  0.00     0.283 C 
BRANCH  44  45
HETATM   45  O6  UNL     1       5.233  26.453   2.611  1.00  0.00    -0.295 OA
BRANCH  45  46
HETATM   46  C30 UNL     1       4.517  26.455   3.775  1.00  0.00     0.362 C 
HETATM   47  O7  UNL     1       4.417  27.533   4.434  1.00  0.00    -0.238 OA
HETATM   48  N5  UNL     1       3.880  25.284   4.265  1.00  0.00    -0.337 N 
HETATM   49  C31 UNL     1       4.005  24.065   3.506  1.00  0.00     0.154 C 
HETATM   50  C32 UNL     1       3.117  25.313   5.512  1.00  0.00     0.154 C 
ENDBRANCH  45  46
ENDBRANCH  44  45
ENDBRANCH  39  44
ENDBRANCH  30  32
ENDBRANCH   1  30
TORSDOF 17
ENDMDL
