MODEL 1
REMARK VINA RESULT: -6.798424948      0.000      0.000
REMARK  8 active torsions:
REMARK  status: ('A' for Active; 'I' for Inactive)
REMARK    1  A    between atoms: O1_2  and  C2_3 
REMARK    2  A    between atoms: C2_3  and  C3_4 
REMARK    3  A    between atoms: C3_4  and  C4_5 
REMARK    4  A    between atoms: C4_5  and  C5_6 
REMARK    5  A    between atoms: C5_6  and  C6_7 
REMARK    6  A    between atoms: C6_7  and  O2_8 
REMARK    7  A    between atoms: C17_21  and  O4_22 
REMARK    8  A    between atoms: C23_29  and  O5_30 
ROOT
HETATM    1  C5  UNL     1      -0.463   2.563  27.157  1.00  0.00    -0.015 C 
HETATM    2  C7  UNL     1      -1.757   1.954  26.669  1.00  0.00     0.012 C 
HETATM    3  C8  UNL     1      -2.749   2.890  26.118  1.00  0.00     0.005 C 
HETATM    4  C9  UNL     1      -2.793   4.264  26.663  1.00  0.00    -0.014 C 
HETATM    5  C10 UNL     1      -3.102   5.275  25.537  1.00  0.00     0.010 C 
HETATM    6  C11 UNL     1      -1.610   4.759  27.382  1.00  0.00    -0.001 C 
HETATM    7  C12 UNL     1      -2.055   5.804  28.409  1.00  0.00     0.004 C 
HETATM    8  C13 UNL     1      -0.903   6.647  28.855  1.00  0.00     0.084 C 
HETATM    9  C14 UNL     1      -1.290   7.509  29.975  1.00  0.00     0.132 C 
HETATM   10  O3  UNL     1      -0.560   8.486  30.204  1.00  0.00    -0.298 OA
HETATM   11  C15 UNL     1      -2.447   7.336  30.854  1.00  0.00     0.066 C 
HETATM   12  C16 UNL     1      -1.957   7.177  32.271  1.00  0.00     0.044 C 
HETATM   13  C17 UNL     1      -3.163   7.235  33.150  1.00  0.00     0.119 C 
HETATM   14  C18 UNL     1      -4.044   6.067  32.858  1.00  0.00     0.032 C 
HETATM   15  C19 UNL     1      -4.323   5.765  31.447  1.00  0.00     0.013 C 
HETATM   16  C20 UNL     1      -3.389   6.263  30.406  1.00  0.00    -0.027 C 
HETATM   17  C21 UNL     1      -4.287   6.952  29.346  1.00  0.00     0.016 C 
HETATM   18  C22 UNL     1      -2.717   5.162  29.606  1.00  0.00     0.028 C 
HETATM   19  C23 UNL     1      -1.654   4.401  30.299  1.00  0.00     0.123 C 
HETATM   20  C24 UNL     1      -1.238   3.284  29.366  1.00  0.00     0.038 C 
HETATM   21  C25 UNL     1      -0.714   3.755  28.032  1.00  0.00     0.003 C 
ENDROOT
BRANCH   1  22
HETATM   22  C4  UNL     1       0.590   2.664  26.137  1.00  0.00     0.014 C 
BRANCH  22  23
HETATM   23  C3  UNL     1       0.328   2.495  24.704  1.00  0.00     0.027 C 
BRANCH  23  24
HETATM   24  C2  UNL     1       0.154   3.846  23.986  1.00  0.00     0.167 C 
BRANCH  24  25
HETATM   25  O1  UNL     1       0.071   3.685  22.627  1.00  0.00    -0.396 OA
HETATM   26  C1  UNL     1      -1.067   4.301  22.171  1.00  0.00     0.201 C 
ENDBRANCH  24  25
ENDBRANCH  23  24
ENDBRANCH  22  23
ENDBRANCH   1  22
BRANCH   1  27
HETATM   27  C6  UNL     1       0.100   1.469  28.125  1.00  0.00     0.173 C 
BRANCH  27  28
HETATM   28  O2  UNL     1       1.460   1.475  28.187  1.00  0.00    -0.400 OA
ATOM     29  H2  UNL     1       1.784   1.438  29.079  1.00  0.00     0.209 HD
ENDBRANCH  27  28
ENDBRANCH   1  27
BRANCH  19  30
HETATM   30  O5  UNL     1      -2.065   3.740  31.464  1.00  0.00    -0.395 OA
ATOM     31  H5  UNL     1      -1.588   3.979  32.249  1.00  0.00     0.210 HD
ENDBRANCH  19  30
BRANCH  13  32
HETATM   32  O4  UNL     1      -2.733   7.145  34.477  1.00  0.00    -0.396 OA
ATOM     33  H4  UNL     1      -2.366   6.279  34.607  1.00  0.00     0.210 HD
ENDBRANCH  13  32
TORSDOF 8
ENDMDL
MODEL 2
REMARK VINA RESULT: -6.686573357      3.010      5.637
REMARK  8 active torsions:
REMARK  status: ('A' for Active; 'I' for Inactive)
REMARK    1  A    between atoms: O1_2  and  C2_3 
REMARK    2  A    between atoms: C2_3  and  C3_4 
REMARK    3  A    between atoms: C3_4  and  C4_5 
REMARK    4  A    between atoms: C4_5  and  C5_6 
REMARK    5  A    between atoms: C5_6  and  C6_7 
REMARK    6  A    between atoms: C6_7  and  O2_8 
REMARK    7  A    between atoms: C17_21  and  O4_22 
REMARK    8  A    between atoms: C23_29  and  O5_30 
ROOT
HETATM    1  C5  UNL     1      -2.373   4.208  21.526  1.00  0.00    -0.015 C 
HETATM    2  C7  UNL     1      -2.638   2.769  21.150  1.00  0.00     0.012 C 
HETATM    3  C8  UNL     1      -3.790   2.128  21.804  1.00  0.00     0.005 C 
HETATM    4  C9  UNL     1      -4.153   2.565  23.168  1.00  0.00    -0.014 C 
HETATM    5  C10 UNL     1      -5.688   2.573  23.336  1.00  0.00     0.010 C 
HETATM    6  C11 UNL     1      -3.657   3.870  23.629  1.00  0.00    -0.001 C 
HETATM    7  C12 UNL     1      -3.515   3.837  25.154  1.00  0.00     0.004 C 
HETATM    8  C13 UNL     1      -3.443   5.220  25.719  1.00  0.00     0.084 C 
HETATM    9  C14 UNL     1      -3.111   5.183  27.146  1.00  0.00     0.132 C 
HETATM   10  O3  UNL     1      -3.364   6.205  27.803  1.00  0.00    -0.298 OA
HETATM   11  C15 UNL     1      -2.511   4.066  27.877  1.00  0.00     0.066 C 
HETATM   12  C16 UNL     1      -1.203   4.525  28.469  1.00  0.00     0.044 C 
HETATM   13  C17 UNL     1      -0.744   3.439  29.386  1.00  0.00     0.119 C 
HETATM   14  C18 UNL     1      -0.458   2.209  28.592  1.00  0.00     0.032 C 
HETATM   15  C19 UNL     1      -1.460   1.795  27.600  1.00  0.00     0.013 C 
HETATM   16  C20 UNL     1      -2.417   2.805  27.079  1.00  0.00    -0.027 C 
HETATM   17  C21 UNL     1      -3.817   2.152  27.214  1.00  0.00     0.016 C 
HETATM   18  C22 UNL     1      -2.305   3.041  25.584  1.00  0.00     0.028 C 
HETATM   19  C23 UNL     1      -1.128   3.811  25.125  1.00  0.00     0.123 C 
HETATM   20  C24 UNL     1      -1.158   3.797  23.612  1.00  0.00     0.038 C 
HETATM   21  C25 UNL     1      -2.403   4.401  23.013  1.00  0.00     0.003 C 
ENDROOT
BRANCH   1  22
HETATM   22  C4  UNL     1      -3.062   5.197  20.685  1.00  0.00     0.014 C 
BRANCH  22  23
HETATM   23  C3  UNL     1      -3.796   6.338  21.240  1.00  0.00     0.027 C 
BRANCH  23  24
HETATM   24  C2  UNL     1      -3.741   7.567  20.312  1.00  0.00     0.167 C 
BRANCH  24  25
HETATM   25  O1  UNL     1      -2.691   7.487  19.434  1.00  0.00    -0.396 OA
HETATM   26  C1  UNL     1      -2.038   8.693  19.407  1.00  0.00     0.201 C 
ENDBRANCH  24  25
ENDBRANCH  23  24
ENDBRANCH  22  23
ENDBRANCH   1  22
BRANCH   1  27
HETATM   27  C6  UNL     1      -0.871   4.406  21.128  1.00  0.00     0.173 C 
BRANCH  27  28
HETATM   28  O2  UNL     1      -0.618   5.655  20.649  1.00  0.00    -0.400 OA
ATOM     29  H2  UNL     1       0.125   6.065  21.075  1.00  0.00     0.209 HD
ENDBRANCH  27  28
ENDBRANCH   1  27
BRANCH  19  30
HETATM   30  O5  UNL     1       0.112   3.244  25.450  1.00  0.00    -0.395 OA
ATOM     31  H5  UNL     1       0.655   3.017  24.704  1.00  0.00     0.210 HD
ENDBRANCH  19  30
BRANCH  13  32
HETATM   32  O4  UNL     1       0.443   3.860  29.992  1.00  0.00    -0.396 OA
ATOM     33  H4  UNL     1       0.217   4.307  30.799  1.00  0.00     0.210 HD
ENDBRANCH  13  32
TORSDOF 8
ENDMDL
MODEL 3
REMARK VINA RESULT: -6.553440930      3.489      6.466
REMARK  8 active torsions:
REMARK  status: ('A' for Active; 'I' for Inactive)
REMARK    1  A    between atoms: O1_2  and  C2_3 
REMARK    2  A    between atoms: C2_3  and  C3_4 
REMARK    3  A    between atoms: C3_4  and  C4_5 
REMARK    4  A    between atoms: C4_5  and  C5_6 
REMARK    5  A    between atoms: C5_6  and  C6_7 
REMARK    6  A    between atoms: C6_7  and  O2_8 
REMARK    7  A    between atoms: C17_21  and  O4_22 
REMARK    8  A    between atoms: C23_29  and  O5_30 
ROOT
HETATM    1  C5  UNL     1      -2.580   4.949  21.635  1.00  0.00    -0.015 C 
HETATM    2  C7  UNL     1      -3.451   3.855  21.064  1.00  0.00     0.012 C 
HETATM    3  C8  UNL     1      -4.557   3.393  21.917  1.00  0.00     0.005 C 
HETATM    4  C9  UNL     1      -4.376   3.440  23.383  1.00  0.00    -0.014 C 
HETATM    5  C10 UNL     1      -5.701   3.831  24.074  1.00  0.00     0.010 C 
HETATM    6  C11 UNL     1      -3.328   4.319  23.922  1.00  0.00    -0.001 C 
HETATM    7  C12 UNL     1      -2.833   3.745  25.253  1.00  0.00     0.004 C 
HETATM    8  C13 UNL     1      -2.107   4.780  26.051  1.00  0.00     0.084 C 
HETATM    9  C14 UNL     1      -1.469   4.181  27.226  1.00  0.00     0.132 C 
HETATM   10  O3  UNL     1      -1.146   4.956  28.140  1.00  0.00    -0.298 OA
HETATM   11  C15 UNL     1      -1.172   2.763  27.433  1.00  0.00     0.066 C 
HETATM   12  C16 UNL     1       0.316   2.605  27.617  1.00  0.00     0.044 C 
HETATM   13  C17 UNL     1       0.546   1.194  28.050  1.00  0.00     0.119 C 
HETATM   14  C18 UNL     1       0.140   0.268  26.953  1.00  0.00     0.032 C 
HETATM   15  C19 UNL     1      -1.157   0.511  26.307  1.00  0.00     0.013 C 
HETATM   16  C20 UNL     1      -1.761   1.865  26.391  1.00  0.00    -0.027 C 
HETATM   17  C21 UNL     1      -3.222   1.635  26.857  1.00  0.00     0.016 C 
HETATM   18  C22 UNL     1      -1.945   2.540  25.044  1.00  0.00     0.028 C 
HETATM   19  C23 UNL     1      -0.719   3.047  24.389  1.00  0.00     0.123 C 
HETATM   20  C24 UNL     1      -1.129   3.543  23.018  1.00  0.00     0.038 C 
HETATM   21  C25 UNL     1      -2.163   4.641  23.042  1.00  0.00     0.003 C 
ENDROOT
BRANCH   1  22
HETATM   22  C4  UNL     1      -3.033   6.314  21.331  1.00  0.00     0.014 C 
BRANCH  22  23
HETATM   23  C3  UNL     1      -4.017   6.612  20.287  1.00  0.00     0.027 C 
BRANCH  23  24
HETATM   24  C2  UNL     1      -3.712   7.939  19.566  1.00  0.00     0.167 C 
BRANCH  24  25
HETATM   25  O1  UNL     1      -2.417   7.981  19.119  1.00  0.00    -0.396 OA
HETATM   26  C1  UNL     1      -1.865   9.190  19.461  1.00  0.00     0.201 C 
ENDBRANCH  24  25
ENDBRANCH  23  24
ENDBRANCH  22  23
ENDBRANCH   1  22
BRANCH   1  27
HETATM   27  C6  UNL     1      -1.264   4.828  20.794  1.00  0.00     0.173 C 
BRANCH  27  28
HETATM   28  O2  UNL     1      -0.688   6.038  20.547  1.00  0.00    -0.400 OA
ATOM     29  H2  UNL     1       0.040   5.977  19.941  1.00  0.00     0.209 HD
ENDBRANCH  27  28
ENDBRANCH   1  27
BRANCH  19  30
HETATM   30  O5  UNL     1       0.254   2.075  24.125  1.00  0.00    -0.395 OA
ATOM     31  H5  UNL     1       0.796   2.247  23.364  1.00  0.00     0.210 HD
ENDBRANCH  19  30
BRANCH  13  32
HETATM   32  O4  UNL     1       1.915   1.032  28.282  1.00  0.00    -0.396 OA
ATOM     33  H4  UNL     1       2.380   1.346  27.516  1.00  0.00     0.210 HD
ENDBRANCH  13  32
TORSDOF 8
ENDMDL
MODEL 4
REMARK VINA RESULT: -6.434792304      1.188      1.653
REMARK  8 active torsions:
REMARK  status: ('A' for Active; 'I' for Inactive)
REMARK    1  A    between atoms: O1_2  and  C2_3 
REMARK    2  A    between atoms: C2_3  and  C3_4 
REMARK    3  A    between atoms: C3_4  and  C4_5 
REMARK    4  A    between atoms: C4_5  and  C5_6 
REMARK    5  A    between atoms: C5_6  and  C6_7 
REMARK    6  A    between atoms: C6_7  and  O2_8 
REMARK    7  A    between atoms: C17_21  and  O4_22 
REMARK    8  A    between atoms: C23_29  and  O5_30 
ROOT
HETATM    1  C5  UNL     1      -0.532   2.590  27.401  1.00  0.00    -0.015 C 
HETATM    2  C7  UNL     1      -1.835   1.972  26.952  1.00  0.00     0.012 C 
HETATM    3  C8  UNL     1      -2.833   2.895  26.388  1.00  0.00     0.005 C 
HETATM    4  C9  UNL     1      -2.863   4.285  26.891  1.00  0.00    -0.014 C 
HETATM    5  C10 UNL     1      -3.185   5.263  25.740  1.00  0.00     0.010 C 
HETATM    6  C11 UNL     1      -1.668   4.797  27.577  1.00  0.00    -0.001 C 
HETATM    7  C12 UNL     1      -2.093   5.874  28.578  1.00  0.00     0.004 C 
HETATM    8  C13 UNL     1      -0.931   6.725  28.981  1.00  0.00     0.084 C 
HETATM    9  C14 UNL     1      -1.298   7.622  30.080  1.00  0.00     0.132 C 
HETATM   10  O3  UNL     1      -0.562   8.604  30.268  1.00  0.00    -0.298 OA
HETATM   11  C15 UNL     1      -2.443   7.481  30.981  1.00  0.00     0.066 C 
HETATM   12  C16 UNL     1      -1.932   7.363  32.395  1.00  0.00     0.044 C 
HETATM   13  C17 UNL     1      -3.125   7.453  33.289  1.00  0.00     0.119 C 
HETATM   14  C18 UNL     1      -4.014   6.279  33.047  1.00  0.00     0.032 C 
HETATM   15  C19 UNL     1      -4.315   5.936  31.650  1.00  0.00     0.013 C 
HETATM   16  C20 UNL     1      -3.395   6.399  30.580  1.00  0.00    -0.027 C 
HETATM   17  C21 UNL     1      -4.307   7.059  29.513  1.00  0.00     0.016 C 
HETATM   18  C22 UNL     1      -2.739   5.272  29.804  1.00  0.00     0.028 C 
HETATM   19  C23 UNL     1      -1.669   4.527  30.503  1.00  0.00     0.123 C 
HETATM   20  C24 UNL     1      -1.271   3.381  29.599  1.00  0.00     0.038 C 
HETATM   21  C25 UNL     1      -0.765   3.809  28.244  1.00  0.00     0.003 C 
ENDROOT
BRANCH   1  22
HETATM   22  C4  UNL     1       0.506   2.656  26.363  1.00  0.00     0.014 C 
BRANCH  22  23
HETATM   23  C3  UNL     1       0.302   2.151  25.002  1.00  0.00     0.027 C 
BRANCH  23  24
HETATM   24  C2  UNL     1       0.990   0.791  24.780  1.00  0.00     0.167 C 
BRANCH  24  25
HETATM   25  O1  UNL     1       2.059   0.626  25.622  1.00  0.00    -0.396 OA
HETATM   26  C1  UNL     1       2.718  -0.530  25.288  1.00  0.00     0.201 C 
ENDBRANCH  24  25
ENDBRANCH  23  24
ENDBRANCH  22  23
ENDBRANCH   1  22
BRANCH   1  27
HETATM   27  C6  UNL     1       0.041   1.524  28.394  1.00  0.00     0.173 C 
BRANCH  27  28
HETATM   28  O2  UNL     1       1.401   1.454  28.358  1.00  0.00    -0.400 OA
ATOM     29  H2  UNL     1       1.814   2.281  28.579  1.00  0.00     0.209 HD
ENDBRANCH  27  28
ENDBRANCH   1  27
BRANCH  19  30
HETATM   30  O5  UNL     1      -2.065   3.903  31.694  1.00  0.00    -0.395 OA
ATOM     31  H5  UNL     1      -1.417   3.919  32.388  1.00  0.00     0.210 HD
ENDBRANCH  19  30
BRANCH  13  32
HETATM   32  O4  UNL     1      -2.675   7.401  34.612  1.00  0.00    -0.396 OA
ATOM     33  H4  UNL     1      -3.433   7.466  35.181  1.00  0.00     0.210 HD
ENDBRANCH  13  32
TORSDOF 8
ENDMDL
MODEL 5
REMARK VINA RESULT: -6.371308945      2.672      7.868
REMARK  8 active torsions:
REMARK  status: ('A' for Active; 'I' for Inactive)
REMARK    1  A    between atoms: O1_2  and  C2_3 
REMARK    2  A    between atoms: C2_3  and  C3_4 
REMARK    3  A    between atoms: C3_4  and  C4_5 
REMARK    4  A    between atoms: C4_5  and  C5_6 
REMARK    5  A    between atoms: C5_6  and  C6_7 
REMARK    6  A    between atoms: C6_7  and  O2_8 
REMARK    7  A    between atoms: C17_21  and  O4_22 
REMARK    8  A    between atoms: C23_29  and  O5_30 
ROOT
HETATM    1  C5  UNL     1      -2.293   5.456  27.860  1.00  0.00    -0.015 C 
HETATM    2  C7  UNL     1      -2.369   4.226  28.734  1.00  0.00     0.012 C 
HETATM    3  C8  UNL     1      -1.489   3.107  28.362  1.00  0.00     0.005 C 
HETATM    4  C9  UNL     1      -1.161   2.921  26.933  1.00  0.00    -0.014 C 
HETATM    5  C10 UNL     1       0.301   2.448  26.776  1.00  0.00     0.010 C 
HETATM    6  C11 UNL     1      -1.350   4.063  26.027  1.00  0.00    -0.001 C 
HETATM    7  C12 UNL     1      -1.644   3.537  24.618  1.00  0.00     0.004 C 
HETATM    8  C13 UNL     1      -1.415   4.597  23.588  1.00  0.00     0.084 C 
HETATM    9  C14 UNL     1      -1.883   4.154  22.272  1.00  0.00     0.132 C 
HETATM   10  O3  UNL     1      -1.443   4.770  21.288  1.00  0.00    -0.298 OA
HETATM   11  C15 UNL     1      -2.817   3.061  21.997  1.00  0.00     0.066 C 
HETATM   12  C16 UNL     1      -4.016   3.623  21.276  1.00  0.00     0.044 C 
HETATM   13  C17 UNL     1      -4.825   2.454  20.816  1.00  0.00     0.119 C 
HETATM   14  C18 UNL     1      -5.336   1.709  22.003  1.00  0.00     0.032 C 
HETATM   15  C19 UNL     1      -4.381   1.412  23.080  1.00  0.00     0.013 C 
HETATM   16  C20 UNL     1      -3.152   2.238  23.200  1.00  0.00    -0.027 C 
HETATM   17  C21 UNL     1      -1.986   1.223  23.314  1.00  0.00     0.016 C 
HETATM   18  C22 UNL     1      -3.053   3.005  24.506  1.00  0.00     0.028 C 
HETATM   19  C23 UNL     1      -3.944   4.178  24.649  1.00  0.00     0.123 C 
HETATM   20  C24 UNL     1      -3.770   4.688  26.064  1.00  0.00     0.038 C 
HETATM   21  C25 UNL     1      -2.360   5.098  26.404  1.00  0.00     0.003 C 
ENDROOT
BRANCH   1  22
HETATM   22  C4  UNL     1      -1.294   6.448  28.283  1.00  0.00     0.014 C 
BRANCH  22  23
HETATM   23  C3  UNL     1      -0.858   6.592  29.675  1.00  0.00     0.027 C 
BRANCH  23  24
HETATM   24  C2  UNL     1      -1.206   7.979  30.249  1.00  0.00     0.167 C 
BRANCH  24  25
HETATM   25  O1  UNL     1      -2.388   7.953  30.942  1.00  0.00    -0.396 OA
HETATM   26  C1  UNL     1      -2.221   7.210  32.084  1.00  0.00     0.201 C 
ENDBRANCH  24  25
ENDBRANCH  23  24
ENDBRANCH  22  23
ENDBRANCH   1  22
BRANCH   1  27
HETATM   27  C6  UNL     1      -3.647   6.183  28.154  1.00  0.00     0.173 C 
BRANCH  27  28
HETATM   28  O2  UNL     1      -4.144   5.885  29.387  1.00  0.00    -0.400 OA
ATOM     29  H2  UNL     1      -3.919   6.539  30.038  1.00  0.00     0.209 HD
ENDBRANCH  27  28
ENDBRANCH   1  27
BRANCH  19  30
HETATM   30  O5  UNL     1      -5.312   3.896  24.551  1.00  0.00    -0.395 OA
ATOM     31  H5  UNL     1      -5.816   4.082  25.335  1.00  0.00     0.210 HD
ENDBRANCH  19  30
BRANCH  13  32
HETATM   32  O4  UNL     1      -5.918   2.943  20.096  1.00  0.00    -0.396 OA
ATOM     33  H4  UNL     1      -5.592   3.312  19.284  1.00  0.00     0.210 HD
ENDBRANCH  13  32
TORSDOF 8
ENDMDL
