MODEL 1
REMARK VINA RESULT: -7.207982401      0.000      0.000
REMARK  8 active torsions:
REMARK  status: ('A' for Active; 'I' for Inactive)
REMARK    1  A    between atoms: C2_2  and  C4_4 
REMARK    2  A    between atoms: C4_4  and  C5_5 
REMARK    3  A    between atoms: C4_4  and  N1_8 
REMARK    4  A    between atoms: C5_5  and  O1_6 
REMARK       I    between atoms: N1_8  and  C6_10 
REMARK    5  A    between atoms: C6_10  and  C7_12 
REMARK    6  A    between atoms: C12_19  and  O3_20 
REMARK    7  A    between atoms: O3_20  and  C13_21 
REMARK    8  A    between atoms: C13_21  and  C14_23 
ROOT
HETATM    1  C7  UNL     1      -0.354   3.548  22.391  1.00  0.00     0.176 C 
HETATM    2  N2  UNL     1      -0.415   2.101  22.106  1.00  0.00    -0.405 N 
ATOM      3  H2  UNL     1       0.155   1.668  21.380  1.00  0.00     0.154 HD
HETATM    4  C8  UNL     1      -1.305   1.357  22.894  1.00  0.00     0.080 C 
HETATM    5  C9  UNL     1      -2.731   1.881  22.851  1.00  0.00     0.025 C 
HETATM    6  C10 UNL     1      -2.724   3.404  23.071  1.00  0.00     0.011 C 
HETATM    7  C11 UNL     1      -1.336   3.757  23.566  1.00  0.00     0.047 C 
HETATM    8  C12 UNL     1      -1.112   2.884  24.739  1.00  0.00     0.140 C 
HETATM    9  C24 UNL     1      -0.811   1.431  24.328  1.00  0.00     0.057 C 
ENDROOT
BRANCH   8  10
HETATM   10  O3  UNL     1      -0.302   3.279  25.780  1.00  0.00    -0.315 OA
BRANCH  10  11
HETATM   11  C13 UNL     1      -0.680   3.076  27.115  1.00  0.00     0.268 C 
HETATM   12  O4  UNL     1      -0.320   2.013  27.657  1.00  0.00    -0.264 OA
BRANCH  11  13
HETATM   13  C14 UNL     1      -1.453   4.050  27.899  1.00  0.00     0.049 C 
HETATM   14  C15 UNL     1      -2.749   3.436  28.361  1.00  0.00     0.024 C 
HETATM   15  C16 UNL     1      -3.468   4.426  29.263  1.00  0.00    -0.013 C 
HETATM   16  C17 UNL     1      -3.675   5.697  28.490  1.00  0.00     0.009 C 
HETATM   17  C21 UNL     1      -2.643   4.672  30.497  1.00  0.00     0.009 C 
HETATM   18  C18 UNL     1      -2.340   6.301  28.137  1.00  0.00    -0.013 C 
HETATM   19  C19 UNL     1      -1.457   6.528  29.324  1.00  0.00     0.009 C 
HETATM   20  C23 UNL     1      -1.641   5.355  27.189  1.00  0.00     0.024 C 
HETATM   21  C20 UNL     1      -1.319   5.229  30.092  1.00  0.00    -0.013 C 
HETATM   22  C22 UNL     1      -0.629   4.250  29.189  1.00  0.00     0.024 C 
ENDBRANCH  11  13
ENDBRANCH  10  11
ENDBRANCH   8  10
BRANCH   1  23
HETATM   23  C6  UNL     1      -1.053   4.133  21.224  1.00  0.00     0.240 C 
HETATM   24  N1  UNL     1      -1.474   5.534  21.273  1.00  0.00    -0.352 N 
ATOM     25  H1  UNL     1      -1.379   6.079  22.130  1.00  0.00     0.163 HD
HETATM   26  O2  UNL     1      -1.275   3.511  20.175  1.00  0.00    -0.271 OA
BRANCH  24  27
HETATM   27  C4  UNL     1      -2.017   6.117  20.101  1.00  0.00     0.111 C 
BRANCH  27  28
HETATM   28  C2  UNL     1      -3.396   6.564  19.995  1.00  0.00     0.002 C 
HETATM   29  C1  UNL     1      -4.278   6.267  21.172  1.00  0.00     0.011 C 
HETATM   30  C3  UNL     1      -3.425   8.072  19.731  1.00  0.00     0.011 C 
ENDBRANCH  27  28
BRANCH  27  31
HETATM   31  C5  UNL     1      -1.105   7.338  19.722  1.00  0.00     0.189 C 
BRANCH  31  32
HETATM   32  O1  UNL     1       0.231   6.925  19.698  1.00  0.00    -0.399 OA
ATOM     33  H1  UNL     1       0.331   6.161  20.254  1.00  0.00     0.209 HD
ENDBRANCH  31  32
ENDBRANCH  27  31
ENDBRANCH  24  27
ENDBRANCH   1  23
TORSDOF 8
ENDMDL
MODEL 2
REMARK VINA RESULT: -7.178806884      1.546      2.134
REMARK  8 active torsions:
REMARK  status: ('A' for Active; 'I' for Inactive)
REMARK    1  A    between atoms: C2_2  and  C4_4 
REMARK    2  A    between atoms: C4_4  and  C5_5 
REMARK    3  A    between atoms: C4_4  and  N1_8 
REMARK    4  A    between atoms: C5_5  and  O1_6 
REMARK       I    between atoms: N1_8  and  C6_10 
REMARK    5  A    between atoms: C6_10  and  C7_12 
REMARK    6  A    between atoms: C12_19  and  O3_20 
REMARK    7  A    between atoms: O3_20  and  C13_21 
REMARK    8  A    between atoms: C13_21  and  C14_23 
ROOT
HETATM    1  C7  UNL     1      -1.361   4.498  22.702  1.00  0.00     0.176 C 
HETATM    2  N2  UNL     1      -1.499   3.036  22.556  1.00  0.00    -0.405 N 
ATOM      3  H2  UNL     1      -0.788   2.469  22.094  1.00  0.00     0.154 HD
HETATM    4  C8  UNL     1      -2.666   2.473  23.090  1.00  0.00     0.080 C 
HETATM    5  C9  UNL     1      -3.941   3.097  22.546  1.00  0.00     0.025 C 
HETATM    6  C10 UNL     1      -3.825   4.630  22.606  1.00  0.00     0.011 C 
HETATM    7  C11 UNL     1      -2.624   4.934  23.478  1.00  0.00     0.047 C 
HETATM    8  C12 UNL     1      -2.872   4.206  24.742  1.00  0.00     0.140 C 
HETATM    9  C24 UNL     1      -2.630   2.692  24.592  1.00  0.00     0.057 C 
ENDROOT
BRANCH   8  10
HETATM   10  O3  UNL     1      -2.379   4.667  25.941  1.00  0.00    -0.315 OA
BRANCH  10  11
HETATM   11  C13 UNL     1      -3.222   5.245  26.901  1.00  0.00     0.268 C 
HETATM   12  O4  UNL     1      -4.415   5.422  26.585  1.00  0.00    -0.264 OA
BRANCH  11  13
HETATM   13  C14 UNL     1      -2.778   5.631  28.247  1.00  0.00     0.049 C 
HETATM   14  C15 UNL     1      -2.478   4.404  29.069  1.00  0.00     0.024 C 
HETATM   15  C16 UNL     1      -1.911   4.837  30.412  1.00  0.00    -0.013 C 
HETATM   16  C17 UNL     1      -2.913   5.741  31.071  1.00  0.00     0.009 C 
HETATM   17  C21 UNL     1      -0.601   5.545  30.199  1.00  0.00     0.009 C 
HETATM   18  C18 UNL     1      -3.098   6.986  30.241  1.00  0.00    -0.013 C 
HETATM   19  C19 UNL     1      -1.819   7.710  29.959  1.00  0.00     0.009 C 
HETATM   20  C23 UNL     1      -3.720   6.576  28.926  1.00  0.00     0.024 C 
HETATM   21  C20 UNL     1      -0.831   6.744  29.339  1.00  0.00    -0.013 C 
HETATM   22  C22 UNL     1      -1.405   6.302  28.025  1.00  0.00     0.024 C 
ENDBRANCH  11  13
ENDBRANCH  10  11
ENDBRANCH   8  10
BRANCH   1  23
HETATM   23  C6  UNL     1      -1.598   4.980  21.322  1.00  0.00     0.240 C 
HETATM   24  N1  UNL     1      -2.063   6.353  21.116  1.00  0.00    -0.352 N 
ATOM     25  H1  UNL     1      -2.317   6.943  21.908  1.00  0.00     0.163 HD
HETATM   26  O2  UNL     1      -1.386   4.296  20.310  1.00  0.00    -0.271 OA
BRANCH  24  27
HETATM   27  C4  UNL     1      -2.153   6.843  19.789  1.00  0.00     0.111 C 
BRANCH  27  28
HETATM   28  C2  UNL     1      -3.033   7.932  19.397  1.00  0.00     0.002 C 
HETATM   29  C1  UNL     1      -4.283   8.096  20.210  1.00  0.00     0.011 C 
HETATM   30  C3  UNL     1      -2.254   9.251  19.425  1.00  0.00     0.011 C 
ENDBRANCH  27  28
BRANCH  27  31
HETATM   31  C5  UNL     1      -0.701   7.236  19.338  1.00  0.00     0.189 C 
BRANCH  31  32
HETATM   32  O1  UNL     1      -0.327   6.439  18.250  1.00  0.00    -0.399 OA
ATOM     33  H1  UNL     1       0.393   6.856  17.792  1.00  0.00     0.209 HD
ENDBRANCH  31  32
ENDBRANCH  27  31
ENDBRANCH  24  27
ENDBRANCH   1  23
TORSDOF 8
ENDMDL
MODEL 3
REMARK VINA RESULT: -7.143246858      0.165      1.320
REMARK  8 active torsions:
REMARK  status: ('A' for Active; 'I' for Inactive)
REMARK    1  A    between atoms: C2_2  and  C4_4 
REMARK    2  A    between atoms: C4_4  and  C5_5 
REMARK    3  A    between atoms: C4_4  and  N1_8 
REMARK    4  A    between atoms: C5_5  and  O1_6 
REMARK       I    between atoms: N1_8  and  C6_10 
REMARK    5  A    between atoms: C6_10  and  C7_12 
REMARK    6  A    between atoms: C12_19  and  O3_20 
REMARK    7  A    between atoms: O3_20  and  C13_21 
REMARK    8  A    between atoms: C13_21  and  C14_23 
ROOT
HETATM    1  C7  UNL     1      -0.409   3.602  22.351  1.00  0.00     0.176 C 
HETATM    2  N2  UNL     1      -0.518   2.155  22.081  1.00  0.00    -0.405 N 
ATOM      3  H2  UNL     1       0.025   1.699  21.349  1.00  0.00     0.154 HD
HETATM    4  C8  UNL     1      -1.415   1.445  22.891  1.00  0.00     0.080 C 
HETATM    5  C9  UNL     1      -2.826   2.011  22.869  1.00  0.00     0.025 C 
HETATM    6  C10 UNL     1      -2.769   3.535  23.074  1.00  0.00     0.011 C 
HETATM    7  C11 UNL     1      -1.363   3.850  23.541  1.00  0.00     0.047 C 
HETATM    8  C12 UNL     1      -1.144   2.982  24.718  1.00  0.00     0.140 C 
HETATM    9  C24 UNL     1      -0.894   1.516  24.316  1.00  0.00     0.057 C 
ENDROOT
BRANCH   8  10
HETATM   10  O3  UNL     1      -0.304   3.362  25.740  1.00  0.00    -0.315 OA
BRANCH  10  11
HETATM   11  C13 UNL     1      -0.595   3.049  27.076  1.00  0.00     0.268 C 
HETATM   12  O4  UNL     1      -0.114   1.995  27.536  1.00  0.00    -0.264 OA
BRANCH  11  13
HETATM   13  C14 UNL     1      -1.412   3.900  27.952  1.00  0.00     0.049 C 
HETATM   14  C15 UNL     1      -0.687   4.164  29.247  1.00  0.00     0.024 C 
HETATM   15  C16 UNL     1      -1.506   5.138  30.079  1.00  0.00    -0.013 C 
HETATM   16  C17 UNL     1      -2.867   4.542  30.291  1.00  0.00     0.009 C 
HETATM   17  C21 UNL     1      -1.599   6.457  29.361  1.00  0.00     0.009 C 
HETATM   18  C18 UNL     1      -3.568   4.388  28.966  1.00  0.00    -0.013 C 
HETATM   19  C19 UNL     1      -3.651   5.662  28.185  1.00  0.00     0.009 C 
HETATM   20  C23 UNL     1      -2.799   3.373  28.152  1.00  0.00     0.024 C 
HETATM   21  C20 UNL     1      -2.260   6.244  28.039  1.00  0.00    -0.013 C 
HETATM   22  C22 UNL     1      -1.451   5.268  27.237  1.00  0.00     0.024 C 
ENDBRANCH  11  13
ENDBRANCH  10  11
ENDBRANCH   8  10
BRANCH   1  23
HETATM   23  C6  UNL     1      -1.111   4.197  21.191  1.00  0.00     0.240 C 
HETATM   24  N1  UNL     1      -1.491   5.610  21.235  1.00  0.00    -0.352 N 
ATOM     25  H1  UNL     1      -1.365   6.159  22.086  1.00  0.00     0.163 HD
HETATM   26  O2  UNL     1      -1.368   3.574  20.151  1.00  0.00    -0.271 OA
BRANCH  24  27
HETATM   27  C4  UNL     1      -2.037   6.199  20.067  1.00  0.00     0.111 C 
BRANCH  27  28
HETATM   28  C2  UNL     1      -3.414   6.656  19.971  1.00  0.00     0.002 C 
HETATM   29  C1  UNL     1      -4.282   6.391  21.166  1.00  0.00     0.011 C 
HETATM   30  C3  UNL     1      -3.432   8.159  19.678  1.00  0.00     0.011 C 
ENDBRANCH  27  28
BRANCH  27  31
HETATM   31  C5  UNL     1      -1.118   7.414  19.684  1.00  0.00     0.189 C 
BRANCH  31  32
HETATM   32  O1  UNL     1       0.217   6.997  19.681  1.00  0.00    -0.399 OA
ATOM     33  H1  UNL     1       0.367   6.436  18.930  1.00  0.00     0.209 HD
ENDBRANCH  31  32
ENDBRANCH  27  31
ENDBRANCH  24  27
ENDBRANCH   1  23
TORSDOF 8
ENDMDL
MODEL 4
REMARK VINA RESULT: -7.132216832      0.074      1.367
REMARK  8 active torsions:
REMARK  status: ('A' for Active; 'I' for Inactive)
REMARK    1  A    between atoms: C2_2  and  C4_4 
REMARK    2  A    between atoms: C4_4  and  C5_5 
REMARK    3  A    between atoms: C4_4  and  N1_8 
REMARK    4  A    between atoms: C5_5  and  O1_6 
REMARK       I    between atoms: N1_8  and  C6_10 
REMARK    5  A    between atoms: C6_10  and  C7_12 
REMARK    6  A    between atoms: C12_19  and  O3_20 
REMARK    7  A    between atoms: O3_20  and  C13_21 
REMARK    8  A    between atoms: C13_21  and  C14_23 
ROOT
HETATM    1  C7  UNL     1      -0.365   3.567  22.409  1.00  0.00     0.176 C 
HETATM    2  N2  UNL     1      -0.402   2.124  22.106  1.00  0.00    -0.405 N 
ATOM      3  H2  UNL     1       0.184   1.708  21.382  1.00  0.00     0.154 HD
HETATM    4  C8  UNL     1      -1.291   1.357  22.872  1.00  0.00     0.080 C 
HETATM    5  C9  UNL     1      -2.724   1.861  22.817  1.00  0.00     0.025 C 
HETATM    6  C10 UNL     1      -2.741   3.380  23.056  1.00  0.00     0.011 C 
HETATM    7  C11 UNL     1      -1.366   3.747  23.574  1.00  0.00     0.047 C 
HETATM    8  C12 UNL     1      -1.145   2.863  24.739  1.00  0.00     0.140 C 
HETATM    9  C24 UNL     1      -0.817   1.419  24.314  1.00  0.00     0.057 C 
ENDROOT
BRANCH   8  10
HETATM   10  O3  UNL     1      -0.354   3.256  25.795  1.00  0.00    -0.315 OA
BRANCH  10  11
HETATM   11  C13 UNL     1      -0.741   3.020  27.122  1.00  0.00     0.268 C 
HETATM   12  O4  UNL     1      -0.539   1.880  27.584  1.00  0.00    -0.264 OA
BRANCH  11  13
HETATM   13  C14 UNL     1      -1.347   4.042  27.987  1.00  0.00     0.049 C 
HETATM   14  C15 UNL     1      -1.585   5.310  27.208  1.00  0.00     0.024 C 
HETATM   15  C16 UNL     1      -2.316   6.303  28.097  1.00  0.00    -0.013 C 
HETATM   16  C17 UNL     1      -1.486   6.529  29.327  1.00  0.00     0.009 C 
HETATM   17  C21 UNL     1      -3.672   5.755  28.453  1.00  0.00     0.009 C 
HETATM   18  C18 UNL     1      -1.363   5.241  30.102  1.00  0.00    -0.013 C 
HETATM   19  C19 UNL     1      -2.683   4.625  30.446  1.00  0.00     0.009 C 
HETATM   20  C23 UNL     1      -0.581   4.265  29.254  1.00  0.00     0.024 C 
HETATM   21  C20 UNL     1      -3.497   4.462  29.179  1.00  0.00    -0.013 C 
HETATM   22  C22 UNL     1      -2.759   3.499  28.297  1.00  0.00     0.024 C 
ENDBRANCH  11  13
ENDBRANCH  10  11
ENDBRANCH   8  10
BRANCH   1  23
HETATM   23  C6  UNL     1      -1.058   4.157  21.241  1.00  0.00     0.240 C 
HETATM   24  N1  UNL     1      -1.480   5.558  21.293  1.00  0.00    -0.352 N 
ATOM     25  H1  UNL     1      -1.391   6.098  22.154  1.00  0.00     0.163 HD
HETATM   26  O2  UNL     1      -1.272   3.540  20.187  1.00  0.00    -0.271 OA
BRANCH  24  27
HETATM   27  C4  UNL     1      -2.015   6.146  20.120  1.00  0.00     0.111 C 
BRANCH  27  28
HETATM   28  C2  UNL     1      -3.391   6.605  20.013  1.00  0.00     0.002 C 
HETATM   29  C1  UNL     1      -4.282   6.299  21.180  1.00  0.00     0.011 C 
HETATM   30  C3  UNL     1      -3.405   8.117  19.769  1.00  0.00     0.011 C 
ENDBRANCH  27  28
BRANCH  27  31
HETATM   31  C5  UNL     1      -1.092   7.358  19.743  1.00  0.00     0.189 C 
BRANCH  31  32
HETATM   32  O1  UNL     1       0.238   6.927  19.701  1.00  0.00    -0.399 OA
ATOM     33  H1  UNL     1       0.573   7.034  18.818  1.00  0.00     0.209 HD
ENDBRANCH  31  32
ENDBRANCH  27  31
ENDBRANCH  24  27
ENDBRANCH   1  23
TORSDOF 8
ENDMDL
MODEL 5
REMARK VINA RESULT: -7.104586367      1.473      2.029
REMARK  8 active torsions:
REMARK  status: ('A' for Active; 'I' for Inactive)
REMARK    1  A    between atoms: C2_2  and  C4_4 
REMARK    2  A    between atoms: C4_4  and  C5_5 
REMARK    3  A    between atoms: C4_4  and  N1_8 
REMARK    4  A    between atoms: C5_5  and  O1_6 
REMARK       I    between atoms: N1_8  and  C6_10 
REMARK    5  A    between atoms: C6_10  and  C7_12 
REMARK    6  A    between atoms: C12_19  and  O3_20 
REMARK    7  A    between atoms: O3_20  and  C13_21 
REMARK    8  A    between atoms: C13_21  and  C14_23 
ROOT
HETATM    1  C7  UNL     1      -1.299   4.400  22.654  1.00  0.00     0.176 C 
HETATM    2  N2  UNL     1      -1.390   2.938  22.472  1.00  0.00    -0.405 N 
ATOM      3  H2  UNL     1      -0.665   2.407  21.989  1.00  0.00     0.154 HD
HETATM    4  C8  UNL     1      -2.532   2.322  23.002  1.00  0.00     0.080 C 
HETATM    5  C9  UNL     1      -3.832   2.917  22.486  1.00  0.00     0.025 C 
HETATM    6  C10 UNL     1      -3.767   4.451  22.584  1.00  0.00     0.011 C 
HETATM    7  C11 UNL     1      -2.568   4.773  23.452  1.00  0.00     0.047 C 
HETATM    8  C12 UNL     1      -2.779   4.006  24.699  1.00  0.00     0.140 C 
HETATM    9  C24 UNL     1      -2.488   2.505  24.509  1.00  0.00     0.057 C 
ENDROOT
BRANCH   8  10
HETATM   10  O3  UNL     1      -2.290   4.453  25.905  1.00  0.00    -0.315 OA
BRANCH  10  11
HETATM   11  C13 UNL     1      -3.117   5.106  26.830  1.00  0.00     0.268 C 
HETATM   12  O4  UNL     1      -4.324   5.217  26.541  1.00  0.00    -0.264 OA
BRANCH  11  13
HETATM   13  C14 UNL     1      -2.640   5.640  28.113  1.00  0.00     0.049 C 
HETATM   14  C15 UNL     1      -3.705   6.497  28.750  1.00  0.00     0.024 C 
HETATM   15  C16 UNL     1      -3.225   6.937  30.123  1.00  0.00    -0.013 C 
HETATM   16  C17 UNL     1      -1.925   7.668  29.952  1.00  0.00     0.009 C 
HETATM   17  C21 UNL     1      -3.056   5.731  31.007  1.00  0.00     0.009 C 
HETATM   18  C18 UNL     1      -0.884   6.730  29.395  1.00  0.00    -0.013 C 
HETATM   19  C19 UNL     1      -0.703   5.488  30.211  1.00  0.00     0.009 C 
HETATM   20  C23 UNL     1      -1.318   6.334  28.002  1.00  0.00     0.024 C 
HETATM   21  C20 UNL     1      -2.049   4.816  30.392  1.00  0.00    -0.013 C 
HETATM   22  C22 UNL     1      -2.527   4.404  29.031  1.00  0.00     0.024 C 
ENDBRANCH  11  13
ENDBRANCH  10  11
ENDBRANCH   8  10
BRANCH   1  23
HETATM   23  C6  UNL     1      -1.566   4.908  21.289  1.00  0.00     0.240 C 
HETATM   24  N1  UNL     1      -2.047   6.280  21.120  1.00  0.00    -0.352 N 
ATOM     25  H1  UNL     1      -2.291   6.852  21.929  1.00  0.00     0.163 HD
HETATM   26  O2  UNL     1      -1.367   4.247  20.259  1.00  0.00    -0.271 OA
BRANCH  24  27
HETATM   27  C4  UNL     1      -2.165   6.797  19.805  1.00  0.00     0.111 C 
BRANCH  27  28
HETATM   28  C2  UNL     1      -3.070   7.878  19.450  1.00  0.00     0.002 C 
HETATM   29  C1  UNL     1      -4.285   8.034  20.317  1.00  0.00     0.011 C 
HETATM   30  C3  UNL     1      -2.302   9.203  19.441  1.00  0.00     0.011 C 
ENDBRANCH  27  28
BRANCH  27  31
HETATM   31  C5  UNL     1      -0.728   7.225  19.341  1.00  0.00     0.189 C 
BRANCH  31  32
HETATM   32  O1  UNL     1      -0.341   6.434  18.254  1.00  0.00    -0.399 OA
ATOM     33  H1  UNL     1       0.362   6.869  17.787  1.00  0.00     0.209 HD
ENDBRANCH  31  32
ENDBRANCH  27  31
ENDBRANCH  24  27
ENDBRANCH   1  23
TORSDOF 8
ENDMDL
