MODEL 1
REMARK VINA RESULT: -6.223692237      0.000      0.000
REMARK  10 active torsions:
REMARK  status: ('A' for Active; 'I' for Inactive)
REMARK    1  A    between atoms: C2_2  and  N1_3 
REMARK    2  A    between atoms: C2_2  and  C20_31 
REMARK       I    between atoms: N1_3  and  C3_5 
REMARK    3  A    between atoms: C3_5  and  C4_7 
REMARK       I    between atoms: N2_12  and  C9_13 
REMARK    4  A    between atoms: C9_13  and  C10_15 
REMARK    5  A    between atoms: C10_15  and  N3_16 
REMARK    6  A    between atoms: C10_15  and  C16_27 
REMARK       I    between atoms: N3_16  and  C11_18 
REMARK    7  A    between atoms: C11_18  and  O4_20 
REMARK    8  A    between atoms: O4_20  and  C12_21 
REMARK    9  A    between atoms: C12_21  and  C13_22 
REMARK   10  A    between atoms: C13_22  and  O5_25 
ROOT
HETATM    1  C4  UNL     1      -0.100   2.984  26.429  1.00  0.00     0.179 C 
HETATM    2  C5  UNL     1       0.686   1.798  26.932  1.00  0.00     0.035 C 
HETATM    3  C6  UNL     1       0.939   0.811  25.829  1.00  0.00     0.004 C 
HETATM    4  C7  UNL     1      -0.366   0.174  25.379  1.00  0.00     0.020 C 
HETATM    5  C8  UNL     1      -1.483   1.216  25.409  1.00  0.00     0.127 C 
HETATM    6  N2  UNL     1      -0.894   2.545  25.296  1.00  0.00    -0.337 N 
HETATM    7  C9  UNL     1      -1.049   3.324  24.156  1.00  0.00     0.244 C 
HETATM    8  O2  UNL     1      -0.403   4.445  24.168  1.00  0.00    -0.271 OA
ENDROOT
BRANCH   7   9
HETATM    9  C10 UNL     1      -1.830   3.057  22.945  1.00  0.00     0.186 C 
BRANCH   9  10
HETATM   10  N3  UNL     1      -0.900   3.131  21.820  1.00  0.00    -0.323 N 
HETATM   11  C11 UNL     1      -0.345   1.934  21.243  1.00  0.00     0.361 C 
HETATM   12  O3  UNL     1      -0.686   0.829  21.735  1.00  0.00    -0.238 OA
ATOM     13  H3  UNL     1      -0.641   4.041  21.440  1.00  0.00     0.165 HD
BRANCH  11  14
HETATM   14  O4  UNL     1       0.511   1.935  20.214  1.00  0.00    -0.301 OA
BRANCH  14  15
HETATM   15  C12 UNL     1       1.262   1.040  19.538  1.00  0.00     0.217 C 
BRANCH  15  16
HETATM   16  C13 UNL     1       0.741   0.269  18.394  1.00  0.00     0.072 C 
HETATM   17  C14 UNL     1       1.235  -1.158  18.342  1.00  0.00     0.047 C 
HETATM   18  C15 UNL     1      -0.745   0.299  18.234  1.00  0.00     0.047 C 
BRANCH  16  19
HETATM   19  O5  UNL     1       1.255   0.882  17.202  1.00  0.00    -0.388 OA
ATOM     20  H5  UNL     1       0.882   0.414  16.464  1.00  0.00     0.210 HD
ENDBRANCH  16  19
ENDBRANCH  15  16
ENDBRANCH  14  15
ENDBRANCH  11  14
ENDBRANCH   9  10
BRANCH   9  21
HETATM   21  C16 UNL     1      -2.948   4.059  22.758  1.00  0.00    -0.022 C 
HETATM   22  C17 UNL     1      -2.454   5.293  22.053  1.00  0.00     0.017 C 
HETATM   23  C18 UNL     1      -4.024   3.429  21.916  1.00  0.00     0.017 C 
HETATM   24  C19 UNL     1      -3.496   4.527  24.100  1.00  0.00     0.017 C 
ENDBRANCH   9  21
ENDBRANCH   7   9
BRANCH   1  25
HETATM   25  C3  UNL     1      -0.853   3.652  27.486  1.00  0.00     0.241 C 
HETATM   26  N1  UNL     1      -1.476   4.907  27.236  1.00  0.00    -0.355 N 
ATOM     27  H1  UNL     1      -1.388   5.336  26.314  1.00  0.00     0.162 HD
HETATM   28  O1  UNL     1      -0.987   3.168  28.632  1.00  0.00    -0.271 OA
BRANCH  26  29
HETATM   29  C2  UNL     1      -2.239   5.593  28.277  1.00  0.00     0.084 C 
HETATM   30  C1  UNL     1      -3.575   6.042  27.704  1.00  0.00     0.032 C 
BRANCH  29  31
HETATM   31  C20 UNL     1      -1.449   6.769  28.788  1.00  0.00     0.008 A 
HETATM   32  C21 UNL     1      -0.501   6.563  29.921  1.00  0.00     0.007 A 
HETATM   33  C22 UNL     1      -1.755   7.295  30.167  1.00  0.00     0.007 A 
ENDBRANCH  29  31
ENDBRANCH  26  29
ENDBRANCH   1  25
TORSDOF 10
ENDMDL
MODEL 2
REMARK VINA RESULT: -6.178516649      3.309      4.063
REMARK  10 active torsions:
REMARK  status: ('A' for Active; 'I' for Inactive)
REMARK    1  A    between atoms: C2_2  and  N1_3 
REMARK    2  A    between atoms: C2_2  and  C20_31 
REMARK       I    between atoms: N1_3  and  C3_5 
REMARK    3  A    between atoms: C3_5  and  C4_7 
REMARK       I    between atoms: N2_12  and  C9_13 
REMARK    4  A    between atoms: C9_13  and  C10_15 
REMARK    5  A    between atoms: C10_15  and  N3_16 
REMARK    6  A    between atoms: C10_15  and  C16_27 
REMARK       I    between atoms: N3_16  and  C11_18 
REMARK    7  A    between atoms: C11_18  and  O4_20 
REMARK    8  A    between atoms: O4_20  and  C12_21 
REMARK    9  A    between atoms: C12_21  and  C13_22 
REMARK   10  A    between atoms: C13_22  and  O5_25 
ROOT
HETATM    1  C4  UNL     1      -1.446   3.939  26.692  1.00  0.00     0.179 C 
HETATM    2  C5  UNL     1      -0.269   2.999  26.775  1.00  0.00     0.035 C 
HETATM    3  C6  UNL     1      -0.279   2.019  25.637  1.00  0.00     0.004 C 
HETATM    4  C7  UNL     1      -1.464   1.074  25.763  1.00  0.00     0.020 C 
HETATM    5  C8  UNL     1      -2.675   1.838  26.297  1.00  0.00     0.127 C 
HETATM    6  N2  UNL     1      -2.516   3.255  25.989  1.00  0.00    -0.337 N 
HETATM    7  C9  UNL     1      -3.311   3.897  25.048  1.00  0.00     0.244 C 
HETATM    8  O2  UNL     1      -3.001   5.133  24.822  1.00  0.00    -0.271 OA
ENDROOT
BRANCH   7   9
HETATM    9  C10 UNL     1      -4.443   3.377  24.274  1.00  0.00     0.186 C 
BRANCH   9  10
HETATM   10  N3  UNL     1      -4.436   4.084  22.995  1.00  0.00    -0.323 N 
HETATM   11  C11 UNL     1      -3.951   3.442  21.801  1.00  0.00     0.361 C 
HETATM   12  O3  UNL     1      -3.537   2.259  21.893  1.00  0.00    -0.238 OA
ATOM     13  H3  UNL     1      -4.779   5.043  22.948  1.00  0.00     0.165 HD
BRANCH  11  14
HETATM   14  O4  UNL     1      -3.919   4.035  20.601  1.00  0.00    -0.301 OA
BRANCH  14  15
HETATM   15  C12 UNL     1      -4.038   5.282  20.098  1.00  0.00     0.217 C 
BRANCH  15  16
HETATM   16  C13 UNL     1      -3.208   6.408  20.565  1.00  0.00     0.072 C 
HETATM   17  C14 UNL     1      -1.722   6.166  20.441  1.00  0.00     0.047 C 
HETATM   18  C15 UNL     1      -3.558   7.738  19.978  1.00  0.00     0.047 C 
BRANCH  16  19
HETATM   19  O5  UNL     1      -3.444   6.552  21.974  1.00  0.00    -0.388 OA
ATOM     20  H5  UNL     1      -3.250   7.453  22.199  1.00  0.00     0.210 HD
ENDBRANCH  16  19
ENDBRANCH  15  16
ENDBRANCH  14  15
ENDBRANCH  11  14
ENDBRANCH   9  10
BRANCH   9  21
HETATM   21  C16 UNL     1      -5.762   3.597  24.980  1.00  0.00    -0.022 C 
HETATM   22  C17 UNL     1      -6.611   4.592  24.238  1.00  0.00     0.017 C 
HETATM   23  C18 UNL     1      -6.502   2.288  25.037  1.00  0.00     0.017 C 
HETATM   24  C19 UNL     1      -5.550   4.175  26.373  1.00  0.00     0.017 C 
ENDBRANCH   9  21
ENDBRANCH   7   9
BRANCH   1  25
HETATM   25  C3  UNL     1      -1.819   4.493  27.990  1.00  0.00     0.241 C 
HETATM   26  N1  UNL     1      -2.483   5.751  28.066  1.00  0.00    -0.355 N 
ATOM     27  H1  UNL     1      -2.691   6.260  27.208  1.00  0.00     0.162 HD
HETATM   28  O1  UNL     1      -1.583   3.907  29.070  1.00  0.00    -0.271 OA
BRANCH  26  29
HETATM   29  C2  UNL     1      -2.870   6.323  29.354  1.00  0.00     0.084 C 
HETATM   30  C1  UNL     1      -4.336   6.727  29.301  1.00  0.00     0.032 C 
BRANCH  29  31
HETATM   31  C20 UNL     1      -1.996   7.510  29.661  1.00  0.00     0.008 A 
HETATM   32  C21 UNL     1      -0.516   7.365  29.544  1.00  0.00     0.007 A 
HETATM   33  C22 UNL     1      -1.117   7.458  30.884  1.00  0.00     0.007 A 
ENDBRANCH  29  31
ENDBRANCH  26  29
ENDBRANCH   1  25
TORSDOF 10
ENDMDL
MODEL 3
REMARK VINA RESULT: -6.175605544      2.369      3.550
REMARK  10 active torsions:
REMARK  status: ('A' for Active; 'I' for Inactive)
REMARK    1  A    between atoms: C2_2  and  N1_3 
REMARK    2  A    between atoms: C2_2  and  C20_31 
REMARK       I    between atoms: N1_3  and  C3_5 
REMARK    3  A    between atoms: C3_5  and  C4_7 
REMARK       I    between atoms: N2_12  and  C9_13 
REMARK    4  A    between atoms: C9_13  and  C10_15 
REMARK    5  A    between atoms: C10_15  and  N3_16 
REMARK    6  A    between atoms: C10_15  and  C16_27 
REMARK       I    between atoms: N3_16  and  C11_18 
REMARK    7  A    between atoms: C11_18  and  O4_20 
REMARK    8  A    between atoms: O4_20  and  C12_21 
REMARK    9  A    between atoms: C12_21  and  C13_22 
REMARK   10  A    between atoms: C13_22  and  O5_25 
ROOT
HETATM    1  C4  UNL     1       0.075   2.940  26.485  1.00  0.00     0.179 C 
HETATM    2  C5  UNL     1       1.137   1.889  26.688  1.00  0.00     0.035 C 
HETATM    3  C6  UNL     1       1.339   1.077  25.441  1.00  0.00     0.004 C 
HETATM    4  C7  UNL     1       0.102   0.242  25.146  1.00  0.00     0.020 C 
HETATM    5  C8  UNL     1      -1.152   1.040  25.502  1.00  0.00     0.127 C 
HETATM    6  N2  UNL     1      -0.836   2.463  25.460  1.00  0.00    -0.337 N 
HETATM    7  C9  UNL     1      -1.341   3.300  24.473  1.00  0.00     0.244 C 
HETATM    8  O2  UNL     1      -0.910   4.519  24.516  1.00  0.00    -0.271 OA
ENDROOT
BRANCH   7   9
HETATM    9  C10 UNL     1      -2.285   3.000  23.391  1.00  0.00     0.186 C 
BRANCH   9  10
HETATM   10  N3  UNL     1      -2.190   4.102  22.435  1.00  0.00    -0.323 N 
HETATM   11  C11 UNL     1      -1.439   3.956  21.215  1.00  0.00     0.361 C 
HETATM   12  O3  UNL     1      -0.871   2.856  21.000  1.00  0.00    -0.238 OA
ATOM     13  H3  UNL     1      -2.661   4.984  22.635  1.00  0.00     0.165 HD
BRANCH  11  14
HETATM   14  O4  UNL     1      -1.314   4.926  20.300  1.00  0.00    -0.301 OA
BRANCH  14  15
HETATM   15  C12 UNL     1      -1.699   6.210  20.146  1.00  0.00     0.217 C 
BRANCH  15  16
HETATM   16  C13 UNL     1      -3.105   6.639  20.276  1.00  0.00     0.072 C 
HETATM   17  C14 UNL     1      -3.383   8.008  19.702  1.00  0.00     0.047 C 
HETATM   18  C15 UNL     1      -4.114   5.660  19.770  1.00  0.00     0.047 C 
BRANCH  16  19
HETATM   19  O5  UNL     1      -3.380   6.763  21.680  1.00  0.00    -0.388 OA
ATOM     20  H5  UNL     1      -3.544   5.888  22.011  1.00  0.00     0.210 HD
ENDBRANCH  16  19
ENDBRANCH  15  16
ENDBRANCH  14  15
ENDBRANCH  11  14
ENDBRANCH   9  10
BRANCH   9  21
HETATM   21  C16 UNL     1      -3.705   2.874  23.894  1.00  0.00    -0.022 C 
HETATM   22  C17 UNL     1      -4.655   3.658  23.032  1.00  0.00     0.017 C 
HETATM   23  C18 UNL     1      -4.106   1.425  23.849  1.00  0.00     0.017 C 
HETATM   24  C19 UNL     1      -3.841   3.443  25.302  1.00  0.00     0.017 C 
ENDBRANCH   9  21
ENDBRANCH   7   9
BRANCH   1  25
HETATM   25  C3  UNL     1      -0.563   3.347  27.733  1.00  0.00     0.241 C 
HETATM   26  N1  UNL     1      -1.321   4.552  27.788  1.00  0.00    -0.355 N 
ATOM     27  H1  UNL     1      -1.410   5.127  26.951  1.00  0.00     0.162 HD
HETATM   28  O1  UNL     1      -0.481   2.677  28.786  1.00  0.00    -0.271 OA
BRANCH  26  29
HETATM   29  C2  UNL     1      -1.973   4.978  29.025  1.00  0.00     0.084 C 
HETATM   30  C1  UNL     1      -3.417   4.500  29.019  1.00  0.00     0.032 C 
BRANCH  29  31
HETATM   31  C20 UNL     1      -1.901   6.477  29.142  1.00  0.00     0.008 A 
HETATM   32  C21 UNL     1      -0.564   7.138  29.145  1.00  0.00     0.007 A 
HETATM   33  C22 UNL     1      -1.328   7.074  30.402  1.00  0.00     0.007 A 
ENDBRANCH  29  31
ENDBRANCH  26  29
ENDBRANCH   1  25
TORSDOF 10
ENDMDL
MODEL 4
REMARK VINA RESULT: -6.150543926      0.751      1.128
REMARK  10 active torsions:
REMARK  status: ('A' for Active; 'I' for Inactive)
REMARK    1  A    between atoms: C2_2  and  N1_3 
REMARK    2  A    between atoms: C2_2  and  C20_31 
REMARK       I    between atoms: N1_3  and  C3_5 
REMARK    3  A    between atoms: C3_5  and  C4_7 
REMARK       I    between atoms: N2_12  and  C9_13 
REMARK    4  A    between atoms: C9_13  and  C10_15 
REMARK    5  A    between atoms: C10_15  and  N3_16 
REMARK    6  A    between atoms: C10_15  and  C16_27 
REMARK       I    between atoms: N3_16  and  C11_18 
REMARK    7  A    between atoms: C11_18  and  O4_20 
REMARK    8  A    between atoms: O4_20  and  C12_21 
REMARK    9  A    between atoms: C12_21  and  C13_22 
REMARK   10  A    between atoms: C13_22  and  O5_25 
ROOT
HETATM    1  C4  UNL     1       0.090   2.766  26.756  1.00  0.00     0.179 C 
HETATM    2  C5  UNL     1       0.958   1.585  27.115  1.00  0.00     0.035 C 
HETATM    3  C6  UNL     1       1.107   0.650  25.949  1.00  0.00     0.004 C 
HETATM    4  C7  UNL     1      -0.225  -0.008  25.625  1.00  0.00     0.020 C 
HETATM    5  C8  UNL     1      -1.357   0.999  25.825  1.00  0.00     0.127 C 
HETATM    6  N2  UNL     1      -0.818   2.348  25.703  1.00  0.00    -0.337 N 
HETATM    7  C9  UNL     1      -1.121   3.167  24.622  1.00  0.00     0.244 C 
HETATM    8  O2  UNL     1      -0.506   4.305  24.608  1.00  0.00    -0.271 OA
ENDROOT
BRANCH   7   9
HETATM    9  C10 UNL     1      -2.030   2.925  23.497  1.00  0.00     0.186 C 
BRANCH   9  10
HETATM   10  N3  UNL     1      -1.261   3.164  22.277  1.00  0.00    -0.323 N 
HETATM   11  C11 UNL     1      -0.612   2.077  21.591  1.00  0.00     0.361 C 
HETATM   12  O3  UNL     1      -0.729   0.921  22.072  1.00  0.00    -0.238 OA
ATOM     13  H3  UNL     1      -1.183   4.111  21.909  1.00  0.00     0.165 HD
BRANCH  11  14
HETATM   14  O4  UNL     1       0.106   2.229  20.471  1.00  0.00    -0.301 OA
BRANCH  14  15
HETATM   15  C12 UNL     1       0.028   1.859  19.176  1.00  0.00     0.217 C 
BRANCH  15  16
HETATM   16  C13 UNL     1       0.783   0.715  18.630  1.00  0.00     0.072 C 
HETATM   17  C14 UNL     1       1.974   0.312  19.467  1.00  0.00     0.047 C 
HETATM   18  C15 UNL     1      -0.040  -0.489  18.304  1.00  0.00     0.047 C 
BRANCH  16  19
HETATM   19  O5  UNL     1       1.338   1.136  17.374  1.00  0.00    -0.388 OA
ATOM     20  H5  UNL     1       1.774   0.382  16.995  1.00  0.00     0.210 HD
ENDBRANCH  16  19
ENDBRANCH  15  16
ENDBRANCH  14  15
ENDBRANCH  11  14
ENDBRANCH   9  10
BRANCH   9  21
HETATM   21  C16 UNL     1      -3.236   3.837  23.534  1.00  0.00    -0.022 C 
HETATM   22  C17 UNL     1      -4.399   3.224  22.805  1.00  0.00     0.017 C 
HETATM   23  C18 UNL     1      -3.633   4.053  24.969  1.00  0.00     0.017 C 
HETATM   24  C19 UNL     1      -2.945   5.160  22.834  1.00  0.00     0.017 C 
ENDBRANCH   9  21
ENDBRANCH   7   9
BRANCH   1  25
HETATM   25  C3  UNL     1      -0.553   3.369  27.919  1.00  0.00     0.241 C 
HETATM   26  N1  UNL     1      -1.341   4.546  27.769  1.00  0.00    -0.355 N 
ATOM     27  H1  UNL     1      -1.448   4.963  26.845  1.00  0.00     0.162 HD
HETATM   28  O1  UNL     1      -0.449   2.896  29.072  1.00  0.00    -0.271 OA
BRANCH  26  29
HETATM   29  C2  UNL     1      -1.998   5.165  28.918  1.00  0.00     0.084 C 
HETATM   30  C1  UNL     1      -3.469   4.778  28.921  1.00  0.00     0.032 C 
BRANCH  29  31
HETATM   31  C20 UNL     1      -1.834   6.660  28.847  1.00  0.00     0.008 A 
HETATM   32  C21 UNL     1      -0.602   7.279  29.417  1.00  0.00     0.007 A 
HETATM   33  C22 UNL     1      -1.879   7.451  30.129  1.00  0.00     0.007 A 
ENDBRANCH  29  31
ENDBRANCH  26  29
ENDBRANCH   1  25
TORSDOF 10
ENDMDL
MODEL 5
REMARK VINA RESULT: -6.103139230      1.097      1.374
REMARK  10 active torsions:
REMARK  status: ('A' for Active; 'I' for Inactive)
REMARK    1  A    between atoms: C2_2  and  N1_3 
REMARK    2  A    between atoms: C2_2  and  C20_31 
REMARK       I    between atoms: N1_3  and  C3_5 
REMARK    3  A    between atoms: C3_5  and  C4_7 
REMARK       I    between atoms: N2_12  and  C9_13 
REMARK    4  A    between atoms: C9_13  and  C10_15 
REMARK    5  A    between atoms: C10_15  and  N3_16 
REMARK    6  A    between atoms: C10_15  and  C16_27 
REMARK       I    between atoms: N3_16  and  C11_18 
REMARK    7  A    between atoms: C11_18  and  O4_20 
REMARK    8  A    between atoms: O4_20  and  C12_21 
REMARK    9  A    between atoms: C12_21  and  C13_22 
REMARK   10  A    between atoms: C13_22  and  O5_25 
ROOT
HETATM    1  C4  UNL     1      -0.084   2.836  25.605  1.00  0.00     0.179 C 
HETATM    2  C5  UNL     1       0.636   1.583  26.041  1.00  0.00     0.035 C 
HETATM    3  C6  UNL     1       0.951   0.704  24.865  1.00  0.00     0.004 C 
HETATM    4  C7  UNL     1      -0.330   0.153  24.257  1.00  0.00     0.020 C 
HETATM    5  C8  UNL     1      -1.423   1.220  24.310  1.00  0.00     0.127 C 
HETATM    6  N2  UNL     1      -0.798   2.536  24.377  1.00  0.00    -0.337 N 
HETATM    7  C9  UNL     1      -0.847   3.429  23.314  1.00  0.00     0.244 C 
HETATM    8  O2  UNL     1      -0.180   4.524  23.488  1.00  0.00    -0.271 OA
ENDROOT
BRANCH   7   9
HETATM    9  C10 UNL     1      -1.539   3.308  22.027  1.00  0.00     0.186 C 
BRANCH   9  10
HETATM   10  N3  UNL     1      -0.505   3.124  21.010  1.00  0.00    -0.323 N 
HETATM   11  C11 UNL     1      -0.577   2.032  20.075  1.00  0.00     0.361 C 
HETATM   12  O3  UNL     1      -1.554   1.245  20.160  1.00  0.00    -0.238 OA
ATOM     13  H3  UNL     1       0.277   3.777  20.964  1.00  0.00     0.165 HD
BRANCH  11  14
HETATM   14  O4  UNL     1       0.337   1.809  19.122  1.00  0.00    -0.301 OA
BRANCH  14  15
HETATM   15  C12 UNL     1       1.315   0.916  18.864  1.00  0.00     0.217 C 
BRANCH  15  16
HETATM   16  C13 UNL     1       1.035  -0.493  18.527  1.00  0.00     0.072 C 
HETATM   17  C14 UNL     1       0.711  -1.356  19.724  1.00  0.00     0.047 C 
HETATM   18  C15 UNL     1       0.009  -0.697  17.459  1.00  0.00     0.047 C 
BRANCH  16  19
HETATM   19  O5  UNL     1       2.246  -1.046  17.988  1.00  0.00    -0.388 OA
ATOM     20  H5  UNL     1       1.996  -1.774  17.431  1.00  0.00     0.210 HD
ENDBRANCH  16  19
ENDBRANCH  15  16
ENDBRANCH  14  15
ENDBRANCH  11  14
ENDBRANCH   9  10
BRANCH   9  21
HETATM   21  C16 UNL     1      -2.365   4.534  21.708  1.00  0.00    -0.022 C 
HETATM   22  C17 UNL     1      -3.564   4.175  20.875  1.00  0.00     0.017 C 
HETATM   23  C18 UNL     1      -2.845   5.140  22.998  1.00  0.00     0.017 C 
HETATM   24  C19 UNL     1      -1.563   5.537  20.888  1.00  0.00     0.017 C 
ENDBRANCH   9  21
ENDBRANCH   7   9
BRANCH   1  25
HETATM   25  C3  UNL     1      -0.901   3.416  26.665  1.00  0.00     0.241 C 
HETATM   26  N1  UNL     1      -1.405   4.742  26.535  1.00  0.00    -0.355 N 
ATOM     27  H1  UNL     1      -1.186   5.281  25.697  1.00  0.00     0.162 HD
HETATM   28  O1  UNL     1      -1.194   2.797  27.712  1.00  0.00    -0.271 OA
BRANCH  26  29
HETATM   29  C2  UNL     1      -2.229   5.343  27.581  1.00  0.00     0.084 C 
HETATM   30  C1  UNL     1      -3.479   5.939  26.952  1.00  0.00     0.032 C 
BRANCH  29  31
HETATM   31  C20 UNL     1      -1.434   6.398  28.305  1.00  0.00     0.008 A 
HETATM   32  C21 UNL     1      -0.858   6.076  29.642  1.00  0.00     0.007 A 
HETATM   33  C22 UNL     1      -2.008   6.992  29.565  1.00  0.00     0.007 A 
ENDBRANCH  29  31
ENDBRANCH  26  29
ENDBRANCH   1  25
TORSDOF 10
ENDMDL
