MODEL 1
REMARK VINA RESULT: -6.204571449      0.000      0.000
REMARK  4 active torsions:
REMARK  status: ('A' for Active; 'I' for Inactive)
REMARK    1  A    between atoms: C4_5  and  C5_6 
REMARK    2  A    between atoms: C5_6  and  N1_7 
REMARK       I    between atoms: N1_7  and  C6_9 
REMARK       I    between atoms: C6_9  and  N2_11 
REMARK    3  A    between atoms: N2_11  and  C7_13 
REMARK    4  A    between atoms: C7_13  and  C8_14 
ROOT
HETATM    1  N1  UNL     1      42.414  -6.304  29.974  1.00  0.00    -0.341 N 
ATOM      2  H1  UNL     1      41.973  -6.925  29.297  1.00  0.00     0.164 HD
HETATM    3  C6  UNL     1      42.790  -5.040  29.500  1.00  0.00     0.316 C 
HETATM    4  O2  UNL     1      43.313  -4.141  30.197  1.00  0.00    -0.247 OA
HETATM    5  N2  UNL     1      42.584  -4.696  28.128  1.00  0.00    -0.343 N 
ATOM      6  H2  UNL     1      42.163  -5.367  27.486  1.00  0.00     0.164 HD
ENDROOT
BRANCH   1   7
HETATM    7  C5  UNL     1      42.575  -6.817  31.278  1.00  0.00     0.149 C 
BRANCH   7   8
HETATM    8  C4  UNL     1      43.770  -7.594  31.652  1.00  0.00     0.102 C 
HETATM    9  C3  UNL     1      44.505  -8.389  30.660  1.00  0.00     0.036 C 
HETATM   10  C2  UNL     1      45.851  -8.645  31.397  1.00  0.00     0.105 C 
HETATM   11  C1  UNL     1      46.022  -7.335  32.080  1.00  0.00     0.218 C 
HETATM   12  O1  UNL     1      47.073  -6.908  32.614  1.00  0.00    -0.274 OA
HETATM   13  N4  UNL     1      44.808  -6.611  32.050  1.00  0.00    -0.355 N 
ATOM     14  H4  UNL     1      44.674  -5.621  32.259  1.00  0.00     0.162 HD
ENDBRANCH   7   8
ENDBRANCH   1   7
BRANCH   5  15
HETATM   15  C7  UNL     1      42.977  -3.398  27.667  1.00  0.00     0.130 C 
BRANCH  15  16
HETATM   16  C8  UNL     1      44.264  -3.417  26.881  1.00  0.00     0.031 C 
HETATM   17  C9  UNL     1      44.726  -1.958  26.782  1.00  0.00     0.035 C 
HETATM   18  C10 UNL     1      44.105  -1.554  25.461  1.00  0.00     0.232 C 
HETATM   19  N3  UNL     1      44.480  -2.703  24.624  1.00  0.00    -0.075 N 
HETATM   20  C11 UNL     1      43.992  -3.800  25.446  1.00  0.00     0.238 C 
ATOM     21  H32 UNL     1      44.133  -2.682  23.665  1.00  0.00     0.277 HD
ATOM     22  H31 UNL     1      45.463  -2.754  24.359  1.00  0.00     0.277 HD
ENDBRANCH  15  16
ENDBRANCH   5  15
TORSDOF 4
ENDMDL
MODEL 2
REMARK VINA RESULT: -6.074368715      1.058      1.251
REMARK  4 active torsions:
REMARK  status: ('A' for Active; 'I' for Inactive)
REMARK    1  A    between atoms: C4_5  and  C5_6 
REMARK    2  A    between atoms: C5_6  and  N1_7 
REMARK       I    between atoms: N1_7  and  C6_9 
REMARK       I    between atoms: C6_9  and  N2_11 
REMARK    3  A    between atoms: N2_11  and  C7_13 
REMARK    4  A    between atoms: C7_13  and  C8_14 
ROOT
HETATM    1  N1  UNL     1      42.830  -6.379  29.772  1.00  0.00    -0.341 N 
ATOM      2  H1  UNL     1      42.305  -6.967  29.125  1.00  0.00     0.164 HD
HETATM    3  C6  UNL     1      43.131  -5.085  29.328  1.00  0.00     0.316 C 
HETATM    4  O2  UNL     1      43.738  -4.221  30.000  1.00  0.00    -0.247 OA
HETATM    5  N2  UNL     1      42.739  -4.665  28.019  1.00  0.00    -0.343 N 
ATOM      6  H2  UNL     1      42.239  -5.304  27.400  1.00  0.00     0.164 HD
ENDROOT
BRANCH   1   7
HETATM    7  C5  UNL     1      43.169  -6.966  31.009  1.00  0.00     0.149 C 
BRANCH   7   8
HETATM    8  C4  UNL     1      44.573  -7.082  31.442  1.00  0.00     0.102 C 
HETATM    9  C3  UNL     1      44.921  -7.330  32.846  1.00  0.00     0.036 C 
HETATM   10  C2  UNL     1      46.404  -7.786  32.727  1.00  0.00     0.105 C 
HETATM   11  C1  UNL     1      46.328  -8.579  31.471  1.00  0.00     0.218 C 
HETATM   12  O1  UNL     1      47.192  -9.381  31.047  1.00  0.00    -0.274 OA
HETATM   13  N4  UNL     1      45.116  -8.303  30.796  1.00  0.00    -0.355 N 
ATOM     14  H4  UNL     1      44.702  -8.831  30.028  1.00  0.00     0.162 HD
ENDBRANCH   7   8
ENDBRANCH   1   7
BRANCH   5  15
HETATM   15  C7  UNL     1      43.058  -3.337  27.587  1.00  0.00     0.130 C 
BRANCH  15  16
HETATM   16  C8  UNL     1      44.270  -3.284  26.691  1.00  0.00     0.031 C 
HETATM   17  C9  UNL     1      44.771  -1.835  26.734  1.00  0.00     0.035 C 
HETATM   18  C10 UNL     1      44.051  -1.253  25.535  1.00  0.00     0.232 C 
HETATM   19  N3  UNL     1      44.313  -2.295  24.531  1.00  0.00    -0.075 N 
HETATM   20  C11 UNL     1      43.863  -3.476  25.250  1.00  0.00     0.238 C 
ATOM     21  H32 UNL     1      43.885  -2.144  23.617  1.00  0.00     0.277 HD
ATOM     22  H31 UNL     1      45.267  -2.333  24.174  1.00  0.00     0.277 HD
ENDBRANCH  15  16
ENDBRANCH   5  15
TORSDOF 4
ENDMDL
MODEL 3
REMARK VINA RESULT: -5.936615878      4.535      6.495
REMARK  4 active torsions:
REMARK  status: ('A' for Active; 'I' for Inactive)
REMARK    1  A    between atoms: C4_5  and  C5_6 
REMARK    2  A    between atoms: C5_6  and  N1_7 
REMARK       I    between atoms: N1_7  and  C6_9 
REMARK       I    between atoms: C6_9  and  N2_11 
REMARK    3  A    between atoms: N2_11  and  C7_13 
REMARK    4  A    between atoms: C7_13  and  C8_14 
ROOT
HETATM    1  N1  UNL     1      39.867  -3.841  29.490  1.00  0.00    -0.341 N 
ATOM      2  H1  UNL     1      39.998  -4.731  29.009  1.00  0.00     0.164 HD
HETATM    3  C6  UNL     1      40.843  -2.863  29.257  1.00  0.00     0.316 C 
HETATM    4  O2  UNL     1      40.825  -1.707  29.737  1.00  0.00    -0.247 OA
HETATM    5  N2  UNL     1      41.963  -3.151  28.418  1.00  0.00    -0.343 N 
ATOM      6  H2  UNL     1      42.060  -4.068  27.983  1.00  0.00     0.164 HD
ENDROOT
BRANCH   1   7
HETATM    7  C5  UNL     1      38.725  -3.741  30.311  1.00  0.00     0.149 C 
BRANCH   7   8
HETATM    8  C4  UNL     1      37.367  -3.771  29.740  1.00  0.00     0.102 C 
HETATM    9  C3  UNL     1      36.812  -2.614  29.029  1.00  0.00     0.036 C 
HETATM   10  C2  UNL     1      35.608  -3.252  28.278  1.00  0.00     0.105 C 
HETATM   11  C1  UNL     1      36.201  -4.566  27.915  1.00  0.00     0.218 C 
HETATM   12  O1  UNL     1      35.743  -5.382  27.080  1.00  0.00    -0.274 OA
HETATM   13  N4  UNL     1      37.385  -4.785  28.656  1.00  0.00    -0.355 N 
ATOM     14  H4  UNL     1      38.101  -5.491  28.483  1.00  0.00     0.162 HD
ENDBRANCH   7   8
ENDBRANCH   1   7
BRANCH   5  15
HETATM   15  C7  UNL     1      42.948  -2.134  28.195  1.00  0.00     0.130 C 
BRANCH  15  16
HETATM   16  C8  UNL     1      44.192  -2.658  27.522  1.00  0.00     0.031 C 
HETATM   17  C9  UNL     1      44.867  -1.446  26.868  1.00  0.00     0.035 C 
HETATM   18  C10 UNL     1      44.274  -1.511  25.476  1.00  0.00     0.232 C 
HETATM   19  N3  UNL     1      44.444  -2.939  25.175  1.00  0.00    -0.075 N 
HETATM   20  C11 UNL     1      43.821  -3.533  26.349  1.00  0.00     0.238 C 
ATOM     21  H32 UNL     1      44.075  -3.248  24.276  1.00  0.00     0.277 HD
ATOM     22  H31 UNL     1      45.400  -3.239  24.984  1.00  0.00     0.277 HD
ENDBRANCH  15  16
ENDBRANCH   5  15
TORSDOF 4
ENDMDL
MODEL 4
REMARK VINA RESULT: -5.930221626      4.606      7.058
REMARK  4 active torsions:
REMARK  status: ('A' for Active; 'I' for Inactive)
REMARK    1  A    between atoms: C4_5  and  C5_6 
REMARK    2  A    between atoms: C5_6  and  N1_7 
REMARK       I    between atoms: N1_7  and  C6_9 
REMARK       I    between atoms: C6_9  and  N2_11 
REMARK    3  A    between atoms: N2_11  and  C7_13 
REMARK    4  A    between atoms: C7_13  and  C8_14 
ROOT
HETATM    1  N1  UNL     1      41.486  -4.100  29.113  1.00  0.00    -0.341 N 
ATOM      2  H1  UNL     1      40.829  -4.868  28.975  1.00  0.00     0.164 HD
HETATM    3  C6  UNL     1      41.076  -3.085  29.988  1.00  0.00     0.316 C 
HETATM    4  O2  UNL     1      41.765  -2.087  30.298  1.00  0.00    -0.247 OA
HETATM    5  N2  UNL     1      39.785  -3.140  30.599  1.00  0.00    -0.343 N 
ATOM      6  H2  UNL     1      39.155  -3.918  30.404  1.00  0.00     0.164 HD
ENDROOT
BRANCH   1   7
HETATM    7  C5  UNL     1      42.701  -4.185  28.402  1.00  0.00     0.149 C 
BRANCH   7   8
HETATM    8  C4  UNL     1      43.089  -3.153  27.425  1.00  0.00     0.102 C 
HETATM    9  C3  UNL     1      44.233  -2.266  27.666  1.00  0.00     0.036 C 
HETATM   10  C2  UNL     1      44.492  -1.692  26.243  1.00  0.00     0.105 C 
HETATM   11  C1  UNL     1      44.209  -2.900  25.424  1.00  0.00     0.218 C 
HETATM   12  O1  UNL     1      44.508  -3.065  24.218  1.00  0.00    -0.274 OA
HETATM   13  N4  UNL     1      43.539  -3.870  26.206  1.00  0.00    -0.355 N 
ATOM     14  H4  UNL     1      43.396  -4.854  25.980  1.00  0.00     0.162 HD
ENDBRANCH   7   8
ENDBRANCH   1   7
BRANCH   5  15
HETATM   15  C7  UNL     1      39.388  -2.090  31.489  1.00  0.00     0.130 C 
BRANCH  15  16
HETATM   16  C8  UNL     1      38.446  -1.102  30.849  1.00  0.00     0.031 C 
HETATM   17  C9  UNL     1      39.142   0.263  30.923  1.00  0.00     0.035 C 
HETATM   18  C10 UNL     1      38.577   0.798  32.221  1.00  0.00     0.232 C 
HETATM   19  N3  UNL     1      37.150   0.496  32.040  1.00  0.00    -0.075 N 
HETATM   20  C11 UNL     1      37.218  -0.919  31.710  1.00  0.00     0.238 C 
ATOM     21  H32 UNL     1      36.544   0.737  32.824  1.00  0.00     0.277 HD
ATOM     22  H31 UNL     1      36.657   1.082  31.367  1.00  0.00     0.277 HD
ENDBRANCH  15  16
ENDBRANCH   5  15
TORSDOF 4
ENDMDL
MODEL 5
REMARK VINA RESULT: -5.913442675      2.162      6.929
REMARK  4 active torsions:
REMARK  status: ('A' for Active; 'I' for Inactive)
REMARK    1  A    between atoms: C4_5  and  C5_6 
REMARK    2  A    between atoms: C5_6  and  N1_7 
REMARK       I    between atoms: N1_7  and  C6_9 
REMARK       I    between atoms: C6_9  and  N2_11 
REMARK    3  A    between atoms: N2_11  and  C7_13 
REMARK    4  A    between atoms: C7_13  and  C8_14 
ROOT
HETATM    1  N1  UNL     1      42.455  -5.798  29.533  1.00  0.00    -0.341 N 
ATOM      2  H1  UNL     1      41.937  -6.400  28.894  1.00  0.00     0.164 HD
HETATM    3  C6  UNL     1      43.412  -6.431  30.338  1.00  0.00     0.316 C 
HETATM    4  O2  UNL     1      44.160  -5.846  31.154  1.00  0.00    -0.247 OA
HETATM    5  N2  UNL     1      43.592  -7.847  30.264  1.00  0.00    -0.343 N 
ATOM      6  H2  UNL     1      43.026  -8.406  29.625  1.00  0.00     0.164 HD
ENDROOT
BRANCH   1   7
HETATM    7  C5  UNL     1      42.125  -4.428  29.504  1.00  0.00     0.149 C 
BRANCH   7   8
HETATM    8  C4  UNL     1      42.577  -3.555  28.406  1.00  0.00     0.102 C 
HETATM    9  C3  UNL     1      43.800  -2.752  28.523  1.00  0.00     0.036 C 
HETATM   10  C2  UNL     1      44.072  -2.374  27.039  1.00  0.00     0.105 C 
HETATM   11  C1  UNL     1      43.665  -3.639  26.374  1.00  0.00     0.218 C 
HETATM   12  O1  UNL     1      43.918  -3.971  25.191  1.00  0.00    -0.274 OA
HETATM   13  N4  UNL     1      42.933  -4.447  27.275  1.00  0.00    -0.355 N 
ATOM     14  H4  UNL     1      42.699  -5.435  27.169  1.00  0.00     0.162 HD
ENDBRANCH   7   8
ENDBRANCH   1   7
BRANCH   5  15
HETATM   15  C7  UNL     1      44.577  -8.471  31.096  1.00  0.00     0.130 C 
BRANCH  15  16
HETATM   16  C8  UNL     1      45.356  -9.546  30.381  1.00  0.00     0.031 C 
HETATM   17  C9  UNL     1      45.120 -10.841  31.168  1.00  0.00     0.035 C 
HETATM   18  C10 UNL     1      46.308 -10.820  32.107  1.00  0.00     0.232 C 
HETATM   19  N3  UNL     1      47.390 -10.492  31.167  1.00  0.00    -0.075 N 
HETATM   20  C11 UNL     1      46.839  -9.304  30.533  1.00  0.00     0.238 C 
ATOM     21  H32 UNL     1      48.316 -10.382  31.581  1.00  0.00     0.277 HD
ATOM     22  H31 UNL     1      47.667 -11.242  30.534  1.00  0.00     0.277 HD
ENDBRANCH  15  16
ENDBRANCH   5  15
TORSDOF 4
ENDMDL
