MODEL 1
REMARK VINA RESULT: -5.146190141      0.000      0.000
REMARK  7 active torsions:
REMARK  status: ('A' for Active; 'I' for Inactive)
REMARK    1  A    between atoms: N1_1  and  S1_4 
REMARK    2  A    between atoms: S1_4  and  N2_7 
REMARK    3  A    between atoms: N2_7  and  N3_9 
REMARK    4  A    between atoms: N3_9  and  C1_11 
REMARK    5  A    between atoms: C1_11  and  N4_13 
REMARK    6  A    between atoms: N4_13  and  C2_15 
REMARK    7  A    between atoms: C2_15  and  C3_16 
ROOT
HETATM    1  N3  UNL     1      46.993   0.452  35.197  1.00  0.00    -0.266 N 
ATOM      2  H3  UNL     1      47.116  -0.144  34.379  1.00  0.00     0.190 HD
ENDROOT
BRANCH   1   3
HETATM    3  N2  UNL     1      48.042   0.555  36.108  1.00  0.00    -0.208 N 
ATOM      4  H2  UNL     1      48.172   1.349  36.734  1.00  0.00     0.201 HD
BRANCH   3   5
HETATM    5  S1  UNL     1      49.089  -0.803  36.058  1.00  0.00     0.330 S 
HETATM    6  O1  UNL     1      48.949  -1.598  34.790  1.00  0.00    -0.181 OA
HETATM    7  O2  UNL     1      48.831  -1.746  37.210  1.00  0.00    -0.181 OA
BRANCH   5   8
HETATM    8  N1  UNL     1      50.726  -0.251  36.149  1.00  0.00    -0.310 N 
ATOM      9  H12 UNL     1      51.045   0.693  35.929  1.00  0.00     0.170 HD
ATOM     10  H11 UNL     1      51.299  -1.035  36.460  1.00  0.00     0.170 HD
ENDBRANCH   5   8
ENDBRANCH   3   5
ENDBRANCH   1   3
BRANCH   1  11
HETATM   11  C1  UNL     1      45.762   1.139  35.355  1.00  0.00     0.187 C 
HETATM   12  S2  UNL     1      44.491   0.606  34.493  1.00  0.00    -0.040 SA
BRANCH  11  13
HETATM   13  N4  UNL     1      45.594   2.252  36.207  1.00  0.00    -0.366 N 
ATOM     14  H4  UNL     1      46.000   3.146  35.932  1.00  0.00     0.161 HD
BRANCH  13  15
HETATM   15  C2  UNL     1      44.873   2.172  37.443  1.00  0.00     0.126 C 
BRANCH  15  16
HETATM   16  C3  UNL     1      43.971   3.323  37.722  1.00  0.00     0.003 C 
HETATM   17  C4  UNL     1      44.023   4.438  36.671  1.00  0.00     0.006 C 
HETATM   18  C5  UNL     1      43.739   5.385  37.847  1.00  0.00     0.001 C 
HETATM   19  C6  UNL     1      44.562   4.380  38.670  1.00  0.00     0.006 C 
ENDBRANCH  15  16
ENDBRANCH  13  15
ENDBRANCH  11  13
ENDBRANCH   1  11
TORSDOF 7
ENDMDL
MODEL 2
REMARK VINA RESULT: -5.112820654      0.933      1.220
REMARK  7 active torsions:
REMARK  status: ('A' for Active; 'I' for Inactive)
REMARK    1  A    between atoms: N1_1  and  S1_4 
REMARK    2  A    between atoms: S1_4  and  N2_7 
REMARK    3  A    between atoms: N2_7  and  N3_9 
REMARK    4  A    between atoms: N3_9  and  C1_11 
REMARK    5  A    between atoms: C1_11  and  N4_13 
REMARK    6  A    between atoms: N4_13  and  C2_15 
REMARK    7  A    between atoms: C2_15  and  C3_16 
ROOT
HETATM    1  N3  UNL     1      47.145   0.543  35.113  1.00  0.00    -0.266 N 
ATOM      2  H3  UNL     1      47.494   0.360  34.172  1.00  0.00     0.190 HD
ENDROOT
BRANCH   1   3
HETATM    3  N2  UNL     1      48.049   0.521  36.172  1.00  0.00    -0.208 N 
ATOM      4  H2  UNL     1      48.078   1.228  36.906  1.00  0.00     0.201 HD
BRANCH   3   5
HETATM    5  S1  UNL     1      49.107  -0.827  36.104  1.00  0.00     0.330 S 
HETATM    6  O1  UNL     1      48.991  -1.591  34.814  1.00  0.00    -0.181 OA
HETATM    7  O2  UNL     1      48.839  -1.801  37.227  1.00  0.00    -0.181 OA
BRANCH   5   8
HETATM    8  N1  UNL     1      50.738  -0.266  36.233  1.00  0.00    -0.310 N 
ATOM      9  H12 UNL     1      51.265   0.197  35.492  1.00  0.00     0.170 HD
ATOM     10  H11 UNL     1      51.064  -0.482  37.175  1.00  0.00     0.170 HD
ENDBRANCH   5   8
ENDBRANCH   3   5
ENDBRANCH   1   3
BRANCH   1  11
HETATM   11  C1  UNL     1      45.761   0.808  35.281  1.00  0.00     0.187 C 
HETATM   12  S2  UNL     1      44.868  -0.325  36.031  1.00  0.00    -0.040 SA
BRANCH  11  13
HETATM   13  N4  UNL     1      45.133   1.988  34.830  1.00  0.00    -0.366 N 
ATOM     14  H4  UNL     1      45.367   2.344  33.902  1.00  0.00     0.161 HD
BRANCH  13  15
HETATM   15  C2  UNL     1      44.180   2.705  35.623  1.00  0.00     0.126 C 
BRANCH  15  16
HETATM   16  C3  UNL     1      44.763   3.545  36.705  1.00  0.00     0.003 C 
HETATM   17  C4  UNL     1      44.584   2.972  38.116  1.00  0.00     0.006 C 
HETATM   18  C5  UNL     1      44.511   4.441  38.564  1.00  0.00     0.001 C 
HETATM   19  C6  UNL     1      43.844   4.675  37.198  1.00  0.00     0.006 C 
ENDBRANCH  15  16
ENDBRANCH  13  15
ENDBRANCH  11  13
ENDBRANCH   1  11
TORSDOF 7
ENDMDL
MODEL 3
REMARK VINA RESULT: -5.004764744     10.422     11.320
REMARK  7 active torsions:
REMARK  status: ('A' for Active; 'I' for Inactive)
REMARK    1  A    between atoms: N1_1  and  S1_4 
REMARK    2  A    between atoms: S1_4  and  N2_7 
REMARK    3  A    between atoms: N2_7  and  N3_9 
REMARK    4  A    between atoms: N3_9  and  C1_11 
REMARK    5  A    between atoms: C1_11  and  N4_13 
REMARK    6  A    between atoms: N4_13  and  C2_15 
REMARK    7  A    between atoms: C2_15  and  C3_16 
ROOT
HETATM    1  N3  UNL     1      43.747  -3.532  27.741  1.00  0.00    -0.266 N 
ATOM      2  H3  UNL     1      44.602  -3.456  28.293  1.00  0.00     0.190 HD
ENDROOT
BRANCH   1   3
HETATM    3  N2  UNL     1      43.810  -3.254  26.379  1.00  0.00    -0.208 N 
ATOM      4  H2  UNL     1      43.587  -3.933  25.651  1.00  0.00     0.201 HD
BRANCH   3   5
HETATM    5  S1  UNL     1      44.303  -1.642  26.060  1.00  0.00     0.330 S 
HETATM    6  O1  UNL     1      45.778  -1.436  26.263  1.00  0.00    -0.181 OA
HETATM    7  O2  UNL     1      43.586  -0.655  26.951  1.00  0.00    -0.181 OA
BRANCH   5   8
HETATM    8  N1  UNL     1      43.946  -1.263  24.410  1.00  0.00    -0.310 N 
ATOM      9  H12 UNL     1      44.116  -1.875  23.612  1.00  0.00     0.170 HD
ATOM     10  H11 UNL     1      43.539  -0.328  24.391  1.00  0.00     0.170 HD
ENDBRANCH   5   8
ENDBRANCH   3   5
ENDBRANCH   1   3
BRANCH   1  11
HETATM   11  C1  UNL     1      42.550  -3.918  28.398  1.00  0.00     0.187 C 
HETATM   12  S2  UNL     1      41.662  -2.744  29.087  1.00  0.00    -0.040 SA
BRANCH  11  13
HETATM   13  N4  UNL     1      42.105  -5.254  28.485  1.00  0.00    -0.366 N 
ATOM     14  H4  UNL     1      41.792  -5.724  27.635  1.00  0.00     0.161 HD
BRANCH  13  15
HETATM   15  C2  UNL     1      42.077  -5.977  29.722  1.00  0.00     0.126 C 
BRANCH  15  16
HETATM   16  C3  UNL     1      43.403  -6.178  30.366  1.00  0.00     0.003 C 
HETATM   17  C4  UNL     1      43.678  -7.620  30.811  1.00  0.00     0.006 C 
HETATM   18  C5  UNL     1      44.484  -6.979  31.952  1.00  0.00     0.001 C 
HETATM   19  C6  UNL     1      43.436  -5.856  31.870  1.00  0.00     0.006 C 
ENDBRANCH  15  16
ENDBRANCH  13  15
ENDBRANCH  11  13
ENDBRANCH   1  11
TORSDOF 7
ENDMDL
MODEL 4
REMARK VINA RESULT: -4.985455483      9.912     10.592
REMARK  7 active torsions:
REMARK  status: ('A' for Active; 'I' for Inactive)
REMARK    1  A    between atoms: N1_1  and  S1_4 
REMARK    2  A    between atoms: S1_4  and  N2_7 
REMARK    3  A    between atoms: N2_7  and  N3_9 
REMARK    4  A    between atoms: N3_9  and  C1_11 
REMARK    5  A    between atoms: C1_11  and  N4_13 
REMARK    6  A    between atoms: N4_13  and  C2_15 
REMARK    7  A    between atoms: C2_15  and  C3_16 
ROOT
HETATM    1  N3  UNL     1      43.138  -4.099  27.142  1.00  0.00    -0.266 N 
ATOM      2  H3  UNL     1      42.580  -4.591  26.443  1.00  0.00     0.190 HD
ENDROOT
BRANCH   1   3
HETATM    3  N2  UNL     1      44.403  -3.644  26.780  1.00  0.00    -0.208 N 
ATOM      4  H2  UNL     1      45.251  -4.205  26.861  1.00  0.00     0.201 HD
BRANCH   3   5
HETATM    5  S1  UNL     1      44.377  -2.036  26.183  1.00  0.00     0.330 S 
HETATM    6  O1  UNL     1      45.703  -1.343  26.327  1.00  0.00    -0.181 OA
HETATM    7  O2  UNL     1      43.349  -1.193  26.902  1.00  0.00    -0.181 OA
BRANCH   5   8
HETATM    8  N1  UNL     1      43.986  -2.071  24.499  1.00  0.00    -0.310 N 
ATOM      9  H12 UNL     1      44.642  -1.901  23.735  1.00  0.00     0.170 HD
ATOM     10  H11 UNL     1      42.993  -2.291  24.418  1.00  0.00     0.170 HD
ENDBRANCH   5   8
ENDBRANCH   3   5
ENDBRANCH   1   3
BRANCH   1  11
HETATM   11  C1  UNL     1      42.587  -3.910  28.435  1.00  0.00     0.187 C 
HETATM   12  S2  UNL     1      43.483  -4.383  29.707  1.00  0.00    -0.040 SA
BRANCH  11  13
HETATM   13  N4  UNL     1      41.315  -3.345  28.666  1.00  0.00    -0.366 N 
ATOM     14  H4  UNL     1      40.497  -3.790  28.247  1.00  0.00     0.161 HD
BRANCH  13  15
HETATM   15  C2  UNL     1      41.126  -2.172  29.466  1.00  0.00     0.126 C 
BRANCH  15  16
HETATM   16  C3  UNL     1      39.902  -2.174  30.312  1.00  0.00     0.003 C 
HETATM   17  C4  UNL     1      38.632  -2.635  29.587  1.00  0.00     0.006 C 
HETATM   18  C5  UNL     1      37.900  -1.648  30.509  1.00  0.00     0.001 C 
HETATM   19  C6  UNL     1      39.188  -0.815  30.402  1.00  0.00     0.006 C 
ENDBRANCH  15  16
ENDBRANCH  13  15
ENDBRANCH  11  13
ENDBRANCH   1  11
TORSDOF 7
ENDMDL
MODEL 5
REMARK VINA RESULT: -4.904534901      1.014      1.365
REMARK  7 active torsions:
REMARK  status: ('A' for Active; 'I' for Inactive)
REMARK    1  A    between atoms: N1_1  and  S1_4 
REMARK    2  A    between atoms: S1_4  and  N2_7 
REMARK    3  A    between atoms: N2_7  and  N3_9 
REMARK    4  A    between atoms: N3_9  and  C1_11 
REMARK    5  A    between atoms: C1_11  and  N4_13 
REMARK    6  A    between atoms: N4_13  and  C2_15 
REMARK    7  A    between atoms: C2_15  and  C3_16 
ROOT
HETATM    1  N3  UNL     1      46.404   0.101  35.481  1.00  0.00    -0.266 N 
ATOM      2  H3  UNL     1      46.064  -0.828  35.233  1.00  0.00     0.190 HD
ENDROOT
BRANCH   1   3
HETATM    3  N2  UNL     1      47.706   0.446  35.130  1.00  0.00    -0.208 N 
ATOM      4  H2  UNL     1      47.944   0.988  34.300  1.00  0.00     0.201 HD
BRANCH   3   5
HETATM    5  S1  UNL     1      48.865  -0.143  36.249  1.00  0.00     0.330 S 
HETATM    6  O1  UNL     1      48.768  -1.629  36.457  1.00  0.00    -0.181 OA
HETATM    7  O2  UNL     1      48.713   0.510  37.603  1.00  0.00    -0.181 OA
BRANCH   5   8
HETATM    8  N1  UNL     1      50.450   0.196  35.644  1.00  0.00    -0.310 N 
ATOM      9  H12 UNL     1      50.716   0.214  34.659  1.00  0.00     0.170 HD
ATOM     10  H11 UNL     1      51.054   0.372  36.447  1.00  0.00     0.170 HD
ENDBRANCH   5   8
ENDBRANCH   3   5
ENDBRANCH   1   3
BRANCH   1  11
HETATM   11  C1  UNL     1      45.527   0.982  36.166  1.00  0.00     0.187 C 
HETATM   12  S2  UNL     1      43.933   0.679  36.068  1.00  0.00    -0.040 SA
BRANCH  11  13
HETATM   13  N4  UNL     1      45.969   2.096  36.912  1.00  0.00    -0.366 N 
ATOM     14  H4  UNL     1      46.810   2.587  36.609  1.00  0.00     0.161 HD
BRANCH  13  15
HETATM   15  C2  UNL     1      45.280   2.563  38.078  1.00  0.00     0.126 C 
BRANCH  15  16
HETATM   16  C3  UNL     1      44.938   4.012  38.071  1.00  0.00     0.003 C 
HETATM   17  C4  UNL     1      43.766   4.390  38.984  1.00  0.00     0.006 C 
HETATM   18  C5  UNL     1      43.462   5.470  37.933  1.00  0.00     0.001 C 
HETATM   19  C6  UNL     1      44.003   4.440  36.927  1.00  0.00     0.006 C 
ENDBRANCH  15  16
ENDBRANCH  13  15
ENDBRANCH  11  13
ENDBRANCH   1  11
TORSDOF 7
ENDMDL
