MODEL 1
REMARK VINA RESULT: -5.868780576      0.000      0.000
REMARK  7 active torsions:
REMARK  status: ('A' for Active; 'I' for Inactive)
REMARK    1  A    between atoms: C7_7  and  C8_8 
REMARK    2  A    between atoms: C8_8  and  N1_9 
REMARK    3  A    between atoms: N1_9  and  C11_12 
REMARK    4  A    between atoms: C11_12  and  C12_13 
REMARK    5  A    between atoms: C12_13  and  N4_19 
REMARK    6  A    between atoms: N2_14  and  N3_16 
REMARK    7  A    between atoms: N4_19  and  N5_21 
ROOT
HETATM    1  C1  UNL     1      39.674  -0.328  30.197  1.00  0.00     0.012 C 
HETATM    2  C2  UNL     1      39.820  -1.471  29.834  1.00  0.00    -0.112 C 
HETATM    3  C3  UNL     1      40.015  -2.862  29.405  1.00  0.00     0.070 C 
HETATM    4  C4  UNL     1      39.440  -3.808  30.459  1.00  0.00     0.017 C 
HETATM    5  C5  UNL     1      40.621  -4.505  31.099  1.00  0.00     0.002 C 
HETATM    6  C6  UNL     1      41.731  -3.478  30.838  1.00  0.00     0.007 C 
HETATM    7  C7  UNL     1      41.526  -3.192  29.386  1.00  0.00     0.027 C 
ENDROOT
BRANCH   7   8
HETATM    8  C8  UNL     1      42.304  -2.063  28.825  1.00  0.00     0.242 C 
BRANCH   8   9
HETATM    9  N1  UNL     1      43.521  -2.471  28.107  1.00  0.00    -0.068 N 
HETATM   10  C9  UNL     1      44.465  -1.388  28.095  1.00  0.00     0.272 C 
HETATM   11  C10 UNL     1      44.123  -3.620  28.721  1.00  0.00     0.272 C 
BRANCH   9  12
HETATM   12  C11 UNL     1      43.120  -2.868  26.776  1.00  0.00     0.315 C 
BRANCH  12  13
HETATM   13  C12 UNL     1      44.004  -2.433  25.688  1.00  0.00     0.136 C 
HETATM   14  N2  UNL     1      44.692  -3.295  25.027  1.00  0.00    -0.293 N 
ATOM     15  H2  UNL     1      45.308  -3.000  24.270  1.00  0.00     0.187 HD
BRANCH  14  16
HETATM   16  N3  UNL     1      44.579  -4.641  25.366  1.00  0.00    -0.344 N 
ATOM     17  H32 UNL     1      44.762  -4.938  26.324  1.00  0.00     0.176 HD
ATOM     18  H31 UNL     1      44.313  -5.308  24.642  1.00  0.00     0.176 HD
ENDBRANCH  14  16
BRANCH  13  19
HETATM   19  N4  UNL     1      44.149  -1.077  25.317  1.00  0.00    -0.293 N 
ATOM     20  H4  UNL     1      44.546  -0.448  26.014  1.00  0.00     0.187 HD
BRANCH  19  21
HETATM   21  N5  UNL     1      43.803  -0.522  24.094  1.00  0.00    -0.344 N 
ATOM     22  H52 UNL     1      43.056   0.171  24.117  1.00  0.00     0.176 HD
ATOM     23  H51 UNL     1      44.223  -0.745  23.192  1.00  0.00     0.176 HD
ENDBRANCH  19  21
ENDBRANCH  13  19
ENDBRANCH  12  13
ENDBRANCH   9  12
ENDBRANCH   8   9
ENDBRANCH   7   8
TORSDOF 7
ENDMDL
MODEL 2
REMARK VINA RESULT: -5.580149251      1.729      2.256
REMARK  7 active torsions:
REMARK  status: ('A' for Active; 'I' for Inactive)
REMARK    1  A    between atoms: C7_7  and  C8_8 
REMARK    2  A    between atoms: C8_8  and  N1_9 
REMARK    3  A    between atoms: N1_9  and  C11_12 
REMARK    4  A    between atoms: C11_12  and  C12_13 
REMARK    5  A    between atoms: C12_13  and  N4_19 
REMARK    6  A    between atoms: N2_14  and  N3_16 
REMARK    7  A    between atoms: N4_19  and  N5_21 
ROOT
HETATM    1  C1  UNL     1      42.753  -3.006  32.433  1.00  0.00     0.012 C 
HETATM    2  C2  UNL     1      42.236  -3.572  31.499  1.00  0.00    -0.112 C 
HETATM    3  C3  UNL     1      41.624  -4.273  30.363  1.00  0.00     0.070 C 
HETATM    4  C4  UNL     1      40.894  -5.518  30.864  1.00  0.00     0.017 C 
HETATM    5  C5  UNL     1      41.682  -6.708  30.359  1.00  0.00     0.002 C 
HETATM    6  C6  UNL     1      43.071  -6.077  30.190  1.00  0.00     0.007 C 
HETATM    7  C7  UNL     1      42.732  -4.830  29.439  1.00  0.00     0.027 C 
ENDROOT
BRANCH   7   8
HETATM    8  C8  UNL     1      43.828  -3.846  29.279  1.00  0.00     0.242 C 
BRANCH   8   9
HETATM    9  N1  UNL     1      43.624  -2.894  28.177  1.00  0.00    -0.068 N 
HETATM   10  C9  UNL     1      42.292  -3.030  27.657  1.00  0.00     0.272 C 
HETATM   11  C10 UNL     1      43.828  -1.543  28.616  1.00  0.00     0.272 C 
BRANCH   9  12
HETATM   12  C11 UNL     1      44.635  -3.169  27.181  1.00  0.00     0.315 C 
BRANCH  12  13
HETATM   13  C12 UNL     1      44.320  -2.731  25.816  1.00  0.00     0.136 C 
HETATM   14  N2  UNL     1      44.180  -3.594  24.874  1.00  0.00    -0.293 N 
ATOM     15  H2  UNL     1      43.960  -3.296  23.923  1.00  0.00     0.187 HD
BRANCH  14  16
HETATM   16  N3  UNL     1      44.333  -4.945  25.177  1.00  0.00    -0.344 N 
ATOM     17  H32 UNL     1      45.248  -5.384  25.079  1.00  0.00     0.176 HD
ATOM     18  H31 UNL     1      43.519  -5.471  25.493  1.00  0.00     0.176 HD
ENDBRANCH  14  16
BRANCH  13  19
HETATM   19  N4  UNL     1      44.161  -1.370  25.467  1.00  0.00    -0.293 N 
ATOM     20  H4  UNL     1      44.171  -0.694  26.231  1.00  0.00     0.187 HD
BRANCH  19  21
HETATM   21  N5  UNL     1      43.991  -0.868  24.186  1.00  0.00    -0.344 N 
ATOM     22  H52 UNL     1      43.035  -0.874  23.830  1.00  0.00     0.176 HD
ATOM     23  H51 UNL     1      44.726  -0.502  23.581  1.00  0.00     0.176 HD
ENDBRANCH  19  21
ENDBRANCH  13  19
ENDBRANCH  12  13
ENDBRANCH   9  12
ENDBRANCH   8   9
ENDBRANCH   7   8
TORSDOF 7
ENDMDL
MODEL 3
REMARK VINA RESULT: -5.362594118      9.691     11.446
REMARK  7 active torsions:
REMARK  status: ('A' for Active; 'I' for Inactive)
REMARK    1  A    between atoms: C7_7  and  C8_8 
REMARK    2  A    between atoms: C8_8  and  N1_9 
REMARK    3  A    between atoms: N1_9  and  C11_12 
REMARK    4  A    between atoms: C11_12  and  C12_13 
REMARK    5  A    between atoms: C12_13  and  N4_19 
REMARK    6  A    between atoms: N2_14  and  N3_16 
REMARK    7  A    between atoms: N4_19  and  N5_21 
ROOT
HETATM    1  C1  UNL     1      49.078  -0.892  35.415  1.00  0.00     0.012 C 
HETATM    2  C2  UNL     1      49.048  -0.383  36.510  1.00  0.00    -0.112 C 
HETATM    3  C3  UNL     1      48.995   0.224  37.846  1.00  0.00     0.070 C 
HETATM    4  C4  UNL     1      49.613  -0.731  38.867  1.00  0.00     0.017 C 
HETATM    5  C5  UNL     1      48.476  -1.223  39.737  1.00  0.00     0.002 C 
HETATM    6  C6  UNL     1      47.289  -1.038  38.782  1.00  0.00     0.007 C 
HETATM    7  C7  UNL     1      47.522   0.356  38.297  1.00  0.00     0.027 C 
ENDROOT
BRANCH   7   8
HETATM    8  C8  UNL     1      46.666   0.809  37.175  1.00  0.00     0.242 C 
BRANCH   8   9
HETATM    9  N1  UNL     1      45.552   1.679  37.582  1.00  0.00    -0.068 N 
HETATM   10  C9  UNL     1      44.333   0.920  37.627  1.00  0.00     0.272 C 
HETATM   11  C10 UNL     1      45.797   2.263  38.870  1.00  0.00     0.272 C 
BRANCH   9  12
HETATM   12  C11 UNL     1      45.489   2.767  36.632  1.00  0.00     0.315 C 
BRANCH  12  13
HETATM   13  C12 UNL     1      44.495   2.622  35.563  1.00  0.00     0.136 C 
HETATM   14  N2  UNL     1      43.426   3.336  35.570  1.00  0.00    -0.293 N 
ATOM     15  H2  UNL     1      42.732   3.241  34.829  1.00  0.00     0.187 HD
BRANCH  14  16
HETATM   16  N3  UNL     1      43.236   4.244  36.609  1.00  0.00    -0.344 N 
ATOM     17  H32 UNL     1      43.063   5.226  36.396  1.00  0.00     0.176 HD
ATOM     18  H31 UNL     1      43.274   3.903  37.569  1.00  0.00     0.176 HD
ENDBRANCH  14  16
BRANCH  13  19
HETATM   19  N4  UNL     1      44.649   1.710  34.494  1.00  0.00    -0.293 N 
ATOM     20  H4  UNL     1      43.828   1.167  34.228  1.00  0.00     0.187 HD
BRANCH  19  21
HETATM   21  N5  UNL     1      45.812   1.484  33.773  1.00  0.00    -0.344 N 
ATOM     22  H52 UNL     1      46.410   0.733  34.117  1.00  0.00     0.176 HD
ATOM     23  H51 UNL     1      46.114   1.996  32.944  1.00  0.00     0.176 HD
ENDBRANCH  19  21
ENDBRANCH  13  19
ENDBRANCH  12  13
ENDBRANCH   9  12
ENDBRANCH   8   9
ENDBRANCH   7   8
TORSDOF 7
ENDMDL
MODEL 4
REMARK VINA RESULT: -5.316816948      2.441      3.988
REMARK  7 active torsions:
REMARK  status: ('A' for Active; 'I' for Inactive)
REMARK    1  A    between atoms: C7_7  and  C8_8 
REMARK    2  A    between atoms: C8_8  and  N1_9 
REMARK    3  A    between atoms: N1_9  and  C11_12 
REMARK    4  A    between atoms: C11_12  and  C12_13 
REMARK    5  A    between atoms: C12_13  and  N4_19 
REMARK    6  A    between atoms: N2_14  and  N3_16 
REMARK    7  A    between atoms: N4_19  and  N5_21 
ROOT
HETATM    1  C1  UNL     1      37.064  -2.498  28.975  1.00  0.00     0.012 C 
HETATM    2  C2  UNL     1      37.501  -2.112  30.033  1.00  0.00    -0.112 C 
HETATM    3  C3  UNL     1      38.045  -1.628  31.308  1.00  0.00     0.070 C 
HETATM    4  C4  UNL     1      37.381  -0.302  31.678  1.00  0.00     0.017 C 
HETATM    5  C5  UNL     1      38.448   0.763  31.544  1.00  0.00     0.002 C 
HETATM    6  C6  UNL     1      39.390   0.095  30.533  1.00  0.00     0.007 C 
HETATM    7  C7  UNL     1      39.538  -1.266  31.131  1.00  0.00     0.027 C 
ENDROOT
BRANCH   7   8
HETATM    8  C8  UNL     1      40.229  -2.276  30.295  1.00  0.00     0.242 C 
BRANCH   8   9
HETATM    9  N1  UNL     1      41.095  -3.192  31.053  1.00  0.00    -0.068 N 
HETATM   10  C9  UNL     1      41.223  -2.733  32.408  1.00  0.00     0.272 C 
HETATM   11  C10 UNL     1      40.565  -4.525  31.050  1.00  0.00     0.272 C 
BRANCH   9  12
HETATM   12  C11 UNL     1      42.367  -3.245  30.366  1.00  0.00     0.315 C 
BRANCH  12  13
HETATM   13  C12 UNL     1      42.378  -2.699  29.004  1.00  0.00     0.136 C 
HETATM   14  N2  UNL     1      42.370  -3.487  27.989  1.00  0.00    -0.293 N 
ATOM     15  H2  UNL     1      42.376  -3.114  27.040  1.00  0.00     0.187 HD
BRANCH  14  16
HETATM   16  N3  UNL     1      42.351  -4.862  28.211  1.00  0.00    -0.344 N 
ATOM     17  H32 UNL     1      43.138  -5.308  28.683  1.00  0.00     0.176 HD
ATOM     18  H31 UNL     1      41.544  -5.398  27.895  1.00  0.00     0.176 HD
ENDBRANCH  14  16
BRANCH  13  19
HETATM   19  N4  UNL     1      42.400  -1.311  28.737  1.00  0.00    -0.293 N 
ATOM     20  H4  UNL     1      41.510  -0.872  28.502  1.00  0.00     0.187 HD
BRANCH  19  21
HETATM   21  N5  UNL     1      43.517  -0.490  28.764  1.00  0.00    -0.344 N 
ATOM     22  H52 UNL     1      44.417  -0.967  28.825  1.00  0.00     0.176 HD
ATOM     23  H51 UNL     1      43.516   0.529  28.728  1.00  0.00     0.176 HD
ENDBRANCH  19  21
ENDBRANCH  13  19
ENDBRANCH  12  13
ENDBRANCH   9  12
ENDBRANCH   8   9
ENDBRANCH   7   8
TORSDOF 7
ENDMDL
MODEL 5
REMARK VINA RESULT: -5.297218824      2.019      3.773
REMARK  7 active torsions:
REMARK  status: ('A' for Active; 'I' for Inactive)
REMARK    1  A    between atoms: C7_7  and  C8_8 
REMARK    2  A    between atoms: C8_8  and  N1_9 
REMARK    3  A    between atoms: N1_9  and  C11_12 
REMARK    4  A    between atoms: C11_12  and  C12_13 
REMARK    5  A    between atoms: C12_13  and  N4_19 
REMARK    6  A    between atoms: N2_14  and  N3_16 
REMARK    7  A    between atoms: N4_19  and  N5_21 
ROOT
HETATM    1  C1  UNL     1      44.759  -6.781  31.607  1.00  0.00     0.012 C 
HETATM    2  C2  UNL     1      43.819  -6.028  31.699  1.00  0.00    -0.112 C 
HETATM    3  C3  UNL     1      42.668  -5.120  31.793  1.00  0.00     0.070 C 
HETATM    4  C4  UNL     1      41.482  -5.860  32.412  1.00  0.00     0.017 C 
HETATM    5  C5  UNL     1      40.458  -6.026  31.310  1.00  0.00     0.002 C 
HETATM    6  C6  UNL     1      41.363  -5.964  30.071  1.00  0.00     0.007 C 
HETATM    7  C7  UNL     1      42.181  -4.751  30.372  1.00  0.00     0.027 C 
ENDROOT
BRANCH   7   8
HETATM    8  C8  UNL     1      43.331  -4.499  29.471  1.00  0.00     0.242 C 
BRANCH   8   9
HETATM    9  N1  UNL     1      43.077  -3.475  28.446  1.00  0.00    -0.068 N 
HETATM   10  C9  UNL     1      43.063  -4.083  27.144  1.00  0.00     0.272 C 
HETATM   11  C10 UNL     1      41.825  -2.814  28.675  1.00  0.00     0.272 C 
BRANCH   9  12
HETATM   12  C11 UNL     1      44.111  -2.473  28.576  1.00  0.00     0.315 C 
BRANCH  12  13
HETATM   13  C12 UNL     1      44.231  -1.533  27.455  1.00  0.00     0.136 C 
HETATM   14  N2  UNL     1      43.949  -0.290  27.619  1.00  0.00    -0.293 N 
ATOM     15  H2  UNL     1      44.031   0.369  26.844  1.00  0.00     0.187 HD
BRANCH  14  16
HETATM   16  N3  UNL     1      43.529   0.140  28.875  1.00  0.00    -0.344 N 
ATOM     17  H32 UNL     1      42.637   0.623  28.971  1.00  0.00     0.176 HD
ATOM     18  H31 UNL     1      44.130  -0.038  29.679  1.00  0.00     0.176 HD
ENDBRANCH  14  16
BRANCH  13  19
HETATM   19  N4  UNL     1      44.650  -1.931  26.165  1.00  0.00    -0.293 N 
ATOM     20  H4  UNL     1      45.356  -2.666  26.115  1.00  0.00     0.187 HD
BRANCH  19  21
HETATM   21  N5  UNL     1      44.193  -1.417  24.962  1.00  0.00    -0.344 N 
ATOM     22  H52 UNL     1      43.822  -0.468  24.997  1.00  0.00     0.176 HD
ATOM     23  H51 UNL     1      44.195  -1.898  24.062  1.00  0.00     0.176 HD
ENDBRANCH  19  21
ENDBRANCH  13  19
ENDBRANCH  12  13
ENDBRANCH   9  12
ENDBRANCH   8   9
ENDBRANCH   7   8
TORSDOF 7
ENDMDL
