MODEL 1
REMARK VINA RESULT: -5.678619886      0.000      0.000
REMARK  4 active torsions:
REMARK  status: ('A' for Active; 'I' for Inactive)
REMARK       I    between atoms: C1_4  and  N3_6 
REMARK    1  A    between atoms: N3_6  and  C2_8 
REMARK    2  A    between atoms: C2_8  and  C3_9 
REMARK    3  A    between atoms: C3_9  and  C4_10 
REMARK    4  A    between atoms: C4_10  and  N4_11 
ROOT
HETATM    1  C3  UNL     1      43.644  -1.102  27.692  1.00  0.00     0.064 C 
ENDROOT
BRANCH   1   2
HETATM    2  C2  UNL     1      44.659  -1.619  26.723  1.00  0.00     0.127 C 
BRANCH   2   3
HETATM    3  N3  UNL     1      44.658  -3.056  26.553  1.00  0.00    -0.365 N 
HETATM    4  C1  UNL     1      44.322  -3.493  25.220  1.00  0.00     0.181 C 
HETATM    5  N1  UNL     1      43.935  -4.695  25.006  1.00  0.00    -0.374 N 
HETATM    6  N2  UNL     1      44.375  -2.580  24.112  1.00  0.00    -0.064 NA
ATOM      7  H12 UNL     1      43.697  -5.004  24.064  1.00  0.00     0.158 HD
ATOM      8  H11 UNL     1      43.897  -5.342  25.793  1.00  0.00     0.158 HD
ATOM      9  H3  UNL     1      44.876  -3.705  27.310  1.00  0.00     0.162 HD
ENDBRANCH   2   3
ENDBRANCH   1   2
BRANCH   1  10
HETATM   10  C4  UNL     1      43.887  -1.670  29.092  1.00  0.00     0.064 C 
BRANCH  10  11
HETATM   11  N4  UNL     1      42.886  -2.488  29.595  1.00  0.00    -0.373 N 
HETATM   12  C5  UNL     1      43.203  -3.385  30.647  1.00  0.00     0.128 C 
HETATM   13  C6  UNL     1      43.622  -4.754  30.108  1.00  0.00     0.033 C 
HETATM   14  C7  UNL     1      42.425  -5.539  29.689  1.00  0.00     0.110 C 
HETATM   15  S1  UNL     1      40.884  -4.905  30.231  1.00  0.00     0.019 S 
HETATM   16  O1  UNL     1      40.668  -5.328  31.834  1.00  0.00    -0.258 OA
HETATM   17  C8  UNL     1      40.599  -3.218  29.896  1.00  0.00     0.153 C 
HETATM   18  C9  UNL     1      41.626  -2.581  29.011  1.00  0.00     0.075 C 
ENDBRANCH  10  11
ENDBRANCH   1  10
TORSDOF 4
ENDMDL
MODEL 2
REMARK VINA RESULT: -5.553050838      1.019      2.064
REMARK  4 active torsions:
REMARK  status: ('A' for Active; 'I' for Inactive)
REMARK       I    between atoms: C1_4  and  N3_6 
REMARK    1  A    between atoms: N3_6  and  C2_8 
REMARK    2  A    between atoms: C2_8  and  C3_9 
REMARK    3  A    between atoms: C3_9  and  C4_10 
REMARK    4  A    between atoms: C4_10  and  N4_11 
ROOT
HETATM    1  C3  UNL     1      43.489  -1.144  27.982  1.00  0.00     0.064 C 
ENDROOT
BRANCH   1   2
HETATM    2  C2  UNL     1      44.699  -1.408  27.143  1.00  0.00     0.127 C 
BRANCH   2   3
HETATM    3  N3  UNL     1      44.438  -1.528  25.725  1.00  0.00    -0.365 N 
HETATM    4  C1  UNL     1      44.366  -2.888  25.251  1.00  0.00     0.181 C 
HETATM    5  N1  UNL     1      44.500  -3.151  24.004  1.00  0.00    -0.374 N 
HETATM    6  N2  UNL     1      44.182  -3.978  26.168  1.00  0.00    -0.064 NA
ATOM      7  H12 UNL     1      44.449  -4.113  23.669  1.00  0.00     0.158 HD
ATOM      8  H11 UNL     1      44.630  -2.378  23.353  1.00  0.00     0.158 HD
ATOM      9  H3  UNL     1      44.317  -0.721  25.113  1.00  0.00     0.162 HD
ENDBRANCH   2   3
ENDBRANCH   1   2
BRANCH   1  10
HETATM   10  C4  UNL     1      43.672  -1.702  29.395  1.00  0.00     0.064 C 
BRANCH  10  11
HETATM   11  N4  UNL     1      43.064  -2.922  29.647  1.00  0.00    -0.373 N 
HETATM   12  C5  UNL     1      41.972  -3.321  28.834  1.00  0.00     0.128 C 
HETATM   13  C6  UNL     1      40.636  -2.881  29.436  1.00  0.00     0.033 C 
HETATM   14  C7  UNL     1      40.243  -3.790  30.552  1.00  0.00     0.110 C 
HETATM   15  S1  UNL     1      41.153  -5.283  30.661  1.00  0.00     0.019 S 
HETATM   16  O1  UNL     1      40.566  -6.349  29.514  1.00  0.00    -0.258 OA
HETATM   17  C8  UNL     1      42.888  -5.116  30.654  1.00  0.00     0.153 C 
HETATM   18  C9  UNL     1      43.373  -3.702  30.758  1.00  0.00     0.075 C 
ENDBRANCH  10  11
ENDBRANCH   1  10
TORSDOF 4
ENDMDL
MODEL 3
REMARK VINA RESULT: -5.542661707      0.872      1.906
REMARK  4 active torsions:
REMARK  status: ('A' for Active; 'I' for Inactive)
REMARK       I    between atoms: C1_4  and  N3_6 
REMARK    1  A    between atoms: N3_6  and  C2_8 
REMARK    2  A    between atoms: C2_8  and  C3_9 
REMARK    3  A    between atoms: C3_9  and  C4_10 
REMARK    4  A    between atoms: C4_10  and  N4_11 
ROOT
HETATM    1  C3  UNL     1      43.571  -1.324  27.659  1.00  0.00     0.064 C 
ENDROOT
BRANCH   1   2
HETATM    2  C2  UNL     1      44.630  -1.884  26.765  1.00  0.00     0.127 C 
BRANCH   2   3
HETATM    3  N3  UNL     1      44.504  -3.298  26.487  1.00  0.00    -0.365 N 
HETATM    4  C1  UNL     1      44.159  -3.603  25.121  1.00  0.00     0.181 C 
HETATM    5  N1  UNL     1      43.671  -4.747  24.812  1.00  0.00    -0.374 N 
HETATM    6  N2  UNL     1      44.317  -2.621  24.085  1.00  0.00    -0.064 NA
ATOM      7  H12 UNL     1      43.426  -4.962  23.846  1.00  0.00     0.158 HD
ATOM      8  H11 UNL     1      43.559  -5.444  25.547  1.00  0.00     0.158 HD
ATOM      9  H3  UNL     1      44.648  -4.018  27.196  1.00  0.00     0.162 HD
ENDBRANCH   2   3
ENDBRANCH   1   2
BRANCH   1  10
HETATM   10  C4  UNL     1      43.801  -1.748  29.111  1.00  0.00     0.064 C 
BRANCH  10  11
HETATM   11  N4  UNL     1      42.944  -2.723  29.599  1.00  0.00    -0.373 N 
HETATM   12  C5  UNL     1      41.688  -2.907  28.965  1.00  0.00     0.128 C 
HETATM   13  C6  UNL     1      40.599  -2.058  29.623  1.00  0.00     0.033 C 
HETATM   14  C7  UNL     1      40.142  -2.690  30.895  1.00  0.00     0.110 C 
HETATM   15  S1  UNL     1      40.652  -4.349  31.134  1.00  0.00     0.019 S 
HETATM   16  O1  UNL     1      39.668  -5.347  30.221  1.00  0.00    -0.258 OA
HETATM   17  C8  UNL     1      42.356  -4.655  30.933  1.00  0.00     0.153 C 
HETATM   18  C9  UNL     1      43.191  -3.420  30.778  1.00  0.00     0.075 C 
ENDBRANCH  10  11
ENDBRANCH   1  10
TORSDOF 4
ENDMDL
MODEL 4
REMARK VINA RESULT: -5.261603723      1.164      1.876
REMARK  4 active torsions:
REMARK  status: ('A' for Active; 'I' for Inactive)
REMARK       I    between atoms: C1_4  and  N3_6 
REMARK    1  A    between atoms: N3_6  and  C2_8 
REMARK    2  A    between atoms: C2_8  and  C3_9 
REMARK    3  A    between atoms: C3_9  and  C4_10 
REMARK    4  A    between atoms: C4_10  and  N4_11 
ROOT
HETATM    1  C3  UNL     1      43.437  -1.327  28.051  1.00  0.00     0.064 C 
ENDROOT
BRANCH   1   2
HETATM    2  C2  UNL     1      44.659  -1.438  27.197  1.00  0.00     0.127 C 
BRANCH   2   3
HETATM    3  N3  UNL     1      44.400  -1.517  25.776  1.00  0.00    -0.365 N 
HETATM    4  C1  UNL     1      44.351  -2.862  25.258  1.00  0.00     0.181 C 
HETATM    5  N1  UNL     1      44.488  -3.083  24.004  1.00  0.00    -0.374 N 
HETATM    6  N2  UNL     1      44.187  -3.984  26.140  1.00  0.00    -0.064 NA
ATOM      7  H12 UNL     1      44.454  -4.034  23.638  1.00  0.00     0.158 HD
ATOM      8  H11 UNL     1      44.605  -2.287  23.378  1.00  0.00     0.158 HD
ATOM      9  H3  UNL     1      44.264  -0.693  25.190  1.00  0.00     0.162 HD
ENDBRANCH   2   3
ENDBRANCH   1   2
BRANCH   1  10
HETATM   10  C4  UNL     1      43.700  -1.876  29.455  1.00  0.00     0.064 C 
BRANCH  10  11
HETATM   11  N4  UNL     1      43.052  -3.059  29.774  1.00  0.00    -0.373 N 
HETATM   12  C5  UNL     1      41.879  -3.001  30.571  1.00  0.00     0.128 C 
HETATM   13  C6  UNL     1      42.205  -3.141  32.059  1.00  0.00     0.033 C 
HETATM   14  C7  UNL     1      42.468  -4.569  32.403  1.00  0.00     0.110 C 
HETATM   15  S1  UNL     1      41.997  -5.734  31.183  1.00  0.00     0.019 S 
HETATM   16  O1  UNL     1      40.342  -5.960  31.272  1.00  0.00    -0.258 OA
HETATM   17  C8  UNL     1      42.586  -5.425  29.572  1.00  0.00     0.153 C 
HETATM   18  C9  UNL     1      43.584  -4.312  29.482  1.00  0.00     0.075 C 
ENDBRANCH  10  11
ENDBRANCH   1  10
TORSDOF 4
ENDMDL
MODEL 5
REMARK VINA RESULT: -5.250772845      1.277      2.037
REMARK  4 active torsions:
REMARK  status: ('A' for Active; 'I' for Inactive)
REMARK       I    between atoms: C1_4  and  N3_6 
REMARK    1  A    between atoms: N3_6  and  C2_8 
REMARK    2  A    between atoms: C2_8  and  C3_9 
REMARK    3  A    between atoms: C3_9  and  C4_10 
REMARK    4  A    between atoms: C4_10  and  N4_11 
ROOT
HETATM    1  C3  UNL     1      43.029  -1.671  28.484  1.00  0.00     0.064 C 
ENDROOT
BRANCH   1   2
HETATM    2  C2  UNL     1      43.937  -1.803  27.303  1.00  0.00     0.127 C 
BRANCH   2   3
HETATM    3  N3  UNL     1      44.262  -3.165  26.937  1.00  0.00    -0.365 N 
HETATM    4  C1  UNL     1      44.263  -3.410  25.516  1.00  0.00     0.181 C 
HETATM    5  N1  UNL     1      44.177  -4.604  25.060  1.00  0.00    -0.374 N 
HETATM    6  N2  UNL     1      44.322  -2.320  24.582  1.00  0.00    -0.064 NA
ATOM      7  H12 UNL     1      44.178  -4.777  24.056  1.00  0.00     0.158 HD
ATOM      8  H11 UNL     1      44.135  -5.377  25.723  1.00  0.00     0.158 HD
ATOM      9  H3  UNL     1      44.471  -3.889  27.624  1.00  0.00     0.162 HD
ENDBRANCH   2   3
ENDBRANCH   1   2
BRANCH   1  10
HETATM   10  C4  UNL     1      43.507  -2.552  29.641  1.00  0.00     0.064 C 
BRANCH  10  11
HETATM   11  N4  UNL     1      42.892  -3.790  29.753  1.00  0.00    -0.373 N 
HETATM   12  C5  UNL     1      41.506  -3.891  29.466  1.00  0.00     0.128 C 
HETATM   13  C6  UNL     1      40.658  -3.702  30.725  1.00  0.00     0.033 C 
HETATM   14  C7  UNL     1      40.663  -4.945  31.549  1.00  0.00     0.110 C 
HETATM   15  S1  UNL     1      41.284  -6.374  30.748  1.00  0.00     0.019 S 
HETATM   16  O1  UNL     1      40.095  -6.981  29.740  1.00  0.00    -0.258 OA
HETATM   17  C8  UNL     1      42.841  -6.198  29.984  1.00  0.00     0.153 C 
HETATM   18  C9  UNL     1      43.534  -4.904  30.285  1.00  0.00     0.075 C 
ENDBRANCH  10  11
ENDBRANCH   1  10
TORSDOF 4
ENDMDL
