MODEL 1
REMARK VINA RESULT: -5.789590744      0.000      0.000
REMARK  7 active torsions:
REMARK  status: ('A' for Active; 'I' for Inactive)
REMARK    1  A    between atoms: N1_2  and  C2_4 
REMARK    2  A    between atoms: C2_4  and  N2_6 
REMARK    3  A    between atoms: N2_6  and  N3_8 
REMARK    4  A    between atoms: N3_8  and  C3_9 
REMARK    5  A    between atoms: C3_9  and  C4_10 
REMARK    6  A    between atoms: C4_10  and  C5_11 
REMARK    7  A    between atoms: C5_11  and  N4_12 
ROOT
HETATM    1  C3  UNL     1      43.806  -1.967  29.796  1.00  0.00     0.136 C 
ENDROOT
BRANCH   1   2
HETATM    2  N3  UNL     1      43.402  -1.063  30.834  1.00  0.00    -0.139 NA
BRANCH   2   3
HETATM    3  N2  UNL     1      42.289  -0.341  30.332  1.00  0.00    -0.280 N 
ATOM      4  H2  UNL     1      42.328   0.025  29.380  1.00  0.00     0.184 HD
BRANCH   3   5
HETATM    5  C2  UNL     1      41.131  -0.113  31.100  1.00  0.00     0.183 C 
HETATM    6  S1  UNL     1      41.156  -0.489  32.682  1.00  0.00    -0.040 SA
BRANCH   5   7
HETATM    7  N1  UNL     1      39.942   0.436  30.545  1.00  0.00    -0.371 N 
HETATM    8  C1  UNL     1      38.889   0.994  31.354  1.00  0.00     0.148 C 
ATOM      9  H1  UNL     1      39.831   0.436  29.531  1.00  0.00     0.161 HD
ENDBRANCH   5   7
ENDBRANCH   3   5
ENDBRANCH   2   3
ENDBRANCH   1   2
BRANCH   1  10
HETATM   10  C4  UNL     1      43.076  -1.783  28.511  1.00  0.00     0.038 C 
BRANCH  10  11
HETATM   11  C5  UNL     1      43.970  -1.267  27.399  1.00  0.00     0.129 C 
BRANCH  11  12
HETATM   12  N4  UNL     1      44.073  -2.254  26.342  1.00  0.00    -0.333 N 
HETATM   13  C6  UNL     1      44.038  -3.687  26.564  1.00  0.00     0.147 C 
HETATM   14  C7  UNL     1      43.979  -4.305  25.204  1.00  0.00     0.144 C 
HETATM   15  N5  UNL     1      44.398  -3.288  24.278  1.00  0.00    -0.341 N 
HETATM   16  C8  UNL     1      44.222  -2.049  24.942  1.00  0.00     0.318 C 
ATOM     17  H5  UNL     1      44.751  -3.430  23.332  1.00  0.00     0.164 HD
HETATM   18  O1  UNL     1      44.199  -0.918  24.401  1.00  0.00    -0.247 OA
ENDBRANCH  11  12
ENDBRANCH  10  11
ENDBRANCH   1  10
TORSDOF 7
ENDMDL
MODEL 2
REMARK VINA RESULT: -5.580506763      1.294      2.006
REMARK  7 active torsions:
REMARK  status: ('A' for Active; 'I' for Inactive)
REMARK    1  A    between atoms: N1_2  and  C2_4 
REMARK    2  A    between atoms: C2_4  and  N2_6 
REMARK    3  A    between atoms: N2_6  and  N3_8 
REMARK    4  A    between atoms: N3_8  and  C3_9 
REMARK    5  A    between atoms: C3_9  and  C4_10 
REMARK    6  A    between atoms: C4_10  and  C5_11 
REMARK    7  A    between atoms: C5_11  and  N4_12 
ROOT
HETATM    1  C3  UNL     1      43.400  -2.040  29.806  1.00  0.00     0.136 C 
ENDROOT
BRANCH   1   2
HETATM    2  N3  UNL     1      42.122  -1.394  29.736  1.00  0.00    -0.139 NA
BRANCH   2   3
HETATM    3  N2  UNL     1      42.214  -0.226  30.536  1.00  0.00    -0.280 N 
ATOM      4  H2  UNL     1      42.273   0.683  30.075  1.00  0.00     0.184 HD
BRANCH   3   5
HETATM    5  C2  UNL     1      42.226  -0.276  31.943  1.00  0.00     0.183 C 
HETATM    6  S1  UNL     1      40.883  -0.768  32.719  1.00  0.00    -0.040 SA
BRANCH   5   7
HETATM    7  N1  UNL     1      43.367   0.085  32.710  1.00  0.00    -0.371 N 
HETATM    8  C1  UNL     1      44.386  -0.861  33.086  1.00  0.00     0.148 C 
ATOM      9  H1  UNL     1      43.469   1.055  33.007  1.00  0.00     0.161 HD
ENDBRANCH   5   7
ENDBRANCH   3   5
ENDBRANCH   2   3
ENDBRANCH   1   2
BRANCH   1  10
HETATM   10  C4  UNL     1      44.340  -1.646  28.719  1.00  0.00     0.038 C 
BRANCH  10  11
HETATM   11  C5  UNL     1      43.625  -1.269  27.436  1.00  0.00     0.129 C 
BRANCH  11  12
HETATM   12  N4  UNL     1      43.895  -2.253  26.405  1.00  0.00    -0.333 N 
HETATM   13  C6  UNL     1      43.879  -3.686  26.629  1.00  0.00     0.147 C 
HETATM   14  C7  UNL     1      44.015  -4.307  25.275  1.00  0.00     0.144 C 
HETATM   15  N5  UNL     1      44.514  -3.278  24.405  1.00  0.00    -0.341 N 
HETATM   16  C8  UNL     1      44.215  -2.044  25.035  1.00  0.00     0.318 C 
ATOM     17  H5  UNL     1      44.990  -3.409  23.512  1.00  0.00     0.164 HD
HETATM   18  O1  UNL     1      44.223  -0.915  24.489  1.00  0.00    -0.247 OA
ENDBRANCH  11  12
ENDBRANCH  10  11
ENDBRANCH   1  10
TORSDOF 7
ENDMDL
MODEL 3
REMARK VINA RESULT: -5.504090658      1.193      1.247
REMARK  7 active torsions:
REMARK  status: ('A' for Active; 'I' for Inactive)
REMARK    1  A    between atoms: N1_2  and  C2_4 
REMARK    2  A    between atoms: C2_4  and  N2_6 
REMARK    3  A    between atoms: N2_6  and  N3_8 
REMARK    4  A    between atoms: N3_8  and  C3_9 
REMARK    5  A    between atoms: C3_9  and  C4_10 
REMARK    6  A    between atoms: C4_10  and  C5_11 
REMARK    7  A    between atoms: C5_11  and  N4_12 
ROOT
HETATM    1  C3  UNL     1      43.070  -1.240  30.127  1.00  0.00     0.136 C 
ENDROOT
BRANCH   1   2
HETATM    2  N3  UNL     1      42.146  -0.242  30.584  1.00  0.00    -0.139 NA
BRANCH   2   3
HETATM    3  N2  UNL     1      40.930  -0.469  29.891  1.00  0.00    -0.280 N 
ATOM      4  H2  UNL     1      40.966  -0.804  28.928  1.00  0.00     0.184 HD
BRANCH   3   5
HETATM    5  C2  UNL     1      39.673  -0.247  30.485  1.00  0.00     0.183 C 
HETATM    6  S1  UNL     1      38.590  -1.461  30.501  1.00  0.00    -0.040 SA
BRANCH   5   7
HETATM    7  N1  UNL     1      39.315   0.997  31.074  1.00  0.00    -0.371 N 
HETATM    8  C1  UNL     1      38.387   1.103  32.171  1.00  0.00     0.148 C 
ATOM      9  H1  UNL     1      39.733   1.851  30.705  1.00  0.00     0.161 HD
ENDBRANCH   5   7
ENDBRANCH   3   5
ENDBRANCH   2   3
ENDBRANCH   1   2
BRANCH   1  10
HETATM   10  C4  UNL     1      42.809  -1.721  28.742  1.00  0.00     0.038 C 
BRANCH  10  11
HETATM   11  C5  UNL     1      43.821  -1.197  27.741  1.00  0.00     0.129 C 
BRANCH  11  12
HETATM   12  N4  UNL     1      44.016  -2.161  26.675  1.00  0.00    -0.333 N 
HETATM   13  C6  UNL     1      44.022  -3.598  26.873  1.00  0.00     0.147 C 
HETATM   14  C7  UNL     1      44.057  -4.195  25.502  1.00  0.00     0.144 C 
HETATM   15  N5  UNL     1      44.486  -3.147  24.616  1.00  0.00    -0.341 N 
HETATM   16  C8  UNL     1      44.231  -1.927  25.289  1.00  0.00     0.318 C 
ATOM     17  H5  UNL     1      44.893  -3.260  23.687  1.00  0.00     0.164 HD
HETATM   18  O1  UNL     1      44.194  -0.788  24.764  1.00  0.00    -0.247 OA
ENDBRANCH  11  12
ENDBRANCH  10  11
ENDBRANCH   1  10
TORSDOF 7
ENDMDL
MODEL 4
REMARK VINA RESULT: -5.498430808      1.921      2.615
REMARK  7 active torsions:
REMARK  status: ('A' for Active; 'I' for Inactive)
REMARK    1  A    between atoms: N1_2  and  C2_4 
REMARK    2  A    between atoms: C2_4  and  N2_6 
REMARK    3  A    between atoms: N2_6  and  N3_8 
REMARK    4  A    between atoms: N3_8  and  C3_9 
REMARK    5  A    between atoms: C3_9  and  C4_10 
REMARK    6  A    between atoms: C4_10  and  C5_11 
REMARK    7  A    between atoms: C5_11  and  N4_12 
ROOT
HETATM    1  C3  UNL     1      42.588  -1.224  29.560  1.00  0.00     0.136 C 
ENDROOT
BRANCH   1   2
HETATM    2  N3  UNL     1      42.768  -0.581  30.829  1.00  0.00    -0.139 NA
BRANCH   2   3
HETATM    3  N2  UNL     1      43.867  -1.223  31.456  1.00  0.00    -0.280 N 
ATOM      4  H2  UNL     1      44.418  -1.893  30.919  1.00  0.00     0.184 HD
BRANCH   3   5
HETATM    5  C2  UNL     1      44.226  -0.966  32.793  1.00  0.00     0.183 C 
HETATM    6  S1  UNL     1      43.739  -2.006  33.946  1.00  0.00    -0.040 SA
BRANCH   5   7
HETATM    7  N1  UNL     1      44.999   0.165  33.173  1.00  0.00    -0.371 N 
HETATM    8  C1  UNL     1      44.456   1.263  33.931  1.00  0.00     0.148 C 
ATOM      9  H1  UNL     1      45.980   0.201  32.898  1.00  0.00     0.161 HD
ENDBRANCH   5   7
ENDBRANCH   3   5
ENDBRANCH   2   3
ENDBRANCH   1   2
BRANCH   1  10
HETATM   10  C4  UNL     1      43.859  -1.630  28.897  1.00  0.00     0.038 C 
BRANCH  10  11
HETATM   11  C5  UNL     1      44.003  -1.049  27.503  1.00  0.00     0.129 C 
BRANCH  11  12
HETATM   12  N4  UNL     1      44.141  -2.115  26.530  1.00  0.00    -0.333 N 
HETATM   13  C6  UNL     1      44.165  -3.525  26.868  1.00  0.00     0.147 C 
HETATM   14  C7  UNL     1      44.124  -4.255  25.564  1.00  0.00     0.144 C 
HETATM   15  N5  UNL     1      44.497  -3.302  24.555  1.00  0.00    -0.341 N 
HETATM   16  C8  UNL     1      44.274  -2.020  25.116  1.00  0.00     0.318 C 
ATOM     17  H5  UNL     1      44.850  -3.506  23.620  1.00  0.00     0.164 HD
HETATM   18  O1  UNL     1      44.201  -0.939  24.484  1.00  0.00    -0.247 OA
ENDBRANCH  11  12
ENDBRANCH  10  11
ENDBRANCH   1  10
TORSDOF 7
ENDMDL
MODEL 5
REMARK VINA RESULT: -5.496784607      1.731      2.018
REMARK  7 active torsions:
REMARK  status: ('A' for Active; 'I' for Inactive)
REMARK    1  A    between atoms: N1_2  and  C2_4 
REMARK    2  A    between atoms: C2_4  and  N2_6 
REMARK    3  A    between atoms: N2_6  and  N3_8 
REMARK    4  A    between atoms: N3_8  and  C3_9 
REMARK    5  A    between atoms: C3_9  and  C4_10 
REMARK    6  A    between atoms: C4_10  and  C5_11 
REMARK    7  A    between atoms: C5_11  and  N4_12 
ROOT
HETATM    1  C3  UNL     1      43.578  -2.564  30.202  1.00  0.00     0.136 C 
ENDROOT
BRANCH   1   2
HETATM    2  N3  UNL     1      43.919  -1.199  29.921  1.00  0.00    -0.139 NA
BRANCH   2   3
HETATM    3  N2  UNL     1      42.697  -0.479  29.867  1.00  0.00    -0.280 N 
ATOM      4  H2  UNL     1      42.379  -0.116  28.969  1.00  0.00     0.184 HD
BRANCH   3   5
HETATM    5  C2  UNL     1      41.909  -0.248  31.011  1.00  0.00     0.183 C 
HETATM    6  S1  UNL     1      40.291  -0.207  30.849  1.00  0.00    -0.040 SA
BRANCH   5   7
HETATM    7  N1  UNL     1      42.474  -0.053  32.301  1.00  0.00    -0.371 N 
HETATM    8  C1  UNL     1      42.251  -0.962  33.397  1.00  0.00     0.148 C 
ATOM      9  H1  UNL     1      43.062   0.766  32.458  1.00  0.00     0.161 HD
ENDBRANCH   5   7
ENDBRANCH   3   5
ENDBRANCH   2   3
ENDBRANCH   1   2
BRANCH   1  10
HETATM   10  C4  UNL     1      43.873  -3.506  29.087  1.00  0.00     0.038 C 
BRANCH  10  11
HETATM   11  C5  UNL     1      42.801  -3.495  28.013  1.00  0.00     0.129 C 
BRANCH  11  12
HETATM   12  N4  UNL     1      43.383  -3.158  26.729  1.00  0.00    -0.333 N 
HETATM   13  C6  UNL     1      43.645  -4.123  25.678  1.00  0.00     0.147 C 
HETATM   14  C7  UNL     1      44.055  -3.320  24.485  1.00  0.00     0.144 C 
HETATM   15  N5  UNL     1      44.418  -2.020  24.977  1.00  0.00    -0.341 N 
HETATM   16  C8  UNL     1      43.798  -1.886  26.244  1.00  0.00     0.318 C 
ATOM     17  H5  UNL     1      45.004  -1.329  24.508  1.00  0.00     0.164 HD
HETATM   18  O1  UNL     1      43.627  -0.815  26.874  1.00  0.00    -0.247 OA
ENDBRANCH  11  12
ENDBRANCH  10  11
ENDBRANCH   1  10
TORSDOF 7
ENDMDL
