MODEL 1
REMARK VINA RESULT: -6.381684673      0.000      0.000
REMARK  3 active torsions:
REMARK  status: ('A' for Active; 'I' for Inactive)
REMARK       I    between atoms: C1_4  and  N3_6 
REMARK    1  A    between atoms: C3_8  and  O1_9 
REMARK    2  A    between atoms: O1_9  and  C4_10 
REMARK    3  A    between atoms: C4_10  and  C5_11 
REMARK       I    between atoms: N4_15  and  C9_16 
ROOT
HETATM    1  C4  UNL     1      42.664  -1.280  29.712  1.00  0.00     0.193 C 
ENDROOT
BRANCH   1   2
HETATM    2  O1  UNL     1      42.929  -2.608  30.007  1.00  0.00    -0.381 OA
BRANCH   2   3
HETATM    3  C3  UNL     1      43.643  -3.249  29.000  1.00  0.00     0.157 C 
HETATM    4  C2  UNL     1      42.734  -3.714  27.881  1.00  0.00     0.159 C 
HETATM    5  N3  UNL     1      43.745  -3.279  26.945  1.00  0.00    -0.351 N 
HETATM    6  C1  UNL     1      44.132  -3.623  25.628  1.00  0.00     0.184 C 
HETATM    7  C10 UNL     1      44.200  -2.332  27.937  1.00  0.00     0.159 C 
HETATM    8  N1  UNL     1      44.404  -4.866  25.315  1.00  0.00    -0.374 N 
HETATM    9  N2  UNL     1      44.249  -2.679  24.583  1.00  0.00    -0.064 NA
ATOM     10  H12 UNL     1      44.682  -5.114  24.366  1.00  0.00     0.158 HD
ATOM     11  H11 UNL     1      44.319  -5.547  26.069  1.00  0.00     0.158 HD
ENDBRANCH   2   3
ENDBRANCH   1   2
BRANCH   1  12
HETATM   12  C5  UNL     1      42.555  -0.545  31.033  1.00  0.00     0.110 C 
HETATM   13  C6  UNL     1      43.452  -1.188  32.067  1.00  0.00     0.029 C 
HETATM   14  C7  UNL     1      42.748  -0.907  33.352  1.00  0.00     0.022 C 
HETATM   15  C8  UNL     1      41.270  -0.975  32.947  1.00  0.00     0.126 C 
HETATM   16  N4  UNL     1      41.236  -0.549  31.568  1.00  0.00    -0.349 N 
HETATM   17  C9  UNL     1      40.057  -0.193  30.870  1.00  0.00     0.184 C 
HETATM   18  N5  UNL     1      39.538  -0.893  29.942  1.00  0.00    -0.374 N 
HETATM   19  N6  UNL     1      39.446   1.051  31.271  1.00  0.00    -0.064 NA
ATOM     20  H52 UNL     1      39.970  -1.772  29.659  1.00  0.00     0.158 HD
ATOM     21  H51 UNL     1      38.689  -0.636  29.439  1.00  0.00     0.158 HD
ENDBRANCH   1  12
TORSDOF 3
ENDMDL
MODEL 2
REMARK VINA RESULT: -5.867191300      0.928      1.469
REMARK  3 active torsions:
REMARK  status: ('A' for Active; 'I' for Inactive)
REMARK       I    between atoms: C1_4  and  N3_6 
REMARK    1  A    between atoms: C3_8  and  O1_9 
REMARK    2  A    between atoms: O1_9  and  C4_10 
REMARK    3  A    between atoms: C4_10  and  C5_11 
REMARK       I    between atoms: N4_15  and  C9_16 
ROOT
HETATM    1  C4  UNL     1      43.059  -1.501  30.326  1.00  0.00     0.193 C 
ENDROOT
BRANCH   1   2
HETATM    2  O1  UNL     1      43.925  -0.830  29.477  1.00  0.00    -0.381 OA
BRANCH   2   3
HETATM    3  C3  UNL     1      43.619  -1.026  28.134  1.00  0.00     0.157 C 
HETATM    4  C2  UNL     1      44.844  -1.418  27.335  1.00  0.00     0.159 C 
HETATM    5  N3  UNL     1      44.019  -2.371  26.630  1.00  0.00    -0.351 N 
HETATM    6  C1  UNL     1      44.037  -2.993  25.359  1.00  0.00     0.184 C 
HETATM    7  C10 UNL     1      43.156  -2.422  27.788  1.00  0.00     0.159 C 
HETATM    8  N1  UNL     1      44.108  -2.275  24.265  1.00  0.00    -0.374 N 
HETATM    9  N2  UNL     1      43.981  -4.394  25.180  1.00  0.00    -0.064 NA
ATOM     10  H12 UNL     1      44.121  -2.723  23.349  1.00  0.00     0.158 HD
ATOM     11  H11 UNL     1      44.148  -1.264  24.394  1.00  0.00     0.158 HD
ENDBRANCH   2   3
ENDBRANCH   1   2
BRANCH   1  12
HETATM   12  C5  UNL     1      42.712  -0.546  31.451  1.00  0.00     0.110 C 
HETATM   13  C6  UNL     1      43.345  -1.008  32.745  1.00  0.00     0.029 C 
HETATM   14  C7  UNL     1      42.404  -0.501  33.786  1.00  0.00     0.022 C 
HETATM   15  C8  UNL     1      41.040  -0.624  33.094  1.00  0.00     0.126 C 
HETATM   16  N4  UNL     1      41.312  -0.445  31.687  1.00  0.00    -0.349 N 
HETATM   17  C9  UNL     1      40.322  -0.204  30.705  1.00  0.00     0.184 C 
HETATM   18  N5  UNL     1      39.974  -1.049  29.820  1.00  0.00    -0.374 N 
HETATM   19  N6  UNL     1      39.699   1.097  30.753  1.00  0.00    -0.064 NA
ATOM     20  H52 UNL     1      40.414  -1.968  29.786  1.00  0.00     0.158 HD
ATOM     21  H51 UNL     1      39.261  -0.875  29.112  1.00  0.00     0.158 HD
ENDBRANCH   1  12
TORSDOF 3
ENDMDL
MODEL 3
REMARK VINA RESULT: -5.740093170      1.548      2.638
REMARK  3 active torsions:
REMARK  status: ('A' for Active; 'I' for Inactive)
REMARK       I    between atoms: C1_4  and  N3_6 
REMARK    1  A    between atoms: C3_8  and  O1_9 
REMARK    2  A    between atoms: O1_9  and  C4_10 
REMARK    3  A    between atoms: C4_10  and  C5_11 
REMARK       I    between atoms: N4_15  and  C9_16 
ROOT
HETATM    1  C4  UNL     1      42.178  -0.674  30.206  1.00  0.00     0.193 C 
ENDROOT
BRANCH   1   2
HETATM    2  O1  UNL     1      43.012  -1.745  30.488  1.00  0.00    -0.381 OA
BRANCH   2   3
HETATM    3  C3  UNL     1      43.777  -2.132  29.393  1.00  0.00     0.157 C 
HETATM    4  C2  UNL     1      42.907  -2.582  28.237  1.00  0.00     0.159 C 
HETATM    5  N3  UNL     1      43.807  -1.880  27.352  1.00  0.00    -0.351 N 
HETATM    6  C1  UNL     1      44.191  -1.986  25.994  1.00  0.00     0.184 C 
HETATM    7  C10 UNL     1      44.150  -1.010  28.454  1.00  0.00     0.159 C 
HETATM    8  N1  UNL     1      44.635  -3.121  25.513  1.00  0.00    -0.374 N 
HETATM    9  N2  UNL     1      44.128  -0.907  25.083  1.00  0.00    -0.064 NA
ATOM     10  H12 UNL     1      44.912  -3.199  24.535  1.00  0.00     0.158 HD
ATOM     11  H11 UNL     1      44.682  -3.899  26.170  1.00  0.00     0.158 HD
ENDBRANCH   2   3
ENDBRANCH   1   2
BRANCH   1  12
HETATM   12  C5  UNL     1      40.946  -0.830  31.075  1.00  0.00     0.110 C 
HETATM   13  C6  UNL     1      39.728  -0.289  30.359  1.00  0.00     0.029 C 
HETATM   14  C7  UNL     1      38.850   0.168  31.476  1.00  0.00     0.022 C 
HETATM   15  C8  UNL     1      39.861   0.672  32.513  1.00  0.00     0.126 C 
HETATM   16  N4  UNL     1      41.043  -0.133  32.313  1.00  0.00    -0.349 N 
HETATM   17  C9  UNL     1      42.125  -0.206  33.222  1.00  0.00     0.184 C 
HETATM   18  N5  UNL     1      43.274   0.294  33.005  1.00  0.00    -0.374 N 
HETATM   19  N6  UNL     1      41.856  -0.903  34.456  1.00  0.00    -0.064 NA
ATOM     20  H52 UNL     1      43.464   0.788  32.133  1.00  0.00     0.158 HD
ATOM     21  H51 UNL     1      44.054   0.241  33.661  1.00  0.00     0.158 HD
ENDBRANCH   1  12
TORSDOF 3
ENDMDL
MODEL 4
REMARK VINA RESULT: -5.731283480      1.053      1.705
REMARK  3 active torsions:
REMARK  status: ('A' for Active; 'I' for Inactive)
REMARK       I    between atoms: C1_4  and  N3_6 
REMARK    1  A    between atoms: C3_8  and  O1_9 
REMARK    2  A    between atoms: O1_9  and  C4_10 
REMARK    3  A    between atoms: C4_10  and  C5_11 
REMARK       I    between atoms: N4_15  and  C9_16 
ROOT
HETATM    1  C4  UNL     1      42.720  -0.463  31.159  1.00  0.00     0.193 C 
ENDROOT
BRANCH   1   2
HETATM    2  O1  UNL     1      42.525  -1.664  30.494  1.00  0.00    -0.381 OA
BRANCH   2   3
HETATM    3  C3  UNL     1      42.603  -1.530  29.112  1.00  0.00     0.157 C 
HETATM    4  C2  UNL     1      44.030  -1.656  28.619  1.00  0.00     0.159 C 
HETATM    5  N3  UNL     1      43.527  -2.438  27.513  1.00  0.00    -0.351 N 
HETATM    6  C1  UNL     1      43.945  -2.720  26.191  1.00  0.00     0.184 C 
HETATM    7  C10 UNL     1      42.404  -2.814  28.341  1.00  0.00     0.159 C 
HETATM    8  N1  UNL     1      44.218  -1.749  25.355  1.00  0.00    -0.374 N 
HETATM    9  N2  UNL     1      44.092  -4.033  25.689  1.00  0.00    -0.064 NA
ATOM     10  H12 UNL     1      44.519  -1.952  24.403  1.00  0.00     0.158 HD
ATOM     11  H11 UNL     1      44.111  -0.802  25.717  1.00  0.00     0.158 HD
ENDBRANCH   2   3
ENDBRANCH   1   2
BRANCH   1  12
HETATM   12  C5  UNL     1      41.932  -0.538  32.451  1.00  0.00     0.110 C 
HETATM   13  C6  UNL     1      42.331  -1.766  33.238  1.00  0.00     0.029 C 
HETATM   14  C7  UNL     1      41.090  -2.104  33.996  1.00  0.00     0.022 C 
HETATM   15  C8  UNL     1      39.980  -1.708  33.014  1.00  0.00     0.126 C 
HETATM   16  N4  UNL     1      40.526  -0.615  32.246  1.00  0.00    -0.349 N 
HETATM   17  C9  UNL     1      39.761   0.241  31.418  1.00  0.00     0.184 C 
HETATM   18  N5  UNL     1      39.811   0.237  30.147  1.00  0.00    -0.374 N 
HETATM   19  N6  UNL     1      38.887   1.160  32.108  1.00  0.00    -0.064 NA
ATOM     20  H52 UNL     1      40.428  -0.412  29.659  1.00  0.00     0.158 HD
ATOM     21  H51 UNL     1      39.260   0.854  29.551  1.00  0.00     0.158 HD
ENDBRANCH   1  12
TORSDOF 3
ENDMDL
MODEL 5
REMARK VINA RESULT: -5.730531029      2.584      3.537
REMARK  3 active torsions:
REMARK  status: ('A' for Active; 'I' for Inactive)
REMARK       I    between atoms: C1_4  and  N3_6 
REMARK    1  A    between atoms: C3_8  and  O1_9 
REMARK    2  A    between atoms: O1_9  and  C4_10 
REMARK    3  A    between atoms: C4_10  and  C5_11 
REMARK       I    between atoms: N4_15  and  C9_16 
ROOT
HETATM    1  C4  UNL     1      43.638  -1.248  31.668  1.00  0.00     0.193 C 
ENDROOT
BRANCH   1   2
HETATM    2  O1  UNL     1      42.888  -2.037  30.810  1.00  0.00    -0.381 OA
BRANCH   2   3
HETATM    3  C3  UNL     1      43.639  -2.549  29.757  1.00  0.00     0.157 C 
HETATM    4  C2  UNL     1      42.766  -2.903  28.571  1.00  0.00     0.159 C 
HETATM    5  N3  UNL     1      43.791  -2.350  27.715  1.00  0.00    -0.351 N 
HETATM    6  C1  UNL     1      44.215  -2.539  26.379  1.00  0.00     0.184 C 
HETATM    7  C10 UNL     1      44.202  -1.510  28.817  1.00  0.00     0.159 C 
HETATM    8  N1  UNL     1      44.520  -3.734  25.938  1.00  0.00    -0.374 N 
HETATM    9  N2  UNL     1      44.339  -1.483  25.448  1.00  0.00    -0.064 NA
ATOM     10  H12 UNL     1      44.826  -3.871  24.975  1.00  0.00     0.158 HD
ATOM     11  H11 UNL     1      44.431  -4.496  26.609  1.00  0.00     0.158 HD
ENDBRANCH   2   3
ENDBRANCH   1   2
BRANCH   1  12
HETATM   12  C5  UNL     1      43.740  -1.994  32.983  1.00  0.00     0.110 C 
HETATM   13  C6  UNL     1      42.377  -2.495  33.409  1.00  0.00     0.029 C 
HETATM   14  C7  UNL     1      42.470  -2.512  34.898  1.00  0.00     0.022 C 
HETATM   15  C8  UNL     1      43.367  -1.303  35.192  1.00  0.00     0.126 C 
HETATM   16  N4  UNL     1      44.237  -1.188  34.046  1.00  0.00    -0.349 N 
HETATM   17  C9  UNL     1      45.404  -0.389  34.005  1.00  0.00     0.184 C 
HETATM   18  N5  UNL     1      45.514   0.680  33.323  1.00  0.00    -0.374 N 
HETATM   19  N6  UNL     1      46.512  -0.861  34.800  1.00  0.00    -0.064 NA
ATOM     20  H52 UNL     1      44.732   1.014  32.761  1.00  0.00     0.158 HD
ATOM     21  H51 UNL     1      46.356   1.255  33.293  1.00  0.00     0.158 HD
ENDBRANCH   1  12
TORSDOF 3
ENDMDL
