MODEL 1
REMARK VINA RESULT: -8.892178879      0.000      0.000
REMARK  7 active torsions:
REMARK  status: ('A' for Active; 'I' for Inactive)
REMARK    1  A    between atoms: C2_3  and  N2_4 
REMARK    2  A    between atoms: C4_8  and  C5_9 
REMARK    3  A    between atoms: N4_10  and  N5_12 
REMARK       I    between atoms: N5_12  and  C6_14 
REMARK    4  A    between atoms: C9_23  and  C10_24 
REMARK    5  A    between atoms: N9_25  and  N10_27 
REMARK       I    between atoms: N10_27  and  C11_29 
REMARK    6  A    between atoms: C11_29  and  C12_31 
REMARK    7  A    between atoms: C14_35  and  N12_36 
ROOT
HETATM    1  C1  UNL     1       1.165 -14.848  40.598  1.00  0.00     0.161 C 
HETATM    2  N1  UNL     1       2.459 -14.503  41.178  1.00  0.00    -0.301 N 
HETATM    3  C2  UNL     1       3.175 -13.469  40.701  1.00  0.00     0.150 A 
HETATM    4  C7  UNL     1       4.383 -13.164  41.258  1.00  0.00     0.053 A 
HETATM    5  C8  UNL     1       4.838 -13.925  42.299  1.00  0.00     0.022 A 
HETATM    6  C9  UNL     1       4.094 -15.010  42.804  1.00  0.00     0.049 A 
HETATM    7  C15 UNL     1       2.892 -15.275  42.214  1.00  0.00     0.260 A 
HETATM    8  O2  UNL     1       2.174 -16.204  42.590  1.00  0.00    -0.267 OA
ENDROOT
BRANCH   3   9
HETATM    9  N2  UNL     1       2.683 -12.681  39.609  1.00  0.00    -0.179 N 
HETATM   10  N3  UNL     1       1.888 -11.628  39.702  1.00  0.00    -0.287 N 
HETATM   11  C3  UNL     1       1.626 -11.133  38.481  1.00  0.00     0.141 A 
ATOM     12  H3  UNL     1       1.527 -11.246  40.577  1.00  0.00     0.188 HD
HETATM   13  C4  UNL     1       2.300 -11.930  37.580  1.00  0.00     0.083 A 
HETATM   14  N8  UNL     1       2.925 -12.854  38.322  1.00  0.00    -0.275 N 
ATOM     15  H8  UNL     1       3.513 -13.595  37.941  1.00  0.00     0.189 HD
BRANCH  13  16
HETATM   16  C5  UNL     1       2.303 -11.763  36.134  1.00  0.00     0.139 C 
HETATM   17  N4  UNL     1       3.402 -11.653  35.474  1.00  0.00    -0.307 N 
ATOM     18  H4  UNL     1       3.389 -11.537  34.461  1.00  0.00     0.186 HD
BRANCH  17  19
HETATM   19  N5  UNL     1       4.609 -11.695  36.163  1.00  0.00    -0.274 N 
HETATM   20  C6  UNL     1       5.351 -10.509  36.400  1.00  0.00     0.200 C 
HETATM   21  N6  UNL     1       6.498 -10.493  36.964  1.00  0.00    -0.372 N 
HETATM   22  N7  UNL     1       4.803  -9.246  35.992  1.00  0.00    -0.062 NA
ATOM     23  H62 UNL     1       6.887 -11.390  37.254  1.00  0.00     0.158 HD
ATOM     24  H61 UNL     1       7.031  -9.640  37.134  1.00  0.00     0.158 HD
ATOM     25  H5  UNL     1       4.966 -12.589  36.500  1.00  0.00     0.189 HD
ENDBRANCH  17  19
ENDBRANCH  13  16
ENDBRANCH   3   9
BRANCH   6  26
HETATM   26  C10 UNL     1       4.630 -15.796  43.924  1.00  0.00     0.124 C 
HETATM   27  N9  UNL     1       5.638 -15.674  44.585  1.00  0.00    -0.308 N 
ATOM     28  H9  UNL     1       5.585 -16.451  45.244  1.00  0.00     0.186 HD
BRANCH  27  29
HETATM   29  N10 UNL     1       6.763 -15.075  44.906  1.00  0.00    -0.266 N 
HETATM   30  C11 UNL     1       7.404 -15.361  46.153  1.00  0.00     0.278 C 
HETATM   31  O1  UNL     1       6.933 -16.172  46.970  1.00  0.00    -0.265 OA
ATOM     32  H10 UNL     1       7.181 -14.403  44.263  1.00  0.00     0.190 HD
BRANCH  30  33
HETATM   33  C12 UNL     1       8.659 -14.660  46.454  1.00  0.00     0.093 A 
HETATM   34  C13 UNL     1       9.927 -14.912  46.003  1.00  0.00     0.115 A 
HETATM   35  N11 UNL     1      10.889 -14.140  46.419  1.00  0.00    -0.345 N 
HETATM   36  C14 UNL     1      10.599 -13.148  47.258  1.00  0.00     0.142 A 
ATOM     37  H11 UNL     1      11.849 -14.292  46.108  1.00  0.00     0.167 HD
HETATM   38  S1  UNL     1       8.917 -13.302  47.472  1.00  0.00    -0.048 SA
BRANCH  36  39
HETATM   39  N12 UNL     1      11.423 -12.271  47.784  1.00  0.00    -0.380 N 
ATOM     40 2H12 UNL     1      12.427 -12.350  47.949  1.00  0.00     0.158 HD
ATOM     41 1H12 UNL     1      11.205 -11.336  48.130  1.00  0.00     0.158 HD
ENDBRANCH  36  39
ENDBRANCH  30  33
ENDBRANCH  27  29
ENDBRANCH   6  26
TORSDOF 7
ENDMDL
MODEL 2
REMARK VINA RESULT: -8.113615352      1.259      2.065
REMARK  7 active torsions:
REMARK  status: ('A' for Active; 'I' for Inactive)
REMARK    1  A    between atoms: C2_3  and  N2_4 
REMARK    2  A    between atoms: C4_8  and  C5_9 
REMARK    3  A    between atoms: N4_10  and  N5_12 
REMARK       I    between atoms: N5_12  and  C6_14 
REMARK    4  A    between atoms: C9_23  and  C10_24 
REMARK    5  A    between atoms: N9_25  and  N10_27 
REMARK       I    between atoms: N10_27  and  C11_29 
REMARK    6  A    between atoms: C11_29  and  C12_31 
REMARK    7  A    between atoms: C14_35  and  N12_36 
ROOT
HETATM    1  C1  UNL     1       1.585 -14.641  40.020  1.00  0.00     0.161 C 
HETATM    2  N1  UNL     1       2.847 -14.344  40.692  1.00  0.00    -0.301 N 
HETATM    3  C2  UNL     1       3.690 -13.419  40.201  1.00  0.00     0.150 A 
HETATM    4  C7  UNL     1       4.864 -13.158  40.845  1.00  0.00     0.053 A 
HETATM    5  C8  UNL     1       5.156 -13.853  41.987  1.00  0.00     0.022 A 
HETATM    6  C9  UNL     1       4.279 -14.824  42.508  1.00  0.00     0.049 A 
HETATM    7  C15 UNL     1       3.117 -15.049  41.827  1.00  0.00     0.260 A 
HETATM    8  O2  UNL     1       2.290 -15.880  42.209  1.00  0.00    -0.267 OA
ENDROOT
BRANCH   3   9
HETATM    9  N2  UNL     1       3.368 -12.700  39.003  1.00  0.00    -0.179 N 
HETATM   10  N3  UNL     1       2.164 -12.293  38.636  1.00  0.00    -0.287 N 
HETATM   11  C3  UNL     1       2.229 -11.650  37.458  1.00  0.00     0.141 A 
ATOM     12  H3  UNL     1       1.309 -12.445  39.171  1.00  0.00     0.188 HD
HETATM   13  C4  UNL     1       3.554 -11.662  37.075  1.00  0.00     0.083 A 
HETATM   14  N8  UNL     1       4.200 -12.312  38.052  1.00  0.00    -0.275 N 
ATOM     15  H8  UNL     1       5.205 -12.486  38.061  1.00  0.00     0.189 HD
BRANCH  13  16
HETATM   16  C5  UNL     1       4.092 -11.075  35.856  1.00  0.00     0.139 C 
HETATM   17  N4  UNL     1       3.603 -11.363  34.702  1.00  0.00    -0.307 N 
ATOM     18  H4  UNL     1       3.989 -10.943  33.857  1.00  0.00     0.186 HD
BRANCH  17  19
HETATM   19  N5  UNL     1       2.539 -12.254  34.623  1.00  0.00    -0.274 N 
HETATM   20  C6  UNL     1       1.886 -12.497  33.388  1.00  0.00     0.200 C 
HETATM   21  N6  UNL     1       0.860 -13.249  33.265  1.00  0.00    -0.372 N 
HETATM   22  N7  UNL     1       2.385 -11.870  32.196  1.00  0.00    -0.062 NA
ATOM     23  H62 UNL     1       0.505 -13.694  34.112  1.00  0.00     0.158 HD
ATOM     24  H61 UNL     1       0.390 -13.423  32.377  1.00  0.00     0.158 HD
ATOM     25  H5  UNL     1       2.225 -12.740  35.464  1.00  0.00     0.189 HD
ENDBRANCH  17  19
ENDBRANCH  13  16
ENDBRANCH   3   9
BRANCH   6  26
HETATM   26  C10 UNL     1       4.641 -15.542  43.737  1.00  0.00     0.124 C 
HETATM   27  N9  UNL     1       5.598 -15.446  44.474  1.00  0.00    -0.308 N 
ATOM     28  H9  UNL     1       5.416 -16.147  45.192  1.00  0.00     0.186 HD
BRANCH  27  29
HETATM   29  N10 UNL     1       6.745 -14.920  44.844  1.00  0.00    -0.266 N 
HETATM   30  C11 UNL     1       7.355 -15.307  46.078  1.00  0.00     0.278 C 
HETATM   31  O1  UNL     1       6.835 -16.142  46.840  1.00  0.00    -0.265 OA
ATOM     32  H10 UNL     1       7.202 -14.232  44.246  1.00  0.00     0.190 HD
BRANCH  30  33
HETATM   33  C12 UNL     1       8.636 -14.684  46.435  1.00  0.00     0.093 A 
HETATM   34  C13 UNL     1       9.897 -14.971  45.987  1.00  0.00     0.115 A 
HETATM   35  N11 UNL     1      10.888 -14.270  46.458  1.00  0.00    -0.345 N 
HETATM   36  C14 UNL     1      10.632 -13.313  47.347  1.00  0.00     0.142 A 
ATOM     37  H11 UNL     1      11.844 -14.450  46.151  1.00  0.00     0.167 HD
HETATM   38  S1  UNL     1       8.941 -13.399  47.530  1.00  0.00    -0.048 SA
BRANCH  36  39
HETATM   39  N12 UNL     1      11.488 -12.507  47.932  1.00  0.00    -0.380 N 
ATOM     40 2H12 UNL     1      12.207 -12.724  48.622  1.00  0.00     0.158 HD
ATOM     41 1H12 UNL     1      11.590 -11.500  47.800  1.00  0.00     0.158 HD
ENDBRANCH  36  39
ENDBRANCH  30  33
ENDBRANCH  27  29
ENDBRANCH   6  26
TORSDOF 7
ENDMDL
MODEL 3
REMARK VINA RESULT: -8.084378844      1.647      3.097
REMARK  7 active torsions:
REMARK  status: ('A' for Active; 'I' for Inactive)
REMARK    1  A    between atoms: C2_3  and  N2_4 
REMARK    2  A    between atoms: C4_8  and  C5_9 
REMARK    3  A    between atoms: N4_10  and  N5_12 
REMARK       I    between atoms: N5_12  and  C6_14 
REMARK    4  A    between atoms: C9_23  and  C10_24 
REMARK    5  A    between atoms: N9_25  and  N10_27 
REMARK       I    between atoms: N10_27  and  C11_29 
REMARK    6  A    between atoms: C11_29  and  C12_31 
REMARK    7  A    between atoms: C14_35  and  N12_36 
ROOT
HETATM    1  C1  UNL     1       1.644 -15.046  40.787  1.00  0.00     0.161 C 
HETATM    2  N1  UNL     1       2.935 -14.675  41.357  1.00  0.00    -0.301 N 
HETATM    3  C2  UNL     1       3.687 -13.712  40.795  1.00  0.00     0.150 A 
HETATM    4  C7  UNL     1       4.891 -13.380  41.345  1.00  0.00     0.053 A 
HETATM    5  C8  UNL     1       5.307 -14.045  42.466  1.00  0.00     0.022 A 
HETATM    6  C9  UNL     1       4.526 -15.055  43.061  1.00  0.00     0.049 A 
HETATM    7  C15 UNL     1       3.329 -15.350  42.474  1.00  0.00     0.260 A 
HETATM    8  O2  UNL     1       2.580 -16.219  42.925  1.00  0.00    -0.267 OA
ENDROOT
BRANCH   3   9
HETATM    9  N2  UNL     1       3.236 -13.025  39.620  1.00  0.00    -0.179 N 
HETATM   10  N3  UNL     1       3.644 -13.246  38.381  1.00  0.00    -0.287 N 
HETATM   11  C3  UNL     1       3.012 -12.422  37.529  1.00  0.00     0.141 A 
ATOM     12  H3  UNL     1       4.339 -13.942  38.112  1.00  0.00     0.188 HD
HETATM   13  C4  UNL     1       2.162 -11.646  38.289  1.00  0.00     0.083 A 
HETATM   14  N8  UNL     1       2.340 -12.056  39.551  1.00  0.00    -0.275 N 
ATOM     15  H8  UNL     1       1.846 -11.671  40.356  1.00  0.00     0.189 HD
BRANCH  13  16
HETATM   16  C5  UNL     1       1.274 -10.610  37.780  1.00  0.00     0.139 C 
HETATM   17  N4  UNL     1       0.002 -10.788  37.719  1.00  0.00    -0.307 N 
ATOM     18  H4  UNL     1      -0.607 -10.053  37.361  1.00  0.00     0.186 HD
BRANCH  17  19
HETATM   19  N5  UNL     1      -0.531 -11.998  38.149  1.00  0.00    -0.274 N 
HETATM   20  C6  UNL     1      -1.794 -12.046  38.794  1.00  0.00     0.200 C 
HETATM   21  N6  UNL     1      -2.304 -13.115  39.273  1.00  0.00    -0.372 N 
HETATM   22  N7  UNL     1      -2.559 -10.837  38.928  1.00  0.00    -0.062 NA
ATOM     23  H62 UNL     1      -1.761 -13.973  39.178  1.00  0.00     0.158 HD
ATOM     24  H61 UNL     1      -3.212 -13.149  39.737  1.00  0.00     0.158 HD
ATOM     25  H5  UNL     1      -0.008 -12.861  38.000  1.00  0.00     0.189 HD
ENDBRANCH  17  19
ENDBRANCH  13  16
ENDBRANCH   3   9
BRANCH   6  26
HETATM   26  C10 UNL     1       5.019 -15.738  44.265  1.00  0.00     0.124 C 
HETATM   27  N9  UNL     1       6.024 -15.584  44.923  1.00  0.00    -0.308 N 
ATOM     28  H9  UNL     1       5.935 -16.284  45.660  1.00  0.00     0.186 HD
BRANCH  27  29
HETATM   29  N10 UNL     1       7.168 -14.996  45.197  1.00  0.00    -0.266 N 
HETATM   30  C11 UNL     1       7.829 -15.241  46.441  1.00  0.00     0.278 C 
HETATM   31  O1  UNL     1       7.358 -16.008  47.301  1.00  0.00    -0.265 OA
ATOM     32  H10 UNL     1       7.586 -14.360  44.517  1.00  0.00     0.190 HD
BRANCH  30  33
HETATM   33  C12 UNL     1       9.103 -14.555  46.687  1.00  0.00     0.093 A 
HETATM   34  C13 UNL     1      10.364 -14.882  46.265  1.00  0.00     0.115 A 
HETATM   35  N11 UNL     1      11.348 -14.106  46.618  1.00  0.00    -0.345 N 
HETATM   36  C14 UNL     1      11.086 -13.038  47.368  1.00  0.00     0.142 A 
ATOM     37  H11 UNL     1      12.303 -14.313  46.326  1.00  0.00     0.167 HD
HETATM   38  S1  UNL     1       9.400 -13.123  47.586  1.00  0.00    -0.048 SA
BRANCH  36  39
HETATM   39  N12 UNL     1      11.936 -12.144  47.821  1.00  0.00    -0.380 N 
ATOM     40 2H12 UNL     1      12.115 -11.858  48.783  1.00  0.00     0.158 HD
ATOM     41 1H12 UNL     1      12.580 -11.564  47.283  1.00  0.00     0.158 HD
ENDBRANCH  36  39
ENDBRANCH  30  33
ENDBRANCH  27  29
ENDBRANCH   6  26
TORSDOF 7
ENDMDL
MODEL 4
REMARK VINA RESULT: -8.016299464      2.617      3.734
REMARK  7 active torsions:
REMARK  status: ('A' for Active; 'I' for Inactive)
REMARK    1  A    between atoms: C2_3  and  N2_4 
REMARK    2  A    between atoms: C4_8  and  C5_9 
REMARK    3  A    between atoms: N4_10  and  N5_12 
REMARK       I    between atoms: N5_12  and  C6_14 
REMARK    4  A    between atoms: C9_23  and  C10_24 
REMARK    5  A    between atoms: N9_25  and  N10_27 
REMARK       I    between atoms: N10_27  and  C11_29 
REMARK    6  A    between atoms: C11_29  and  C12_31 
REMARK    7  A    between atoms: C14_35  and  N12_36 
ROOT
HETATM    1  C1  UNL     1       3.128 -16.226  43.162  1.00  0.00     0.161 C 
HETATM    2  N1  UNL     1       3.941 -15.055  42.849  1.00  0.00    -0.301 N 
HETATM    3  C2  UNL     1       3.505 -14.123  41.983  1.00  0.00     0.150 A 
HETATM    4  C7  UNL     1       4.281 -13.036  41.705  1.00  0.00     0.053 A 
HETATM    5  C8  UNL     1       5.498 -12.921  42.321  1.00  0.00     0.022 A 
HETATM    6  C9  UNL     1       5.962 -13.893  43.229  1.00  0.00     0.049 A 
HETATM    7  C15 UNL     1       5.148 -14.962  43.474  1.00  0.00     0.260 A 
HETATM    8  O2  UNL     1       5.472 -15.861  44.254  1.00  0.00    -0.267 OA
ENDROOT
BRANCH   3   9
HETATM    9  N2  UNL     1       2.228 -14.258  41.346  1.00  0.00    -0.179 N 
HETATM   10  N3  UNL     1       1.516 -15.369  41.251  1.00  0.00    -0.287 N 
HETATM   11  C3  UNL     1       0.370 -15.133  40.590  1.00  0.00     0.141 A 
ATOM     12  H3  UNL     1       1.796 -16.275  41.627  1.00  0.00     0.188 HD
HETATM   13  C4  UNL     1       0.376 -13.794  40.257  1.00  0.00     0.083 A 
HETATM   14  N8  UNL     1       1.528 -13.313  40.742  1.00  0.00    -0.275 N 
ATOM     15  H8  UNL     1       1.827 -12.342  40.657  1.00  0.00     0.189 HD
BRANCH  13  16
HETATM   16  C5  UNL     1      -0.674 -13.095  39.531  1.00  0.00     0.139 C 
HETATM   17  N4  UNL     1      -0.518 -12.739  38.305  1.00  0.00    -0.307 N 
ATOM     18  H4  UNL     1      -1.263 -12.250  37.809  1.00  0.00     0.186 HD
BRANCH  17  19
HETATM   19  N5  UNL     1       0.681 -13.031  37.665  1.00  0.00    -0.274 N 
HETATM   20  C6  UNL     1       1.536 -11.992  37.217  1.00  0.00     0.200 C 
HETATM   21  N6  UNL     1       2.614 -12.195  36.561  1.00  0.00    -0.372 N 
HETATM   22  N7  UNL     1       1.189 -10.627  37.501  1.00  0.00    -0.062 NA
ATOM     23  H62 UNL     1       2.860 -13.165  36.359  1.00  0.00     0.158 HD
ATOM     24  H61 UNL     1       3.228 -11.448  36.239  1.00  0.00     0.158 HD
ATOM     25  H5  UNL     1       0.949 -14.004  37.517  1.00  0.00     0.189 HD
ENDBRANCH  17  19
ENDBRANCH  13  16
ENDBRANCH   3   9
BRANCH   6  26
HETATM   26  C10 UNL     1       7.277 -13.723  43.863  1.00  0.00     0.124 C 
HETATM   27  N9  UNL     1       7.803 -14.294  44.792  1.00  0.00    -0.308 N 
ATOM     28  H9  UNL     1       8.710 -13.834  44.870  1.00  0.00     0.186 HD
BRANCH  27  29
HETATM   29  N10 UNL     1       7.830 -15.190  45.754  1.00  0.00    -0.266 N 
HETATM   30  C11 UNL     1       8.822 -15.120  46.781  1.00  0.00     0.278 C 
HETATM   31  O1  UNL     1       9.686 -14.224  46.807  1.00  0.00    -0.265 OA
ATOM     32  H10 UNL     1       7.139 -15.940  45.767  1.00  0.00     0.190 HD
BRANCH  30  33
HETATM   33  C12 UNL     1       8.800 -16.149  47.828  1.00  0.00     0.093 A 
HETATM   34  C13 UNL     1       7.812 -16.457  48.724  1.00  0.00     0.115 A 
HETATM   35  N11 UNL     1       8.030 -17.426  49.567  1.00  0.00    -0.345 N 
HETATM   36  C14 UNL     1       9.195 -18.068  49.518  1.00  0.00     0.142 A 
ATOM     37  H11 UNL     1       7.321 -17.689  50.251  1.00  0.00     0.167 HD
HETATM   38  S1  UNL     1      10.015 -17.287  48.247  1.00  0.00    -0.048 SA
BRANCH  36  39
HETATM   39  N12 UNL     1       9.599 -19.062  50.276  1.00  0.00    -0.380 N 
ATOM     40 2H12 UNL     1       9.193 -19.991  50.389  1.00  0.00     0.158 HD
ATOM     41 1H12 UNL     1      10.407 -19.086  50.899  1.00  0.00     0.158 HD
ENDBRANCH  36  39
ENDBRANCH  30  33
ENDBRANCH  27  29
ENDBRANCH   6  26
TORSDOF 7
ENDMDL
MODEL 5
REMARK VINA RESULT: -7.586599276      6.805     12.321
REMARK  7 active torsions:
REMARK  status: ('A' for Active; 'I' for Inactive)
REMARK    1  A    between atoms: C2_3  and  N2_4 
REMARK    2  A    between atoms: C4_8  and  C5_9 
REMARK    3  A    between atoms: N4_10  and  N5_12 
REMARK       I    between atoms: N5_12  and  C6_14 
REMARK    4  A    between atoms: C9_23  and  C10_24 
REMARK    5  A    between atoms: N9_25  and  N10_27 
REMARK       I    between atoms: N10_27  and  C11_29 
REMARK    6  A    between atoms: C11_29  and  C12_31 
REMARK    7  A    between atoms: C14_35  and  N12_36 
ROOT
HETATM    1  C1  UNL     1       2.335 -11.900  38.431  1.00  0.00     0.161 C 
HETATM    2  N1  UNL     1       0.971 -12.256  38.809  1.00  0.00    -0.301 N 
HETATM    3  C2  UNL     1       0.733 -13.277  39.651  1.00  0.00     0.150 A 
HETATM    4  C7  UNL     1      -0.551 -13.593  39.991  1.00  0.00     0.053 A 
HETATM    5  C8  UNL     1      -1.573 -12.855  39.460  1.00  0.00     0.022 A 
HETATM    6  C9  UNL     1      -1.331 -11.784  38.577  1.00  0.00     0.049 A 
HETATM    7  C15 UNL     1      -0.031 -11.507  38.268  1.00  0.00     0.260 A 
HETATM    8  O2  UNL     1       0.275 -10.589  37.504  1.00  0.00    -0.267 OA
ENDROOT
BRANCH   3   9
HETATM    9  N2  UNL     1       1.815 -14.041  40.199  1.00  0.00    -0.179 N 
HETATM   10  N3  UNL     1       3.000 -14.227  39.641  1.00  0.00    -0.287 N 
HETATM   11  C3  UNL     1       3.770 -14.995  40.429  1.00  0.00     0.141 A 
ATOM     12  H3  UNL     1       3.288 -13.843  38.741  1.00  0.00     0.188 HD
HETATM   13  C4  UNL     1       3.014 -15.301  41.542  1.00  0.00     0.083 A 
HETATM   14  N8  UNL     1       1.836 -14.694  41.347  1.00  0.00    -0.275 N 
ATOM     15  H8  UNL     1       1.055 -14.731  42.002  1.00  0.00     0.189 HD
BRANCH  13  16
HETATM   16  C5  UNL     1       3.449 -16.115  42.668  1.00  0.00     0.139 C 
HETATM   17  N4  UNL     1       4.482 -15.796  43.365  1.00  0.00    -0.307 N 
ATOM     18  H4  UNL     1       4.774 -16.376  44.152  1.00  0.00     0.186 HD
BRANCH  17  19
HETATM   19  N5  UNL     1       5.194 -14.650  43.033  1.00  0.00    -0.274 N 
HETATM   20  C6  UNL     1       6.300 -14.230  43.815  1.00  0.00     0.200 C 
HETATM   21  N6  UNL     1       6.949 -13.150  43.601  1.00  0.00    -0.372 N 
HETATM   22  N7  UNL     1       6.731 -15.047  44.914  1.00  0.00    -0.062 NA
ATOM     23  H62 UNL     1       6.642 -12.569  42.820  1.00  0.00     0.158 HD
ATOM     24  H61 UNL     1       7.744 -12.848  44.164  1.00  0.00     0.158 HD
ATOM     25  H5  UNL     1       4.917 -14.104  42.216  1.00  0.00     0.189 HD
ENDBRANCH  17  19
ENDBRANCH  13  16
ENDBRANCH   3   9
BRANCH   6  26
HETATM   26  C10 UNL     1      -2.465 -11.023  38.035  1.00  0.00     0.124 C 
HETATM   27  N9  UNL     1      -3.449 -11.372  37.421  1.00  0.00    -0.308 N 
ATOM     28  H9  UNL     1      -3.949 -10.499  37.257  1.00  0.00     0.186 HD
BRANCH  27  29
HETATM   29  N10 UNL     1      -4.218 -12.276  36.853  1.00  0.00    -0.266 N 
HETATM   30  C11 UNL     1      -5.321 -11.877  36.034  1.00  0.00     0.278 C 
HETATM   31  O1  UNL     1      -5.594 -10.680  35.829  1.00  0.00    -0.265 OA
ATOM     32  H10 UNL     1      -4.026 -13.267  36.997  1.00  0.00     0.190 HD
BRANCH  30  33
HETATM   33  C12 UNL     1      -6.141 -12.933  35.428  1.00  0.00     0.093 A 
HETATM   34  C13 UNL     1      -5.967 -14.290  35.448  1.00  0.00     0.115 A 
HETATM   35  N11 UNL     1      -6.841 -15.030  34.828  1.00  0.00    -0.345 N 
HETATM   36  C14 UNL     1      -7.858 -14.436  34.207  1.00  0.00     0.142 A 
ATOM     37  H11 UNL     1      -6.749 -16.045  34.819  1.00  0.00     0.167 HD
HETATM   38  S1  UNL     1      -7.579 -12.782  34.502  1.00  0.00    -0.048 SA
BRANCH  36  39
HETATM   39  N12 UNL     1      -8.833 -15.003  33.533  1.00  0.00    -0.380 N 
ATOM     40 2H12 UNL     1      -9.822 -15.073  33.770  1.00  0.00     0.158 HD
ATOM     41 1H12 UNL     1      -8.775 -15.485  32.636  1.00  0.00     0.158 HD
ENDBRANCH  36  39
ENDBRANCH  30  33
ENDBRANCH  27  29
ENDBRANCH   6  26
TORSDOF 7
ENDMDL
