MODEL 1
REMARK VINA RESULT: -9.826794710      0.000      0.000
REMARK  8 active torsions:
REMARK  status: ('A' for Active; 'I' for Inactive)
REMARK    1  A    between atoms: N3_10  and  C5_11 
REMARK    2  A    between atoms: C5_11  and  C6_12 
REMARK    3  A    between atoms: C6_12  and  C7_13 
REMARK    4  A    between atoms: C7_13  and  N4_15 
REMARK    5  A    between atoms: N4_15  and  C9_17 
REMARK    6  A    between atoms: C10_19  and  O3_20 
REMARK    7  A    between atoms: C12_23  and  C13_24 
REMARK       I    between atoms: C13_24  and  N5_26 
REMARK    8  A    between atoms: N5_26  and  C14_28 
ROOT
HETATM    1  N4  UNL     1       1.967 -11.527  38.004  1.00  0.00    -0.365 N 
ATOM      2  H4  UNL     1       1.174 -10.950  37.724  1.00  0.00     0.162 HD
ENDROOT
BRANCH   1   3
HETATM    3  C7  UNL     1       1.756 -12.559  38.991  1.00  0.00     0.081 C 
HETATM    4  C8  UNL     1       2.028 -13.884  38.291  1.00  0.00     0.032 C 
BRANCH   3   5
HETATM    5  C6  UNL     1       2.464 -12.417  40.269  1.00  0.00     0.046 C 
BRANCH   5   6
HETATM    6  C5  UNL     1       3.806 -13.001  40.447  1.00  0.00     0.153 C 
BRANCH   6   7
HETATM    7  N3  UNL     1       3.789 -14.094  41.449  1.00  0.00    -0.272 N 
HETATM    8  N2  UNL     1       2.927 -15.077  41.579  1.00  0.00    -0.261 N 
HETATM    9  C4  UNL     1       3.235 -15.872  42.598  1.00  0.00     0.290 A 
ATOM     10  H2  UNL     1       2.119 -15.214  40.970  1.00  0.00     0.190 HD
HETATM   11  C3  UNL     1       4.392 -15.352  43.165  1.00  0.00     0.149 A 
HETATM   12  O1  UNL     1       2.652 -16.904  43.027  1.00  0.00    -0.264 OA
HETATM   13  N1  UNL     1       5.153 -15.727  44.208  1.00  0.00    -0.348 N 
HETATM   14  C16 UNL     1       4.710 -14.241  42.422  1.00  0.00     0.158 A 
HETATM   15  C2  UNL     1       6.255 -15.033  44.564  1.00  0.00     0.074 A 
ATOM     16  H1  UNL     1       4.893 -16.556  44.742  1.00  0.00     0.166 HD
HETATM   17  C1  UNL     1       7.110 -15.428  45.709  1.00  0.00     0.074 C 
HETATM   18  C17 UNL     1       6.573 -13.919  43.818  1.00  0.00     0.269 A 
HETATM   19  N9  UNL     1       5.813 -13.559  42.791  1.00  0.00    -0.305 N 
HETATM   20  O5  UNL     1       7.601 -13.251  44.130  1.00  0.00    -0.266 OA
ATOM     21  H9  UNL     1       6.075 -12.730  42.258  1.00  0.00     0.171 HD
ENDBRANCH   6   7
ENDBRANCH   5   6
ENDBRANCH   3   5
ENDBRANCH   1   3
BRANCH   1  22
HETATM   22  C9  UNL     1       3.237 -11.281  37.404  1.00  0.00     0.162 A 
HETATM   23  O2  UNL     1       4.333 -10.870  38.025  1.00  0.00    -0.270 OA
HETATM   24  C10 UNL     1       5.332 -10.740  37.189  1.00  0.00     0.186 A 
HETATM   25  C11 UNL     1       4.873 -11.084  35.936  1.00  0.00     0.085 A 
HETATM   26  C12 UNL     1       3.528 -11.430  36.081  1.00  0.00     0.088 A 
BRANCH  24  27
HETATM   27  O3  UNL     1       6.636 -10.336  37.440  1.00  0.00    -0.341 OA
ATOM     28  H3  UNL     1       7.158 -10.455  38.224  1.00  0.00     0.220 HD
ENDBRANCH  24  27
BRANCH  26  29
HETATM   29  C13 UNL     1       2.687 -11.859  34.942  1.00  0.00     0.262 C 
HETATM   30  O4  UNL     1       1.563 -12.375  35.131  1.00  0.00    -0.267 OA
HETATM   31  N5  UNL     1       3.129 -11.696  33.616  1.00  0.00    -0.293 N 
ATOM     32  H5  UNL     1       4.045 -11.279  33.451  1.00  0.00     0.172 HD
BRANCH  31  33
HETATM   33  C14 UNL     1       2.353 -12.089  32.510  1.00  0.00     0.195 C 
HETATM   34  N6  UNL     1       2.728 -12.975  31.593  1.00  0.00    -0.346 N 
HETATM   35  C15 UNL     1       1.646 -13.087  30.644  1.00  0.00     0.259 C 
ATOM     36  H6  UNL     1       3.614 -13.480  31.565  1.00  0.00     0.163 HD
HETATM   37  N7  UNL     1       0.484 -12.728  31.473  1.00  0.00    -0.119 NA
HETATM   38  N8  UNL     1       1.067 -11.626  32.160  1.00  0.00    -0.273 N 
ATOM     39  H8  UNL     1       0.652 -10.714  32.354  1.00  0.00     0.185 HD
ENDBRANCH  31  33
ENDBRANCH  26  29
ENDBRANCH   1  22
TORSDOF 8
ENDMDL
MODEL 2
REMARK VINA RESULT: -9.696637924      7.227      9.097
REMARK  8 active torsions:
REMARK  status: ('A' for Active; 'I' for Inactive)
REMARK    1  A    between atoms: N3_10  and  C5_11 
REMARK    2  A    between atoms: C5_11  and  C6_12 
REMARK    3  A    between atoms: C6_12  and  C7_13 
REMARK    4  A    between atoms: C7_13  and  N4_15 
REMARK    5  A    between atoms: N4_15  and  C9_17 
REMARK    6  A    between atoms: C10_19  and  O3_20 
REMARK    7  A    between atoms: C12_23  and  C13_24 
REMARK       I    between atoms: C13_24  and  N5_26 
REMARK    8  A    between atoms: N5_26  and  C14_28 
ROOT
HETATM    1  N4  UNL     1      -4.798 -12.209  36.028  1.00  0.00    -0.365 N 
ATOM      2  H4  UNL     1      -4.174 -12.846  35.533  1.00  0.00     0.162 HD
ENDROOT
BRANCH   1   3
HETATM    3  C7  UNL     1      -4.558 -11.958  37.430  1.00  0.00     0.081 C 
HETATM    4  C8  UNL     1      -5.098 -13.169  38.180  1.00  0.00     0.032 C 
BRANCH   3   5
HETATM    5  C6  UNL     1      -3.192 -11.590  37.820  1.00  0.00     0.046 C 
BRANCH   5   6
HETATM    6  C5  UNL     1      -2.433 -12.433  38.760  1.00  0.00     0.153 C 
BRANCH   6   7
HETATM    7  N3  UNL     1      -0.979 -12.149  38.685  1.00  0.00    -0.272 N 
HETATM    8  N2  UNL     1      -0.358 -11.215  38.002  1.00  0.00    -0.261 N 
HETATM    9  C4  UNL     1       0.958 -11.265  38.179  1.00  0.00     0.290 A 
ATOM     10  H2  UNL     1      -0.829 -10.532  37.407  1.00  0.00     0.190 HD
HETATM   11  C3  UNL     1       1.196 -12.322  39.050  1.00  0.00     0.149 A 
HETATM   12  O1  UNL     1       1.870 -10.542  37.696  1.00  0.00    -0.264 OA
HETATM   13  N1  UNL     1       2.317 -12.841  39.581  1.00  0.00    -0.348 N 
HETATM   14  C16 UNL     1      -0.037 -12.852  39.345  1.00  0.00     0.158 A 
HETATM   15  C2  UNL     1       2.277 -13.897  40.421  1.00  0.00     0.074 A 
ATOM     16  H1  UNL     1       3.218 -12.428  39.344  1.00  0.00     0.166 HD
HETATM   17  C1  UNL     1       3.499 -14.485  41.020  1.00  0.00     0.074 C 
HETATM   18  C17 UNL     1       1.040 -14.428  40.716  1.00  0.00     0.269 A 
HETATM   19  N9  UNL     1      -0.059 -13.907  40.186  1.00  0.00    -0.305 N 
HETATM   20  O5  UNL     1       0.975 -15.418  41.502  1.00  0.00    -0.266 OA
ATOM     21  H9  UNL     1      -0.960 -14.322  40.424  1.00  0.00     0.171 HD
ENDBRANCH   6   7
ENDBRANCH   5   6
ENDBRANCH   3   5
ENDBRANCH   1   3
BRANCH   1  22
HETATM   22  C9  UNL     1      -5.869 -11.603  35.307  1.00  0.00     0.162 A 
HETATM   23  O2  UNL     1      -6.018 -10.310  35.062  1.00  0.00    -0.270 OA
HETATM   24  C10 UNL     1      -7.108 -10.080  34.374  1.00  0.00     0.186 A 
HETATM   25  C11 UNL     1      -7.721 -11.293  34.151  1.00  0.00     0.085 A 
HETATM   26  C12 UNL     1      -6.921 -12.267  34.752  1.00  0.00     0.088 A 
BRANCH  24  27
HETATM   27  O3  UNL     1      -7.617  -8.871  33.920  1.00  0.00    -0.341 OA
ATOM     28  H3  UNL     1      -7.173  -8.171  33.458  1.00  0.00     0.220 HD
ENDBRANCH  24  27
BRANCH  26  29
HETATM   29  C13 UNL     1      -7.259 -13.707  34.723  1.00  0.00     0.262 C 
HETATM   30  O4  UNL     1      -6.631 -14.529  35.427  1.00  0.00    -0.267 OA
HETATM   31  N5  UNL     1      -8.296 -14.189  33.905  1.00  0.00    -0.293 N 
ATOM     32  H5  UNL     1      -8.813 -13.528  33.324  1.00  0.00     0.172 HD
BRANCH  31  33
HETATM   33  C14 UNL     1      -8.646 -15.551  33.857  1.00  0.00     0.195 C 
HETATM   34  N6  UNL     1      -8.648 -16.299  32.758  1.00  0.00    -0.346 N 
HETATM   35  C15 UNL     1      -9.063 -17.626  33.148  1.00  0.00     0.259 C 
ATOM     36  H6  UNL     1      -8.402 -15.992  31.816  1.00  0.00     0.163 HD
HETATM   37  N7  UNL     1      -8.635 -17.670  34.556  1.00  0.00    -0.119 NA
HETATM   38  N8  UNL     1      -9.063 -16.366  34.932  1.00  0.00    -0.273 N 
ATOM     39  H8  UNL     1      -9.555 -16.085  35.780  1.00  0.00     0.185 HD
ENDBRANCH  31  33
ENDBRANCH  26  29
ENDBRANCH   1  22
TORSDOF 8
ENDMDL
MODEL 3
REMARK VINA RESULT: -9.173893706      5.042      9.787
REMARK  8 active torsions:
REMARK  status: ('A' for Active; 'I' for Inactive)
REMARK    1  A    between atoms: N3_10  and  C5_11 
REMARK    2  A    between atoms: C5_11  and  C6_12 
REMARK    3  A    between atoms: C6_12  and  C7_13 
REMARK    4  A    between atoms: C7_13  and  N4_15 
REMARK    5  A    between atoms: N4_15  and  C9_17 
REMARK    6  A    between atoms: C10_19  and  O3_20 
REMARK    7  A    between atoms: C12_23  and  C13_24 
REMARK       I    between atoms: C13_24  and  N5_26 
REMARK    8  A    between atoms: N5_26  and  C14_28 
ROOT
HETATM    1  N4  UNL     1       1.104 -10.998  38.543  1.00  0.00    -0.365 N 
ATOM      2  H4  UNL     1       0.955 -10.397  39.354  1.00  0.00     0.162 HD
ENDROOT
BRANCH   1   3
HETATM    3  C7  UNL     1      -0.044 -11.601  37.909  1.00  0.00     0.081 C 
HETATM    4  C8  UNL     1       0.449 -12.891  37.266  1.00  0.00     0.032 C 
BRANCH   3   5
HETATM    5  C6  UNL     1      -1.245 -11.781  38.733  1.00  0.00     0.046 C 
BRANCH   5   6
HETATM    6  C5  UNL     1      -2.490 -11.062  38.403  1.00  0.00     0.153 C 
BRANCH   6   7
HETATM    7  N3  UNL     1      -3.575 -12.005  38.039  1.00  0.00    -0.272 N 
HETATM    8  N2  UNL     1      -3.856 -13.177  38.562  1.00  0.00    -0.261 N 
HETATM    9  C4  UNL     1      -4.908 -13.740  37.976  1.00  0.00     0.290 A 
ATOM     10  H2  UNL     1      -3.331 -13.603  39.326  1.00  0.00     0.190 HD
HETATM   11  C3  UNL     1      -5.334 -12.851  36.997  1.00  0.00     0.149 A 
HETATM   12  O1  UNL     1      -5.467 -14.846  38.202  1.00  0.00    -0.264 OA
HETATM   13  N1  UNL     1      -6.336 -12.880  36.101  1.00  0.00    -0.348 N 
HETATM   14  C16 UNL     1      -4.478 -11.778  37.064  1.00  0.00     0.158 A 
HETATM   15  C2  UNL     1      -6.541 -11.864  35.237  1.00  0.00     0.074 A 
ATOM     16  H1  UNL     1      -6.955 -13.690  36.073  1.00  0.00     0.166 HD
HETATM   17  C1  UNL     1      -7.640 -11.874  34.242  1.00  0.00     0.074 C 
HETATM   18  C17 UNL     1      -5.682 -10.788  35.305  1.00  0.00     0.269 A 
HETATM   19  N9  UNL     1      -4.697 -10.770  36.194  1.00  0.00    -0.305 N 
HETATM   20  O5  UNL     1      -5.853  -9.822  34.507  1.00  0.00    -0.266 OA
ATOM     21  H9  UNL     1      -4.078  -9.960  36.220  1.00  0.00     0.171 HD
ENDBRANCH   6   7
ENDBRANCH   5   6
ENDBRANCH   3   5
ENDBRANCH   1   3
BRANCH   1  22
HETATM   22  C9  UNL     1       2.438 -11.206  38.084  1.00  0.00     0.162 A 
HETATM   23  O2  UNL     1       2.990 -10.670  37.005  1.00  0.00    -0.270 OA
HETATM   24  C10 UNL     1       4.231 -11.063  36.862  1.00  0.00     0.186 A 
HETATM   25  C11 UNL     1       4.520 -11.913  37.907  1.00  0.00     0.085 A 
HETATM   26  C12 UNL     1       3.366 -12.001  38.688  1.00  0.00     0.088 A 
BRANCH  24  27
HETATM   27  O3  UNL     1       5.144 -10.731  35.871  1.00  0.00    -0.341 OA
ATOM     28  H3  UNL     1       6.012 -11.083  35.715  1.00  0.00     0.220 HD
ENDBRANCH  24  27
BRANCH  26  29
HETATM   29  C13 UNL     1       3.291 -12.831  39.909  1.00  0.00     0.262 C 
HETATM   30  O4  UNL     1       2.185 -13.173  40.386  1.00  0.00    -0.267 OA
HETATM   31  N5  UNL     1       4.459 -13.257  40.567  1.00  0.00    -0.293 N 
ATOM     32  H5  UNL     1       5.365 -12.981  40.188  1.00  0.00     0.172 HD
BRANCH  31  33
HETATM   33  C14 UNL     1       4.422 -14.050  41.728  1.00  0.00     0.195 C 
HETATM   34  N6  UNL     1       3.765 -15.200  41.844  1.00  0.00    -0.346 N 
HETATM   35  C15 UNL     1       3.990 -15.684  43.186  1.00  0.00     0.259 C 
ATOM     36  H6  UNL     1       3.206 -15.654  41.121  1.00  0.00     0.163 HD
HETATM   37  N7  UNL     1       5.293 -15.079  43.506  1.00  0.00    -0.119 NA
HETATM   38  N8  UNL     1       5.046 -13.785  42.966  1.00  0.00    -0.273 N 
ATOM     39  H8  UNL     1       5.269 -12.878  43.376  1.00  0.00     0.185 HD
ENDBRANCH  31  33
ENDBRANCH  26  29
ENDBRANCH   1  22
TORSDOF 8
ENDMDL
MODEL 4
REMARK VINA RESULT: -8.984935181      1.585      1.977
REMARK  8 active torsions:
REMARK  status: ('A' for Active; 'I' for Inactive)
REMARK    1  A    between atoms: N3_10  and  C5_11 
REMARK    2  A    between atoms: C5_11  and  C6_12 
REMARK    3  A    between atoms: C6_12  and  C7_13 
REMARK    4  A    between atoms: C7_13  and  N4_15 
REMARK    5  A    between atoms: N4_15  and  C9_17 
REMARK    6  A    between atoms: C10_19  and  O3_20 
REMARK    7  A    between atoms: C12_23  and  C13_24 
REMARK       I    between atoms: C13_24  and  N5_26 
REMARK    8  A    between atoms: N5_26  and  C14_28 
ROOT
HETATM    1  N4  UNL     1       2.925 -12.415  37.481  1.00  0.00    -0.365 N 
ATOM      2  H4  UNL     1       3.049 -13.401  37.712  1.00  0.00     0.162 HD
ENDROOT
BRANCH   1   3
HETATM    3  C7  UNL     1       1.598 -11.851  37.555  1.00  0.00     0.081 C 
HETATM    4  C8  UNL     1       0.646 -12.928  37.052  1.00  0.00     0.032 C 
BRANCH   3   5
HETATM    5  C6  UNL     1       1.192 -11.263  38.837  1.00  0.00     0.046 C 
BRANCH   5   6
HETATM    6  C5  UNL     1       2.059 -11.388  40.022  1.00  0.00     0.153 C 
BRANCH   6   7
HETATM    7  N3  UNL     1       1.963 -12.743  40.618  1.00  0.00    -0.272 N 
HETATM    8  N2  UNL     1       0.995 -13.624  40.505  1.00  0.00    -0.261 N 
HETATM    9  C4  UNL     1       1.259 -14.737  41.184  1.00  0.00     0.290 A 
ATOM     10  H2  UNL     1       0.145 -13.473  39.962  1.00  0.00     0.190 HD
HETATM   11  C3  UNL     1       2.499 -14.548  41.779  1.00  0.00     0.149 A 
HETATM   12  O1  UNL     1       0.577 -15.789  41.312  1.00  0.00    -0.264 OA
HETATM   13  N1  UNL     1       3.265 -15.317  42.573  1.00  0.00    -0.348 N 
HETATM   14  C16 UNL     1       2.910 -13.291  41.405  1.00  0.00     0.158 A 
HETATM   15  C2  UNL     1       4.461 -14.891  43.030  1.00  0.00     0.074 A 
ATOM     16  H1  UNL     1       2.935 -16.246  42.835  1.00  0.00     0.166 HD
HETATM   17  C1  UNL     1       5.323 -15.722  43.904  1.00  0.00     0.074 C 
HETATM   18  C17 UNL     1       4.872 -13.630  42.654  1.00  0.00     0.269 A 
HETATM   19  N9  UNL     1       4.108 -12.880  41.871  1.00  0.00    -0.305 N 
HETATM   20  O5  UNL     1       5.990 -13.206  43.068  1.00  0.00    -0.266 OA
ATOM     21  H9  UNL     1       4.440 -11.952  41.610  1.00  0.00     0.171 HD
ENDBRANCH   6   7
ENDBRANCH   5   6
ENDBRANCH   3   5
ENDBRANCH   1   3
BRANCH   1  22
HETATM   22  C9  UNL     1       4.068 -11.654  37.098  1.00  0.00     0.162 A 
HETATM   23  O2  UNL     1       5.029 -11.222  37.902  1.00  0.00    -0.270 OA
HETATM   24  C10 UNL     1       5.937 -10.551  37.239  1.00  0.00     0.186 A 
HETATM   25  C11 UNL     1       5.555 -10.533  35.915  1.00  0.00     0.085 A 
HETATM   26  C12 UNL     1       4.355 -11.242  35.831  1.00  0.00     0.088 A 
BRANCH  24  27
HETATM   27  O3  UNL     1       7.092  -9.941  37.710  1.00  0.00    -0.341 OA
ATOM     28  H3  UNL     1       7.546  -9.179  37.372  1.00  0.00     0.220 HD
ENDBRANCH  24  27
BRANCH  26  29
HETATM   29  C13 UNL     1       3.632 -11.439  34.556  1.00  0.00     0.262 C 
HETATM   30  O4  UNL     1       3.684 -10.579  33.648  1.00  0.00    -0.267 OA
HETATM   31  N5  UNL     1       2.867 -12.597  34.331  1.00  0.00    -0.293 N 
ATOM     32  H5  UNL     1       2.815 -13.304  35.066  1.00  0.00     0.172 HD
BRANCH  31  33
HETATM   33  C14 UNL     1       2.170 -12.818  33.129  1.00  0.00     0.195 C 
HETATM   34  N6  UNL     1       0.879 -13.120  33.042  1.00  0.00    -0.346 N 
HETATM   35  C15 UNL     1       0.569 -13.258  31.638  1.00  0.00     0.259 C 
ATOM     36  H6  UNL     1       0.230 -13.234  33.820  1.00  0.00     0.163 HD
HETATM   37  N7  UNL     1       1.578 -12.380  31.022  1.00  0.00    -0.119 NA
HETATM   38  N8  UNL     1       2.691 -12.774  31.818  1.00  0.00    -0.273 N 
ATOM     39  H8  UNL     1       3.643 -12.976  31.512  1.00  0.00     0.185 HD
ENDBRANCH  31  33
ENDBRANCH  26  29
ENDBRANCH   1  22
TORSDOF 8
ENDMDL
MODEL 5
REMARK VINA RESULT: -8.974845364      1.893      2.850
REMARK  8 active torsions:
REMARK  status: ('A' for Active; 'I' for Inactive)
REMARK    1  A    between atoms: N3_10  and  C5_11 
REMARK    2  A    between atoms: C5_11  and  C6_12 
REMARK    3  A    between atoms: C6_12  and  C7_13 
REMARK    4  A    between atoms: C7_13  and  N4_15 
REMARK    5  A    between atoms: N4_15  and  C9_17 
REMARK    6  A    between atoms: C10_19  and  O3_20 
REMARK    7  A    between atoms: C12_23  and  C13_24 
REMARK       I    between atoms: C13_24  and  N5_26 
REMARK    8  A    between atoms: N5_26  and  C14_28 
ROOT
HETATM    1  N4  UNL     1       2.652 -14.359  38.145  1.00  0.00    -0.365 N 
ATOM      2  H4  UNL     1       2.678 -15.323  37.813  1.00  0.00     0.162 HD
ENDROOT
BRANCH   1   3
HETATM    3  C7  UNL     1       3.884 -13.742  38.576  1.00  0.00     0.081 C 
HETATM    4  C8  UNL     1       4.767 -13.639  37.339  1.00  0.00     0.032 C 
BRANCH   3   5
HETATM    5  C6  UNL     1       3.777 -12.485  39.325  1.00  0.00     0.046 C 
BRANCH   5   6
HETATM    6  C5  UNL     1       2.981 -12.421  40.564  1.00  0.00     0.153 C 
BRANCH   6   7
HETATM    7  N3  UNL     1       3.148 -13.651  41.375  1.00  0.00    -0.272 N 
HETATM    8  N2  UNL     1       2.380 -14.716  41.423  1.00  0.00    -0.261 N 
HETATM    9  C4  UNL     1       2.849 -15.626  42.270  1.00  0.00     0.290 A 
ATOM     10  H2  UNL     1       1.526 -14.830  40.875  1.00  0.00     0.190 HD
HETATM   11  C3  UNL     1       4.015 -15.096  42.808  1.00  0.00     0.149 A 
HETATM   12  O1  UNL     1       2.391 -16.759  42.579  1.00  0.00    -0.264 OA
HETATM   13  N1  UNL     1       4.905 -15.556  43.705  1.00  0.00    -0.348 N 
HETATM   14  C16 UNL     1       4.172 -13.861  42.226  1.00  0.00     0.158 A 
HETATM   15  C2  UNL     1       5.982 -14.828  44.068  1.00  0.00     0.074 A 
ATOM     16  H1  UNL     1       4.764 -16.476  44.121  1.00  0.00     0.166 HD
HETATM   17  C1  UNL     1       6.977 -15.314  45.054  1.00  0.00     0.074 C 
HETATM   18  C17 UNL     1       6.138 -13.589  43.485  1.00  0.00     0.269 A 
HETATM   19  N9  UNL     1       5.253 -13.146  42.601  1.00  0.00    -0.305 N 
HETATM   20  O5  UNL     1       7.140 -12.887  43.807  1.00  0.00    -0.266 OA
ATOM     21  H9  UNL     1       5.396 -12.226  42.186  1.00  0.00     0.171 HD
ENDBRANCH   6   7
ENDBRANCH   5   6
ENDBRANCH   3   5
ENDBRANCH   1   3
BRANCH   1  22
HETATM   22  C9  UNL     1       1.400 -13.677  38.164  1.00  0.00     0.162 A 
HETATM   23  O2  UNL     1       0.496 -13.719  39.133  1.00  0.00    -0.270 OA
HETATM   24  C10 UNL     1      -0.545 -12.981  38.843  1.00  0.00     0.186 A 
HETATM   25  C11 UNL     1      -0.322 -12.415  37.607  1.00  0.00     0.085 A 
HETATM   26  C12 UNL     1       0.927 -12.865  37.176  1.00  0.00     0.088 A 
BRANCH  24  27
HETATM   27  O3  UNL     1      -1.695 -12.761  39.588  1.00  0.00    -0.341 OA
ATOM     28  H3  UNL     1      -2.570 -13.104  39.453  1.00  0.00     0.220 HD
ENDBRANCH  24  27
BRANCH  26  29
HETATM   29  C13 UNL     1       1.515 -12.468  35.878  1.00  0.00     0.262 C 
HETATM   30  O4  UNL     1       2.496 -11.693  35.827  1.00  0.00    -0.267 OA
HETATM   31  N5  UNL     1       0.987 -12.951  34.668  1.00  0.00    -0.293 N 
ATOM     32  H5  UNL     1       0.185 -13.582  34.698  1.00  0.00     0.172 HD
BRANCH  31  33
HETATM   33  C14 UNL     1       1.525 -12.597  33.417  1.00  0.00     0.195 C 
HETATM   34  N6  UNL     1       1.567 -13.392  32.353  1.00  0.00    -0.346 N 
HETATM   35  C15 UNL     1       2.191 -12.644  31.287  1.00  0.00     0.259 C 
ATOM     36  H6  UNL     1       1.223 -14.352  32.300  1.00  0.00     0.163 HD
HETATM   37  N7  UNL     1       1.860 -11.260  31.662  1.00  0.00    -0.119 NA
HETATM   38  N8  UNL     1       2.118 -11.367  33.058  1.00  0.00    -0.273 N 
ATOM     39  H8  UNL     1       2.616 -10.710  33.659  1.00  0.00     0.185 HD
ENDBRANCH  31  33
ENDBRANCH  26  29
ENDBRANCH   1  22
TORSDOF 8
ENDMDL
