MODEL 1
REMARK VINA RESULT: -9.058848718      0.000      0.000
REMARK  8 active torsions:
REMARK  status: ('A' for Active; 'I' for Inactive)
REMARK    1  A    between atoms: C2_2  and  N2_5 
REMARK    2  A    between atoms: C2_2  and  C12_26 
REMARK    3  A    between atoms: N2_5  and  C4_7 
REMARK    4  A    between atoms: C4_7  and  C5_8 
REMARK    5  A    between atoms: C5_8  and  O1_9 
REMARK    6  A    between atoms: C5_8  and  C6_11 
REMARK    7  A    between atoms: C6_11  and  N3_12 
REMARK    8  A    between atoms: C18_35  and  N9_36 
ROOT
HETATM    1  C1  UNL     1       0.632 -13.451  37.382  1.00  0.00     0.062 C 
HETATM    2  C2  UNL     1       0.624 -12.466  38.523  1.00  0.00     0.160 C 
HETATM    3  C3  UNL     1       1.120 -11.197  37.956  1.00  0.00     0.097 C 
HETATM    4  N1  UNL     1       1.494 -10.183  37.512  1.00  0.00    -0.194 NA
ENDROOT
BRANCH   2   5
HETATM    5  N2  UNL     1      -0.574 -12.351  39.217  1.00  0.00    -0.374 N 
ATOM      6  H2  UNL     1      -0.543 -11.753  40.042  1.00  0.00     0.160 HD
BRANCH   5   7
HETATM    7  C4  UNL     1      -1.792 -12.924  38.956  1.00  0.00     0.090 C 
BRANCH   7   8
HETATM    8  C5  UNL     1      -2.905 -12.011  38.604  1.00  0.00     0.176 C 
BRANCH   8   9
HETATM    9  O1  UNL     1      -2.495 -11.329  37.416  1.00  0.00    -0.389 OA
ATOM     10  H1  UNL     1      -2.609 -10.402  37.592  1.00  0.00     0.210 HD
ENDBRANCH   8   9
BRANCH   8  11
HETATM   11  C6  UNL     1      -4.129 -12.774  38.097  1.00  0.00     0.186 C 
BRANCH  11  12
HETATM   12  N3  UNL     1      -4.777 -12.067  37.051  1.00  0.00    -0.281 N 
HETATM   13  N4  UNL     1      -4.777 -10.777  36.679  1.00  0.00    -0.291 N 
HETATM   14  C7  UNL     1      -5.620 -11.043  35.691  1.00  0.00     0.150 A 
ATOM     15  H4  UNL     1      -4.315  -9.934  37.020  1.00  0.00     0.187 HD
HETATM   16  C8  UNL     1      -6.307 -10.432  34.668  1.00  0.00     0.277 C 
HETATM   17  C11 UNL     1      -5.628 -12.376  36.062  1.00  0.00     0.152 A 
HETATM   18  O2  UNL     1      -5.968  -9.299  34.272  1.00  0.00    -0.266 OA
HETATM   19  N5  UNL     1      -7.369 -10.939  33.995  1.00  0.00    -0.318 N 
HETATM   20  C9  UNL     1      -8.015 -12.122  34.201  1.00  0.00     0.186 C 
ATOM     21  H5  UNL     1      -7.731 -10.362  33.236  1.00  0.00     0.169 HD
HETATM   22  N6  UNL     1      -7.417 -13.256  34.627  1.00  0.00    -0.318 N 
HETATM   23  C10 UNL     1      -6.357 -13.378  35.446  1.00  0.00     0.277 C 
ATOM     24  H6  UNL     1      -7.820 -14.129  34.285  1.00  0.00     0.169 HD
HETATM   25  O3  UNL     1      -5.928 -14.523  35.724  1.00  0.00    -0.266 OA
ENDBRANCH  11  12
ENDBRANCH   8  11
ENDBRANCH   7   8
ENDBRANCH   5   7
ENDBRANCH   2   5
BRANCH   2  26
HETATM   26  C12 UNL     1       1.668 -12.946  39.505  1.00  0.00     0.069 A 
HETATM   27  C13 UNL     1       2.812 -12.238  39.732  1.00  0.00     0.033 A 
HETATM   28  C14 UNL     1       3.734 -12.683  40.683  1.00  0.00     0.037 A 
HETATM   29  C15 UNL     1       3.448 -13.853  41.381  1.00  0.00     0.112 A 
HETATM   30  C16 UNL     1       4.172 -14.499  42.364  1.00  0.00     0.159 A 
HETATM   31  N10 UNL     1       2.321 -14.500  41.121  1.00  0.00    -0.084 N 
HETATM   32  C17 UNL     1       5.433 -14.119  42.930  1.00  0.00     0.120 C 
HETATM   33  N8  UNL     1       3.414 -15.576  42.683  1.00  0.00    -0.178 N 
HETATM   34  N7  UNL     1       6.439 -13.825  43.389  1.00  0.00    -0.190 NA
HETATM   35  C18 UNL     1       2.293 -15.576  41.932  1.00  0.00     0.698 A 
ATOM     36  H8  UNL     1       3.654 -16.278  43.383  1.00  0.00     0.185 HD
HETATM   37  N11 UNL     1       1.443 -14.065  40.203  1.00  0.00    -0.280 N 
ATOM     38  H11 UNL     1       0.590 -14.598  40.034  1.00  0.00     0.188 HD
BRANCH  35  39
HETATM   39  N9  UNL     1       1.357 -16.463  41.993  1.00  0.00    -0.233 N 
ATOM     40  H92 UNL     1       0.630 -16.622  41.295  1.00  0.00     0.174 HD
ATOM     41  H91 UNL     1       1.222 -17.124  42.757  1.00  0.00     0.174 HD
ENDBRANCH  35  39
ENDBRANCH   2  26
TORSDOF 8
ENDMDL
MODEL 2
REMARK VINA RESULT: -8.456301926      0.830      1.911
REMARK  8 active torsions:
REMARK  status: ('A' for Active; 'I' for Inactive)
REMARK    1  A    between atoms: C2_2  and  N2_5 
REMARK    2  A    between atoms: C2_2  and  C12_26 
REMARK    3  A    between atoms: N2_5  and  C4_7 
REMARK    4  A    between atoms: C4_7  and  C5_8 
REMARK    5  A    between atoms: C5_8  and  O1_9 
REMARK    6  A    between atoms: C5_8  and  C6_11 
REMARK    7  A    between atoms: C6_11  and  N3_12 
REMARK    8  A    between atoms: C18_35  and  N9_36 
ROOT
HETATM    1  C1  UNL     1       0.742 -13.493  37.267  1.00  0.00     0.062 C 
HETATM    2  C2  UNL     1       0.688 -12.503  38.405  1.00  0.00     0.160 C 
HETATM    3  C3  UNL     1       1.189 -11.232  37.849  1.00  0.00     0.097 C 
HETATM    4  N1  UNL     1       1.566 -10.215  37.413  1.00  0.00    -0.194 NA
ENDROOT
BRANCH   2   5
HETATM    5  N2  UNL     1      -0.532 -12.399  39.060  1.00  0.00    -0.374 N 
ATOM      6  H2  UNL     1      -0.604 -12.927  39.930  1.00  0.00     0.160 HD
BRANCH   5   7
HETATM    7  C4  UNL     1      -1.653 -11.691  38.712  1.00  0.00     0.090 C 
BRANCH   7   8
HETATM    8  C5  UNL     1      -2.771 -12.453  38.108  1.00  0.00     0.176 C 
BRANCH   8   9
HETATM    9  O1  UNL     1      -3.618 -12.838  39.194  1.00  0.00    -0.389 OA
ATOM     10  H1  UNL     1      -4.501 -12.601  38.935  1.00  0.00     0.210 HD
ENDBRANCH   8   9
BRANCH   8  11
HETATM   11  C6  UNL     1      -3.711 -11.548  37.309  1.00  0.00     0.186 C 
BRANCH  11  12
HETATM   12  N3  UNL     1      -4.745 -12.299  36.693  1.00  0.00    -0.281 N 
HETATM   13  N4  UNL     1      -5.075 -13.600  36.723  1.00  0.00    -0.291 N 
HETATM   14  C7  UNL     1      -6.086 -13.382  35.894  1.00  0.00     0.150 A 
ATOM     15  H4  UNL     1      -4.699 -14.424  37.194  1.00  0.00     0.187 HD
HETATM   16  C8  UNL     1      -7.101 -14.037  35.236  1.00  0.00     0.277 C 
HETATM   17  C11 UNL     1      -5.758 -12.038  35.854  1.00  0.00     0.152 A 
HETATM   18  O2  UNL     1      -7.455 -15.175  35.603  1.00  0.00    -0.266 OA
HETATM   19  N5  UNL     1      -7.809 -13.571  34.178  1.00  0.00    -0.318 N 
HETATM   20  C9  UNL     1      -7.651 -12.395  33.507  1.00  0.00     0.186 C 
ATOM     21  H5  UNL     1      -8.555 -14.178  33.840  1.00  0.00     0.169 HD
HETATM   22  N6  UNL     1      -7.251 -11.237  34.076  1.00  0.00    -0.318 N 
HETATM   23  C10 UNL     1      -6.418 -11.070  35.119  1.00  0.00     0.277 C 
ATOM     24  H6  UNL     1      -7.628 -10.383  33.664  1.00  0.00     0.169 HD
HETATM   25  O3  UNL     1      -6.168  -9.908  35.522  1.00  0.00    -0.266 OA
ENDBRANCH  11  12
ENDBRANCH   8  11
ENDBRANCH   7   8
ENDBRANCH   5   7
ENDBRANCH   2   5
BRANCH   2  26
HETATM   26  C12 UNL     1       1.706 -12.970  39.420  1.00  0.00     0.069 A 
HETATM   27  C13 UNL     1       2.843 -12.257  39.669  1.00  0.00     0.033 A 
HETATM   28  C14 UNL     1       3.738 -12.689  40.651  1.00  0.00     0.037 A 
HETATM   29  C15 UNL     1       3.436 -13.851  41.354  1.00  0.00     0.112 A 
HETATM   30  C16 UNL     1       4.133 -14.483  42.365  1.00  0.00     0.159 A 
HETATM   31  N10 UNL     1       2.318 -14.504  41.071  1.00  0.00    -0.084 N 
HETATM   32  C17 UNL     1       5.379 -14.095  42.960  1.00  0.00     0.120 C 
HETATM   33  N8  UNL     1       3.369 -15.558  42.676  1.00  0.00    -0.178 N 
HETATM   34  N7  UNL     1       6.371 -13.793  43.443  1.00  0.00    -0.190 NA
HETATM   35  C18 UNL     1       2.269 -15.570  41.895  1.00  0.00     0.698 A 
ATOM     36  H8  UNL     1       3.591 -16.252  43.390  1.00  0.00     0.185 HD
HETATM   37  N11 UNL     1       1.465 -14.081  40.125  1.00  0.00    -0.280 N 
ATOM     38  H11 UNL     1       0.617 -14.617  39.939  1.00  0.00     0.188 HD
BRANCH  35  39
HETATM   39  N9  UNL     1       1.333 -16.457  41.940  1.00  0.00    -0.233 N 
ATOM     40  H92 UNL     1       0.558 -16.485  42.603  1.00  0.00     0.174 HD
ATOM     41  H91 UNL     1       1.249 -17.256  41.312  1.00  0.00     0.174 HD
ENDBRANCH  35  39
ENDBRANCH   2  26
TORSDOF 8
ENDMDL
MODEL 3
REMARK VINA RESULT: -8.243281658      2.290      3.837
REMARK  8 active torsions:
REMARK  status: ('A' for Active; 'I' for Inactive)
REMARK    1  A    between atoms: C2_2  and  N2_5 
REMARK    2  A    between atoms: C2_2  and  C12_26 
REMARK    3  A    between atoms: N2_5  and  C4_7 
REMARK    4  A    between atoms: C4_7  and  C5_8 
REMARK    5  A    between atoms: C5_8  and  O1_9 
REMARK    6  A    between atoms: C5_8  and  C6_11 
REMARK    7  A    between atoms: C6_11  and  N3_12 
REMARK    8  A    between atoms: C18_35  and  N9_36 
ROOT
HETATM    1  C1  UNL     1       1.019 -12.996  41.203  1.00  0.00     0.062 C 
HETATM    2  C2  UNL     1       0.678 -13.044  39.735  1.00  0.00     0.160 C 
HETATM    3  C3  UNL     1       0.650 -14.477  39.381  1.00  0.00     0.097 C 
HETATM    4  N1  UNL     1       0.608 -15.609  39.095  1.00  0.00    -0.194 NA
ENDROOT
BRANCH   2   5
HETATM    5  N2  UNL     1      -0.457 -12.340  39.352  1.00  0.00    -0.374 N 
ATOM      6  H2  UNL     1      -0.287 -11.391  39.019  1.00  0.00     0.160 HD
BRANCH   5   7
HETATM    7  C4  UNL     1      -1.770 -12.732  39.356  1.00  0.00     0.090 C 
BRANCH   7   8
HETATM    8  C5  UNL     1      -2.725 -11.897  38.590  1.00  0.00     0.176 C 
BRANCH   8   9
HETATM    9  O1  UNL     1      -2.115 -11.667  37.317  1.00  0.00    -0.389 OA
ATOM     10  H1  UNL     1      -2.712 -12.026  36.671  1.00  0.00     0.210 HD
ENDBRANCH   8   9
BRANCH   8  11
HETATM   11  C6  UNL     1      -3.970 -12.686  38.180  1.00  0.00     0.186 C 
BRANCH  11  12
HETATM   12  N3  UNL     1      -4.660 -12.041  37.121  1.00  0.00    -0.281 N 
HETATM   13  N4  UNL     1      -4.689 -10.772  36.685  1.00  0.00    -0.291 N 
HETATM   14  C7  UNL     1      -5.559 -11.096  35.739  1.00  0.00     0.150 A 
ATOM     15  H4  UNL     1      -4.227  -9.906  36.967  1.00  0.00     0.187 HD
HETATM   16  C8  UNL     1      -6.287 -10.547  34.709  1.00  0.00     0.277 C 
HETATM   17  C11 UNL     1      -5.539 -12.409  36.177  1.00  0.00     0.152 A 
HETATM   18  O2  UNL     1      -5.975  -9.432  34.246  1.00  0.00    -0.266 OA
HETATM   19  N5  UNL     1      -7.363 -11.100  34.098  1.00  0.00    -0.318 N 
HETATM   20  C9  UNL     1      -7.987 -12.277  34.386  1.00  0.00     0.186 C 
ATOM     21  H5  UNL     1      -7.757 -10.566  33.323  1.00  0.00     0.169 HD
HETATM   22  N6  UNL     1      -7.362 -13.381  34.849  1.00  0.00    -0.318 N 
HETATM   23  C10 UNL     1      -6.274 -13.449  35.637  1.00  0.00     0.277 C 
ATOM     24  H6  UNL     1      -7.764 -14.275  34.565  1.00  0.00     0.169 HD
HETATM   25  O3  UNL     1      -5.822 -14.574  35.960  1.00  0.00    -0.266 OA
ENDBRANCH  11  12
ENDBRANCH   8  11
ENDBRANCH   7   8
ENDBRANCH   5   7
ENDBRANCH   2   5
BRANCH   2  26
HETATM   26  C12 UNL     1       1.852 -12.434  39.006  1.00  0.00     0.069 A 
HETATM   27  C13 UNL     1       2.932 -11.941  39.680  1.00  0.00     0.033 A 
HETATM   28  C14 UNL     1       4.024 -11.430  38.975  1.00  0.00     0.037 A 
HETATM   29  C15 UNL     1       3.975 -11.440  37.585  1.00  0.00     0.112 A 
HETATM   30  C16 UNL     1       4.906 -11.010  36.660  1.00  0.00     0.159 A 
HETATM   31  N10 UNL     1       2.901 -11.931  36.981  1.00  0.00    -0.084 N 
HETATM   32  C17 UNL     1       6.193 -10.427  36.904  1.00  0.00     0.120 C 
HETATM   33  N8  UNL     1       4.331 -11.270  35.461  1.00  0.00    -0.178 N 
HETATM   34  N7  UNL     1       7.222  -9.962  37.087  1.00  0.00    -0.190 NA
HETATM   35  C18 UNL     1       3.118 -11.830  35.655  1.00  0.00     0.698 A 
ATOM     36  H8  UNL     1       4.749 -11.074  34.552  1.00  0.00     0.185 HD
HETATM   37  N11 UNL     1       1.856 -12.418  37.668  1.00  0.00    -0.280 N 
ATOM     38  H11 UNL     1       1.050 -12.783  37.161  1.00  0.00     0.188 HD
BRANCH  35  39
HETATM   39  N9  UNL     1       2.312 -12.203  34.718  1.00  0.00    -0.233 N 
ATOM     40  H92 UNL     1       2.270 -11.825  33.771  1.00  0.00     0.174 HD
ATOM     41  H91 UNL     1       1.605 -12.932  34.807  1.00  0.00     0.174 HD
ENDBRANCH  35  39
ENDBRANCH   2  26
TORSDOF 8
ENDMDL
MODEL 4
REMARK VINA RESULT: -8.117542424      5.415     13.011
REMARK  8 active torsions:
REMARK  status: ('A' for Active; 'I' for Inactive)
REMARK    1  A    between atoms: C2_2  and  N2_5 
REMARK    2  A    between atoms: C2_2  and  C12_26 
REMARK    3  A    between atoms: N2_5  and  C4_7 
REMARK    4  A    between atoms: C4_7  and  C5_8 
REMARK    5  A    between atoms: C5_8  and  O1_9 
REMARK    6  A    between atoms: C5_8  and  C6_11 
REMARK    7  A    between atoms: C6_11  and  N3_12 
REMARK    8  A    between atoms: C18_35  and  N9_36 
ROOT
HETATM    1  C1  UNL     1       4.365 -15.235  40.246  1.00  0.00     0.062 C 
HETATM    2  C2  UNL     1       3.531 -14.584  41.322  1.00  0.00     0.160 C 
HETATM    3  C3  UNL     1       2.956 -15.695  42.104  1.00  0.00     0.097 C 
HETATM    4  N1  UNL     1       2.510 -16.567  42.741  1.00  0.00    -0.194 NA
ENDROOT
BRANCH   2   5
HETATM    5  N2  UNL     1       4.174 -13.620  42.087  1.00  0.00    -0.374 N 
ATOM      6  H2  UNL     1       3.571 -12.884  42.454  1.00  0.00     0.160 HD
BRANCH   5   7
HETATM    7  C4  UNL     1       5.499 -13.512  42.423  1.00  0.00     0.090 C 
BRANCH   7   8
HETATM    8  C5  UNL     1       5.900 -14.020  43.756  1.00  0.00     0.176 C 
BRANCH   8   9
HETATM    9  O1  UNL     1       5.392 -15.354  43.839  1.00  0.00    -0.389 OA
ATOM     10  H1  UNL     1       6.050 -15.857  44.304  1.00  0.00     0.210 HD
ENDBRANCH   8   9
BRANCH   8  11
HETATM   11  C6  UNL     1       7.406 -14.274  43.838  1.00  0.00     0.186 C 
BRANCH  11  12
HETATM   12  N3  UNL     1       7.766 -14.818  45.099  1.00  0.00    -0.281 N 
HETATM   13  N4  UNL     1       7.050 -15.313  46.121  1.00  0.00    -0.291 N 
HETATM   14  C7  UNL     1       8.159 -15.542  46.811  1.00  0.00     0.150 A 
ATOM     15  H4  UNL     1       6.055 -15.455  46.297  1.00  0.00     0.187 HD
HETATM   16  C8  UNL     1       8.594 -16.029  48.021  1.00  0.00     0.277 C 
HETATM   17  C11 UNL     1       8.910 -15.036  45.764  1.00  0.00     0.152 A 
HETATM   18  O2  UNL     1       7.836 -16.721  48.728  1.00  0.00    -0.266 OA
HETATM   19  N5  UNL     1       9.818 -15.842  48.573  1.00  0.00    -0.318 N 
HETATM   20  C9  UNL     1      10.860 -15.106  48.091  1.00  0.00     0.186 C 
ATOM     21  H5  UNL     1       9.981 -16.311  49.463  1.00  0.00     0.169 HD
HETATM   22  N6  UNL     1      11.145 -14.951  46.779  1.00  0.00    -0.318 N 
HETATM   23  C10 UNL     1      10.289 -14.925  45.742  1.00  0.00     0.277 C 
ATOM     24  H6  UNL     1      12.132 -14.841  46.546  1.00  0.00     0.169 HD
HETATM   25  O3  UNL     1      10.740 -14.783  44.580  1.00  0.00    -0.266 OA
ENDBRANCH  11  12
ENDBRANCH   8  11
ENDBRANCH   7   8
ENDBRANCH   5   7
ENDBRANCH   2   5
BRANCH   2  26
HETATM   26  C12 UNL     1       2.383 -13.904  40.614  1.00  0.00     0.069 A 
HETATM   27  C13 UNL     1       1.094 -14.057  41.035  1.00  0.00     0.033 A 
HETATM   28  C14 UNL     1       0.060 -13.374  40.390  1.00  0.00     0.037 A 
HETATM   29  C15 UNL     1       0.384 -12.545  39.321  1.00  0.00     0.112 A 
HETATM   30  C16 UNL     1      -0.430 -11.761  38.526  1.00  0.00     0.159 A 
HETATM   31  N10 UNL     1       1.653 -12.433  38.953  1.00  0.00    -0.084 N 
HETATM   32  C17 UNL     1      -1.852 -11.600  38.602  1.00  0.00     0.120 C 
HETATM   33  N8  UNL     1       0.423 -11.169  37.655  1.00  0.00    -0.178 N 
HETATM   34  N7  UNL     1      -2.986 -11.463  38.655  1.00  0.00    -0.190 NA
HETATM   35  C18 UNL     1       1.684 -11.574  37.915  1.00  0.00     0.698 A 
ATOM     36  H8  UNL     1       0.154 -10.518  36.918  1.00  0.00     0.185 HD
HETATM   37  N11 UNL     1       2.639 -13.096  39.579  1.00  0.00    -0.280 N 
ATOM     38  H11 UNL     1       3.600 -12.981  39.259  1.00  0.00     0.188 HD
BRANCH  35  39
HETATM   39  N9  UNL     1       2.736 -11.192  37.271  1.00  0.00    -0.233 N 
ATOM     40  H92 UNL     1       2.825 -11.104  36.258  1.00  0.00     0.174 HD
ATOM     41  H91 UNL     1       3.623 -10.928  37.698  1.00  0.00     0.174 HD
ENDBRANCH  35  39
ENDBRANCH   2  26
TORSDOF 8
ENDMDL
MODEL 5
REMARK VINA RESULT: -7.959299462      1.540      2.763
REMARK  8 active torsions:
REMARK  status: ('A' for Active; 'I' for Inactive)
REMARK    1  A    between atoms: C2_2  and  N2_5 
REMARK    2  A    between atoms: C2_2  and  C12_26 
REMARK    3  A    between atoms: N2_5  and  C4_7 
REMARK    4  A    between atoms: C4_7  and  C5_8 
REMARK    5  A    between atoms: C5_8  and  O1_9 
REMARK    6  A    between atoms: C5_8  and  C6_11 
REMARK    7  A    between atoms: C6_11  and  N3_12 
REMARK    8  A    between atoms: C18_35  and  N9_36 
ROOT
HETATM    1  C1  UNL     1      -0.048 -13.284  36.910  1.00  0.00     0.062 C 
HETATM    2  C2  UNL     1      -0.131 -12.454  38.167  1.00  0.00     0.160 C 
HETATM    3  C3  UNL     1       0.538 -11.179  37.845  1.00  0.00     0.097 C 
HETATM    4  N1  UNL     1       1.050 -10.159  37.595  1.00  0.00    -0.194 NA
ENDROOT
BRANCH   2   5
HETATM    5  N2  UNL     1      -1.399 -12.311  38.717  1.00  0.00    -0.374 N 
ATOM      6  H2  UNL     1      -1.547 -12.798  39.600  1.00  0.00     0.160 HD
BRANCH   5   7
HETATM    7  C4  UNL     1      -2.480 -11.611  38.248  1.00  0.00     0.090 C 
BRANCH   7   8
HETATM    8  C5  UNL     1      -3.547 -12.389  37.576  1.00  0.00     0.176 C 
BRANCH   8   9
HETATM    9  O1  UNL     1      -4.470 -12.762  38.603  1.00  0.00    -0.389 OA
ATOM     10  H1  UNL     1      -5.289 -12.956  38.162  1.00  0.00     0.210 HD
ENDBRANCH   8   9
BRANCH   8  11
HETATM   11  C6  UNL     1      -4.430 -11.503  36.696  1.00  0.00     0.186 C 
BRANCH  11  12
HETATM   12  N3  UNL     1      -5.440 -12.263  36.053  1.00  0.00    -0.281 N 
HETATM   13  N4  UNL     1      -5.733 -13.573  36.040  1.00  0.00    -0.291 N 
HETATM   14  C7  UNL     1      -6.748 -13.358  35.215  1.00  0.00     0.150 A 
ATOM     15  H4  UNL     1      -5.334 -14.401  36.485  1.00  0.00     0.187 HD
HETATM   16  C8  UNL     1      -7.742 -14.020  34.533  1.00  0.00     0.277 C 
HETATM   17  C11 UNL     1      -6.459 -12.004  35.220  1.00  0.00     0.152 A 
HETATM   18  O2  UNL     1      -8.063 -15.179  34.861  1.00  0.00    -0.266 OA
HETATM   19  N5  UNL     1      -8.460 -13.541  33.488  1.00  0.00    -0.318 N 
HETATM   20  C9  UNL     1      -8.335 -12.340  32.855  1.00  0.00     0.186 C 
ATOM     21  H5  UNL     1      -9.188 -14.158  33.128  1.00  0.00     0.169 HD
HETATM   22  N6  UNL     1      -7.971 -11.189  33.463  1.00  0.00    -0.318 N 
HETATM   23  C10 UNL     1      -7.145 -11.032  34.513  1.00  0.00     0.277 C 
ATOM     24  H6  UNL     1      -8.371 -10.334  33.078  1.00  0.00     0.169 HD
HETATM   25  O3  UNL     1      -6.930  -9.878  34.955  1.00  0.00    -0.266 OA
ENDBRANCH  11  12
ENDBRANCH   8  11
ENDBRANCH   7   8
ENDBRANCH   5   7
ENDBRANCH   2   5
BRANCH   2  26
HETATM   26  C12 UNL     1       0.728 -13.154  39.195  1.00  0.00     0.069 A 
HETATM   27  C13 UNL     1       0.249 -14.195  39.935  1.00  0.00     0.033 A 
HETATM   28  C14 UNL     1       1.084 -14.854  40.840  1.00  0.00     0.037 A 
HETATM   29  C15 UNL     1       2.401 -14.419  40.959  1.00  0.00     0.112 A 
HETATM   30  C16 UNL     1       3.423 -14.891  41.759  1.00  0.00     0.159 A 
HETATM   31  N10 UNL     1       2.814 -13.402  40.216  1.00  0.00    -0.084 N 
HETATM   32  C17 UNL     1       3.385 -15.976  42.696  1.00  0.00     0.120 C 
HETATM   33  N8  UNL     1       4.479 -14.098  41.455  1.00  0.00    -0.178 N 
HETATM   34  N7  UNL     1       3.367 -16.840  43.445  1.00  0.00    -0.190 NA
HETATM   35  C18 UNL     1       4.111 -13.199  40.519  1.00  0.00     0.698 A 
ATOM     36  H8  UNL     1       5.408 -14.170  41.869  1.00  0.00     0.185 HD
HETATM   37  N11 UNL     1       2.002 -12.775  39.350  1.00  0.00    -0.280 N 
ATOM     38  H11 UNL     1       2.363 -11.995  38.800  1.00  0.00     0.188 HD
BRANCH  35  39
HETATM   39  N9  UNL     1       4.883 -12.300  40.006  1.00  0.00    -0.233 N 
ATOM     40  H92 UNL     1       5.791 -12.462  39.568  1.00  0.00     0.174 HD
ATOM     41  H91 UNL     1       4.683 -11.301  39.975  1.00  0.00     0.174 HD
ENDBRANCH  35  39
ENDBRANCH   2  26
TORSDOF 8
ENDMDL
