MODEL 1
REMARK VINA RESULT: -5.234518419      0.000      0.000
REMARK  8 active torsions:
REMARK  status: ('A' for Active; 'I' for Inactive)
REMARK    1  A    between atoms: C2_2  and  N1_3 
REMARK    2  A    between atoms: N1_3  and  C5_6 
REMARK    3  A    between atoms: C5_6  and  C6_7 
REMARK    4  A    between atoms: C8_12  and  N3_13 
REMARK    5  A    between atoms: N4_16  and  C9_17 
REMARK    6  A    between atoms: C9_17  and  C10_18 
REMARK    7  A    between atoms: C10_18  and  C11_19 
REMARK    8  A    between atoms: C11_19  and  C12_20 
ROOT
HETATM    1  C6  UNL     1      -4.505   4.439  14.819  1.00  0.00     0.095 A 
HETATM    2  C7  UNL     1      -5.621   5.286  14.650  1.00  0.00     0.144 A 
HETATM    3 CL1  UNL     1      -5.829   6.743  13.665  1.00  0.00    -0.062 Cl
HETATM    4  N2  UNL     1      -6.635   4.692  15.349  1.00  0.00    -0.179 N 
ATOM      5  H2  UNL     1      -7.585   5.052  15.433  1.00  0.00     0.185 HD
HETATM    6  C8  UNL     1      -6.172   3.540  15.916  1.00  0.00     0.680 A 
HETATM    7  N4  UNL     1      -4.835   3.425  15.538  1.00  0.00    -0.171 N 
ENDROOT
BRANCH   7   8
HETATM    8  C9  UNL     1      -4.199   2.119  15.759  1.00  0.00     0.241 C 
BRANCH   8   9
HETATM    9  C10 UNL     1      -4.331   1.353  14.481  1.00  0.00    -0.084 C 
BRANCH   9  10
HETATM   10  C11 UNL     1      -4.401   0.669  13.437  1.00  0.00    -0.069 C 
BRANCH  10  11
HETATM   11  C12 UNL     1      -4.481  -0.196  12.256  1.00  0.00     0.302 C 
HETATM   12  C13 UNL     1      -4.830   0.620  11.001  1.00  0.00     0.079 C 
HETATM   13  C14 UNL     1      -3.651   0.021  10.342  1.00  0.00     0.276 C 
HETATM   14  N5  UNL     1      -3.257  -0.567  11.643  1.00  0.00     0.100 N 
HETATM   15  C15 UNL     1      -3.130  -2.029  11.479  1.00  0.00     0.311 C 
ENDBRANCH  10  11
ENDBRANCH   9  10
ENDBRANCH   8   9
ENDBRANCH   7   8
BRANCH   1  16
HETATM   16  C5  UNL     1      -3.198   4.873  14.273  1.00  0.00     0.297 C 
BRANCH  16  17
HETATM   17  N1  UNL     1      -2.984   4.606  12.896  1.00  0.00    -0.070 N 
HETATM   18  C3  UNL     1      -3.914   4.047  12.009  1.00  0.00     0.272 C 
HETATM   19  C4  UNL     1      -2.617   5.915  12.279  1.00  0.00     0.272 C 
BRANCH  17  20
HETATM   20  C2  UNL     1      -1.698   3.858  12.738  1.00  0.00     0.232 C 
HETATM   21  C1  UNL     1      -1.654   2.950  11.566  1.00  0.00     0.035 C 
ENDBRANCH  17  20
ENDBRANCH  16  17
ENDBRANCH   1  16
BRANCH   6  22
HETATM   22  N3  UNL     1      -6.819   2.884  16.773  1.00  0.00    -0.234 N 
ATOM     23  H32 UNL     1      -6.882   1.874  16.904  1.00  0.00     0.174 HD
ATOM     24  H31 UNL     1      -7.245   3.307  17.597  1.00  0.00     0.174 HD
ENDBRANCH   6  22
TORSDOF 8
ENDMDL
MODEL 2
REMARK VINA RESULT: -5.151296078      2.203      5.228
REMARK  8 active torsions:
REMARK  status: ('A' for Active; 'I' for Inactive)
REMARK    1  A    between atoms: C2_2  and  N1_3 
REMARK    2  A    between atoms: N1_3  and  C5_6 
REMARK    3  A    between atoms: C5_6  and  C6_7 
REMARK    4  A    between atoms: C8_12  and  N3_13 
REMARK    5  A    between atoms: N4_16  and  C9_17 
REMARK    6  A    between atoms: C9_17  and  C10_18 
REMARK    7  A    between atoms: C10_18  and  C11_19 
REMARK    8  A    between atoms: C11_19  and  C12_20 
ROOT
HETATM    1  C6  UNL     1      -2.901   3.460  11.947  1.00  0.00     0.095 A 
HETATM    2  C7  UNL     1      -1.509   3.482  11.711  1.00  0.00     0.144 A 
HETATM    3 CL1  UNL     1      -0.539   2.723  10.438  1.00  0.00    -0.062 Cl
HETATM    4  N2  UNL     1      -0.998   4.340  12.644  1.00  0.00    -0.179 N 
ATOM      5  H2  UNL     1      -0.013   4.579  12.750  1.00  0.00     0.185 HD
HETATM    6  C8  UNL     1      -2.017   4.825  13.412  1.00  0.00     0.680 A 
HETATM    7  N4  UNL     1      -3.188   4.250  12.919  1.00  0.00    -0.171 N 
ENDROOT
BRANCH   7   8
HETATM    8  C9  UNL     1      -4.453   4.847  13.370  1.00  0.00     0.241 C 
BRANCH   8   9
HETATM    9  C10 UNL     1      -4.866   4.104  14.601  1.00  0.00    -0.084 C 
BRANCH   9  10
HETATM   10  C11 UNL     1      -5.241   3.440  15.592  1.00  0.00    -0.069 C 
BRANCH  10  11
HETATM   11  C12 UNL     1      -5.632   2.606  16.732  1.00  0.00     0.302 C 
HETATM   12  C13 UNL     1      -6.952   3.101  17.346  1.00  0.00     0.079 C 
HETATM   13  C14 UNL     1      -7.474   1.726  17.215  1.00  0.00     0.276 C 
HETATM   14  N5  UNL     1      -6.262   1.369  16.442  1.00  0.00     0.100 N 
HETATM   15  C15 UNL     1      -5.598   0.229  17.106  1.00  0.00     0.311 C 
ENDBRANCH  10  11
ENDBRANCH   9  10
ENDBRANCH   8   9
ENDBRANCH   7   8
BRANCH   1  16
HETATM   16  C5  UNL     1      -3.736   2.519  11.164  1.00  0.00     0.297 C 
BRANCH  16  17
HETATM   17  N1  UNL     1      -3.944   1.243  11.750  1.00  0.00    -0.070 N 
HETATM   18  C3  UNL     1      -4.258   0.993  13.093  1.00  0.00     0.272 C 
HETATM   19  C4  UNL     1      -5.061   0.619  10.982  1.00  0.00     0.272 C 
BRANCH  17  20
HETATM   20  C2  UNL     1      -2.812   0.342  11.371  1.00  0.00     0.232 C 
HETATM   21  C1  UNL     1      -3.152  -1.102  11.361  1.00  0.00     0.035 C 
ENDBRANCH  17  20
ENDBRANCH  16  17
ENDBRANCH   1  16
BRANCH   6  22
HETATM   22  N3  UNL     1      -1.833   5.481  14.470  1.00  0.00    -0.234 N 
ATOM     23  H32 UNL     1      -2.499   5.735  15.199  1.00  0.00     0.174 HD
ATOM     24  H31 UNL     1      -0.907   5.702  14.837  1.00  0.00     0.174 HD
ENDBRANCH   6  22
TORSDOF 8
ENDMDL
MODEL 3
REMARK VINA RESULT: -5.130592135      2.267      5.297
REMARK  8 active torsions:
REMARK  status: ('A' for Active; 'I' for Inactive)
REMARK    1  A    between atoms: C2_2  and  N1_3 
REMARK    2  A    between atoms: N1_3  and  C5_6 
REMARK    3  A    between atoms: C5_6  and  C6_7 
REMARK    4  A    between atoms: C8_12  and  N3_13 
REMARK    5  A    between atoms: N4_16  and  C9_17 
REMARK    6  A    between atoms: C9_17  and  C10_18 
REMARK    7  A    between atoms: C10_18  and  C11_19 
REMARK    8  A    between atoms: C11_19  and  C12_20 
ROOT
HETATM    1  C6  UNL     1      -2.974   2.930  10.945  1.00  0.00     0.095 A 
HETATM    2  C7  UNL     1      -1.635   2.484  10.938  1.00  0.00     0.144 A 
HETATM    3 CL1  UNL     1      -0.119   3.376  10.735  1.00  0.00    -0.062 Cl
HETATM    4  N2  UNL     1      -1.697   1.153  11.242  1.00  0.00    -0.179 N 
ATOM      5  H2  UNL     1      -0.896   0.526  11.316  1.00  0.00     0.185 HD
HETATM    6  C8  UNL     1      -3.001   0.796  11.430  1.00  0.00     0.680 A 
HETATM    7  N4  UNL     1      -3.755   1.955  11.245  1.00  0.00    -0.171 N 
ENDROOT
BRANCH   7   8
HETATM    8  C9  UNL     1      -5.154   1.907  11.696  1.00  0.00     0.241 C 
BRANCH   8   9
HETATM    9  C10 UNL     1      -5.154   2.300  13.139  1.00  0.00    -0.084 C 
BRANCH   9  10
HETATM   10  C11 UNL     1      -5.215   2.605  14.350  1.00  0.00    -0.069 C 
BRANCH  10  11
HETATM   11  C12 UNL     1      -5.357   2.934  15.772  1.00  0.00     0.302 C 
HETATM   12  C13 UNL     1      -6.106   4.265  15.954  1.00  0.00     0.079 C 
HETATM   13  C14 UNL     1      -7.029   3.565  16.870  1.00  0.00     0.276 C 
HETATM   14  N5  UNL     1      -6.394   2.282  16.486  1.00  0.00     0.100 N 
HETATM   15  C15 UNL     1      -5.904   1.616  17.709  1.00  0.00     0.311 C 
ENDBRANCH  10  11
ENDBRANCH   9  10
ENDBRANCH   8   9
ENDBRANCH   7   8
BRANCH   1  16
HETATM   16  C5  UNL     1      -3.257   4.324  10.531  1.00  0.00     0.297 C 
BRANCH  16  17
HETATM   17  N1  UNL     1      -3.244   5.293  11.569  1.00  0.00    -0.070 N 
HETATM   18  C3  UNL     1      -2.782   5.095  12.877  1.00  0.00     0.272 C 
HETATM   19  C4  UNL     1      -2.432   6.433  11.053  1.00  0.00     0.272 C 
BRANCH  17  20
HETATM   20  C2  UNL     1      -4.593   5.933  11.655  1.00  0.00     0.232 C 
HETATM   21  C1  UNL     1      -5.014   6.300  13.029  1.00  0.00     0.035 C 
ENDBRANCH  17  20
ENDBRANCH  16  17
ENDBRANCH   1  16
BRANCH   6  22
HETATM   22  N3  UNL     1      -3.383  -0.398  11.529  1.00  0.00    -0.234 N 
ATOM     23  H32 UNL     1      -3.057  -1.133  12.156  1.00  0.00     0.174 HD
ATOM     24  H31 UNL     1      -4.234  -0.752  11.092  1.00  0.00     0.174 HD
ENDBRANCH   6  22
TORSDOF 8
ENDMDL
MODEL 4
REMARK VINA RESULT: -5.119541717      2.350      5.079
REMARK  8 active torsions:
REMARK  status: ('A' for Active; 'I' for Inactive)
REMARK    1  A    between atoms: C2_2  and  N1_3 
REMARK    2  A    between atoms: N1_3  and  C5_6 
REMARK    3  A    between atoms: C5_6  and  C6_7 
REMARK    4  A    between atoms: C8_12  and  N3_13 
REMARK    5  A    between atoms: N4_16  and  C9_17 
REMARK    6  A    between atoms: C9_17  and  C10_18 
REMARK    7  A    between atoms: C10_18  and  C11_19 
REMARK    8  A    between atoms: C11_19  and  C12_20 
ROOT
HETATM    1  C6  UNL     1      -2.787   4.076  12.019  1.00  0.00     0.095 A 
HETATM    2  C7  UNL     1      -1.377   4.083  12.063  1.00  0.00     0.144 A 
HETATM    3 CL1  UNL     1      -0.235   5.405  12.355  1.00  0.00    -0.062 Cl
HETATM    4  N2  UNL     1      -1.004   2.775  11.934  1.00  0.00    -0.179 N 
ATOM      5  H2  UNL     1      -0.044   2.432  11.924  1.00  0.00     0.185 HD
HETATM    6  C8  UNL     1      -2.123   2.000  11.820  1.00  0.00     0.680 A 
HETATM    7  N4  UNL     1      -3.211   2.869  11.895  1.00  0.00    -0.171 N 
ENDROOT
BRANCH   7   8
HETATM    8  C9  UNL     1      -4.529   2.254  12.110  1.00  0.00     0.241 C 
BRANCH   8   9
HETATM    9  C10 UNL     1      -4.762   2.240  13.587  1.00  0.00    -0.084 C 
BRANCH   9  10
HETATM   10  C11 UNL     1      -5.019   2.228  14.811  1.00  0.00    -0.069 C 
BRANCH  10  11
HETATM   11  C12 UNL     1      -5.395   2.201  16.228  1.00  0.00     0.302 C 
HETATM   12  C13 UNL     1      -6.395   3.323  16.552  1.00  0.00     0.079 C 
HETATM   13  C14 UNL     1      -7.278   2.300  17.147  1.00  0.00     0.276 C 
HETATM   14  N5  UNL     1      -6.373   1.252  16.619  1.00  0.00     0.100 N 
HETATM   15  C15 UNL     1      -5.923   0.409  17.744  1.00  0.00     0.311 C 
ENDBRANCH  10  11
ENDBRANCH   9  10
ENDBRANCH   8   9
ENDBRANCH   7   8
BRANCH   1  16
HETATM   16  C5  UNL     1      -3.501   5.374  12.015  1.00  0.00     0.297 C 
BRANCH  16  17
HETATM   17  N1  UNL     1      -3.815   5.911  13.291  1.00  0.00    -0.070 N 
HETATM   18  C3  UNL     1      -3.279   5.494  14.517  1.00  0.00     0.272 C 
HETATM   19  C4  UNL     1      -3.488   7.365  13.213  1.00  0.00     0.272 C 
BRANCH  17  20
HETATM   20  C2  UNL     1      -5.302   5.972  13.442  1.00  0.00     0.232 C 
HETATM   21  C1  UNL     1      -5.768   6.490  14.752  1.00  0.00     0.035 C 
ENDBRANCH  17  20
ENDBRANCH  16  17
ENDBRANCH   1  16
BRANCH   6  22
HETATM   22  N3  UNL     1      -2.091   0.785  11.495  1.00  0.00    -0.234 N 
ATOM     23  H32 UNL     1      -1.354   0.095  11.639  1.00  0.00     0.174 HD
ATOM     24  H31 UNL     1      -2.914   0.266  11.188  1.00  0.00     0.174 HD
ENDBRANCH   6  22
TORSDOF 8
ENDMDL
MODEL 5
REMARK VINA RESULT: -5.085325076      2.452      4.605
REMARK  8 active torsions:
REMARK  status: ('A' for Active; 'I' for Inactive)
REMARK    1  A    between atoms: C2_2  and  N1_3 
REMARK    2  A    between atoms: N1_3  and  C5_6 
REMARK    3  A    between atoms: C5_6  and  C6_7 
REMARK    4  A    between atoms: C8_12  and  N3_13 
REMARK    5  A    between atoms: N4_16  and  C9_17 
REMARK    6  A    between atoms: C9_17  and  C10_18 
REMARK    7  A    between atoms: C10_18  and  C11_19 
REMARK    8  A    between atoms: C11_19  and  C12_20 
ROOT
HETATM    1  C6  UNL     1      -4.997   2.735  13.946  1.00  0.00     0.095 A 
HETATM    2  C7  UNL     1      -4.794   1.923  15.082  1.00  0.00     0.144 A 
HETATM    3 CL1  UNL     1      -5.081   2.245  16.800  1.00  0.00    -0.062 Cl
HETATM    4  N2  UNL     1      -4.403   0.709  14.594  1.00  0.00    -0.179 N 
ATOM      5  H2  UNL     1      -4.173  -0.109  15.158  1.00  0.00     0.185 HD
HETATM    6  C8  UNL     1      -4.370   0.764  13.230  1.00  0.00     0.680 A 
HETATM    7  N4  UNL     1      -4.765   2.054  12.880  1.00  0.00    -0.171 N 
ENDROOT
BRANCH   7   8
HETATM    8  C9  UNL     1      -5.111   2.275  11.468  1.00  0.00     0.241 C 
BRANCH   8   9
HETATM    9  C10 UNL     1      -3.962   3.007  10.852  1.00  0.00    -0.084 C 
BRANCH   9  10
HETATM   10  C11 UNL     1      -2.969   3.612  10.393  1.00  0.00    -0.069 C 
BRANCH  10  11
HETATM   11  C12 UNL     1      -1.759   4.266   9.883  1.00  0.00     0.302 C 
HETATM   12  C13 UNL     1      -0.684   4.361  10.978  1.00  0.00     0.079 C 
HETATM   13  C14 UNL     1       0.260   3.722  10.040  1.00  0.00     0.276 C 
HETATM   14  N5  UNL     1      -0.870   3.472   9.115  1.00  0.00     0.100 N 
HETATM   15  C15 UNL     1      -0.553   4.083   7.809  1.00  0.00     0.311 C 
ENDBRANCH  10  11
ENDBRANCH   9  10
ENDBRANCH   8   9
ENDBRANCH   7   8
BRANCH   1  16
HETATM   16  C5  UNL     1      -5.317   4.167  14.147  1.00  0.00     0.297 C 
BRANCH  16  17
HETATM   17  N1  UNL     1      -4.214   5.060  14.103  1.00  0.00    -0.070 N 
HETATM   18  C3  UNL     1      -2.862   4.698  14.029  1.00  0.00     0.272 C 
HETATM   19  C4  UNL     1      -4.438   5.926  12.908  1.00  0.00     0.272 C 
BRANCH  17  20
HETATM   20  C2  UNL     1      -4.357   6.066  15.201  1.00  0.00     0.232 C 
HETATM   21  C1  UNL     1      -5.689   6.714  15.274  1.00  0.00     0.035 C 
ENDBRANCH  17  20
ENDBRANCH  16  17
ENDBRANCH   1  16
BRANCH   6  22
HETATM   22  N3  UNL     1      -3.862  -0.138  12.514  1.00  0.00    -0.234 N 
ATOM     23  H32 UNL     1      -2.894  -0.454  12.460  1.00  0.00     0.174 HD
ATOM     24  H31 UNL     1      -4.416  -0.822  12.000  1.00  0.00     0.174 HD
ENDBRANCH   6  22
TORSDOF 8
ENDMDL
