MODEL 1
REMARK VINA RESULT: -5.844995570      0.000      0.000
REMARK  5 active torsions:
REMARK  status: ('A' for Active; 'I' for Inactive)
REMARK    1  A    between atoms: C3_3  and  C5_6 
REMARK    2  A    between atoms: N4_12  and  C7_14 
REMARK    3  A    between atoms: C7_14  and  C8_15 
REMARK    4  A    between atoms: C8_15  and  C9_16 
REMARK    5  A    between atoms: C9_16  and  N5_17 
ROOT
HETATM    1  C1  UNL     1      -1.796   1.152  10.784  1.00  0.00     0.013 C 
HETATM    2  C2  UNL     1      -1.490   2.292  11.020  1.00  0.00    -0.091 C 
HETATM    3  C3  UNL     1      -1.139   3.701  11.316  1.00  0.00     0.223 C 
HETATM    4  C4  UNL     1       0.301   3.899  11.275  1.00  0.00     0.083 C 
HETATM    5  N1  UNL     1       1.440   4.053  11.235  1.00  0.00    -0.196 NA
ENDROOT
BRANCH   3   6
HETATM    6  C5  UNL     1      -1.722   4.037  12.606  1.00  0.00     0.076 A 
HETATM    7  N2  UNL     1      -1.043   4.046  13.766  1.00  0.00    -0.299 N 
HETATM    8  N3  UNL     1      -1.809   4.381  14.759  1.00  0.00    -0.284 N 
ATOM      9  H2  UNL     1      -0.053   3.820  13.854  1.00  0.00     0.186 HD
HETATM   10  C6  UNL     1      -3.090   4.621  14.295  1.00  0.00     0.135 A 
ATOM     11  H3  UNL     1      -1.512   4.454  15.732  1.00  0.00     0.188 HD
HETATM   12  N4  UNL     1      -4.052   4.958  15.001  1.00  0.00    -0.374 N 
HETATM   13  C12 UNL     1      -3.014   4.401  12.950  1.00  0.00     0.082 A 
ATOM     14  H4  UNL     1      -3.759   5.031  15.975  1.00  0.00     0.161 HD
HETATM   15 BR1  UNL     1      -4.367   4.531  11.646  1.00  0.00    -0.045 Br
BRANCH  12  16
HETATM   16  C7  UNL     1      -5.391   5.264  14.890  1.00  0.00     0.123 C 
BRANCH  16  17
HETATM   17  C8  UNL     1      -6.286   4.020  14.966  1.00  0.00     0.050 C 
BRANCH  17  18
HETATM   18  C9  UNL     1      -6.467   3.540  16.388  1.00  0.00     0.273 C 
BRANCH  18  19
HETATM   19  N5  UNL     1      -6.275   2.103  16.358  1.00  0.00     0.080 N 
HETATM   20  C10 UNL     1      -7.168   1.397  17.240  1.00  0.00     0.309 C 
HETATM   21  C11 UNL     1      -4.892   1.734  16.550  1.00  0.00     0.309 C 
ENDBRANCH  18  19
ENDBRANCH  17  18
ENDBRANCH  16  17
ENDBRANCH  12  16
ENDBRANCH   3   6
TORSDOF 5
ENDMDL
MODEL 2
REMARK VINA RESULT: -5.749719244      2.454      4.255
REMARK  5 active torsions:
REMARK  status: ('A' for Active; 'I' for Inactive)
REMARK    1  A    between atoms: C3_3  and  C5_6 
REMARK    2  A    between atoms: N4_12  and  C7_14 
REMARK    3  A    between atoms: C7_14  and  C8_15 
REMARK    4  A    between atoms: C8_15  and  C9_16 
REMARK    5  A    between atoms: C9_16  and  N5_17 
ROOT
HETATM    1  C1  UNL     1      -3.233  -2.058  11.548  1.00  0.00     0.013 C 
HETATM    2  C2  UNL     1      -3.402  -0.886  11.333  1.00  0.00    -0.091 C 
HETATM    3  C3  UNL     1      -3.634   0.556  11.080  1.00  0.00     0.223 C 
HETATM    4  C4  UNL     1      -2.457   1.178  10.496  1.00  0.00     0.083 C 
HETATM    5  N1  UNL     1      -1.525   1.666  10.028  1.00  0.00    -0.196 NA
ENDROOT
BRANCH   3   6
HETATM    6  C5  UNL     1      -4.031   1.164  12.341  1.00  0.00     0.076 A 
HETATM    7  N2  UNL     1      -4.091   0.510  13.513  1.00  0.00    -0.299 N 
HETATM    8  N3  UNL     1      -4.476   1.294  14.473  1.00  0.00    -0.284 N 
ATOM      9  H2  UNL     1      -3.863  -0.477  13.633  1.00  0.00     0.186 HD
HETATM   10  C6  UNL     1      -4.702   2.563  13.971  1.00  0.00     0.135 A 
ATOM     11  H3  UNL     1      -4.594   1.017  15.448  1.00  0.00     0.188 HD
HETATM   12  N4  UNL     1      -5.081   3.536  14.639  1.00  0.00    -0.374 N 
HETATM   13  C12 UNL     1      -4.418   2.460  12.639  1.00  0.00     0.082 A 
ATOM     14  H4  UNL     1      -5.201   3.263  15.614  1.00  0.00     0.161 HD
HETATM   15 BR1  UNL     1      -4.499   3.784  11.302  1.00  0.00    -0.045 Br
BRANCH  12  16
HETATM   16  C7  UNL     1      -5.392   4.871  14.484  1.00  0.00     0.123 C 
BRANCH  16  17
HETATM   17  C8  UNL     1      -4.266   5.795  14.966  1.00  0.00     0.050 C 
BRANCH  17  18
HETATM   18  C9  UNL     1      -3.531   6.440  13.813  1.00  0.00     0.273 C 
BRANCH  18  19
HETATM   19  N5  UNL     1      -2.119   6.236  14.068  1.00  0.00     0.080 N 
HETATM   20  C10 UNL     1      -1.290   7.275  13.512  1.00  0.00     0.309 C 
HETATM   21  C11 UNL     1      -1.682   4.912  13.690  1.00  0.00     0.309 C 
ENDBRANCH  18  19
ENDBRANCH  17  18
ENDBRANCH  16  17
ENDBRANCH  12  16
ENDBRANCH   3   6
TORSDOF 5
ENDMDL
MODEL 3
REMARK VINA RESULT: -5.739320237      2.732      4.225
REMARK  5 active torsions:
REMARK  status: ('A' for Active; 'I' for Inactive)
REMARK    1  A    between atoms: C3_3  and  C5_6 
REMARK    2  A    between atoms: N4_12  and  C7_14 
REMARK    3  A    between atoms: C7_14  and  C8_15 
REMARK    4  A    between atoms: C8_15  and  C9_16 
REMARK    5  A    between atoms: C9_16  and  N5_17 
ROOT
HETATM    1  C1  UNL     1      -3.208  -2.293  11.533  1.00  0.00     0.013 C 
HETATM    2  C2  UNL     1      -3.413  -1.118  11.375  1.00  0.00    -0.091 C 
HETATM    3  C3  UNL     1      -3.690   0.327  11.192  1.00  0.00     0.223 C 
HETATM    4  C4  UNL     1      -2.550   1.004  10.595  1.00  0.00     0.083 C 
HETATM    5  N1  UNL     1      -1.648   1.535  10.117  1.00  0.00    -0.196 NA
ENDROOT
BRANCH   3   6
HETATM    6  C5  UNL     1      -4.057   0.871  12.491  1.00  0.00     0.076 A 
HETATM    7  N2  UNL     1      -4.107   0.155  13.627  1.00  0.00    -0.299 N 
HETATM    8  N3  UNL     1      -4.464   0.891  14.634  1.00  0.00    -0.284 N 
ATOM      9  H2  UNL     1      -3.892  -0.840  13.689  1.00  0.00     0.186 HD
HETATM   10  C6  UNL     1      -4.679   2.189  14.206  1.00  0.00     0.135 A 
ATOM     11  H3  UNL     1      -4.570   0.563  15.594  1.00  0.00     0.188 HD
HETATM   12  N4  UNL     1      -5.032   3.130  14.932  1.00  0.00    -0.374 N 
HETATM   13  C12 UNL     1      -4.420   2.154  12.866  1.00  0.00     0.082 A 
ATOM     14  H4  UNL     1      -5.141   2.805  15.893  1.00  0.00     0.161 HD
HETATM   15 BR1  UNL     1      -4.503   3.550  11.604  1.00  0.00    -0.045 Br
BRANCH  12  16
HETATM   16  C7  UNL     1      -5.326   4.475  14.855  1.00  0.00     0.123 C 
BRANCH  16  17
HETATM   17  C8  UNL     1      -4.070   5.354  14.930  1.00  0.00     0.050 C 
BRANCH  17  18
HETATM   18  C9  UNL     1      -4.413   6.812  15.137  1.00  0.00     0.273 C 
BRANCH  18  19
HETATM   19  N5  UNL     1      -5.507   7.102  14.231  1.00  0.00     0.080 N 
HETATM   20  C10 UNL     1      -5.063   7.552  12.937  1.00  0.00     0.309 C 
HETATM   21  C11 UNL     1      -6.485   7.985  14.823  1.00  0.00     0.309 C 
ENDBRANCH  18  19
ENDBRANCH  17  18
ENDBRANCH  16  17
ENDBRANCH  12  16
ENDBRANCH   3   6
TORSDOF 5
ENDMDL
MODEL 4
REMARK VINA RESULT: -5.716187085      3.341      6.476
REMARK  5 active torsions:
REMARK  status: ('A' for Active; 'I' for Inactive)
REMARK    1  A    between atoms: C3_3  and  C5_6 
REMARK    2  A    between atoms: N4_12  and  C7_14 
REMARK    3  A    between atoms: C7_14  and  C8_15 
REMARK    4  A    between atoms: C8_15  and  C9_16 
REMARK    5  A    between atoms: C9_16  and  N5_17 
ROOT
HETATM    1  C1  UNL     1      -6.294   2.558  18.564  1.00  0.00     0.013 C 
HETATM    2  C2  UNL     1      -5.985   2.324  17.424  1.00  0.00    -0.091 C 
HETATM    3  C3  UNL     1      -5.610   2.062  16.014  1.00  0.00     0.223 C 
HETATM    4  C4  UNL     1      -5.136   0.698  15.846  1.00  0.00     0.083 C 
HETATM    5  N1  UNL     1      -4.768  -0.384  15.716  1.00  0.00    -0.196 NA
ENDROOT
BRANCH   3   6
HETATM    6  C5  UNL     1      -4.621   3.058  15.631  1.00  0.00     0.076 A 
HETATM    7  N2  UNL     1      -3.292   2.859  15.663  1.00  0.00    -0.299 N 
HETATM    8  N3  UNL     1      -2.647   3.914  15.270  1.00  0.00    -0.284 N 
ATOM      9  H2  UNL     1      -2.848   1.991  15.958  1.00  0.00     0.186 HD
HETATM   10  C6  UNL     1      -3.547   4.912  14.942  1.00  0.00     0.135 A 
ATOM     11  H3  UNL     1      -1.632   3.996  15.212  1.00  0.00     0.188 HD
HETATM   12  N4  UNL     1      -3.240   6.043  14.535  1.00  0.00    -0.374 N 
HETATM   13  C12 UNL     1      -4.773   4.358  15.175  1.00  0.00     0.082 A 
ATOM     14  H4  UNL     1      -2.226   6.128  14.477  1.00  0.00     0.161 HD
HETATM   15 BR1  UNL     1      -6.482   5.119  14.956  1.00  0.00    -0.045 Br
BRANCH  12  16
HETATM   16  C7  UNL     1      -3.834   7.221  14.135  1.00  0.00     0.123 C 
BRANCH  16  17
HETATM   17  C8  UNL     1      -3.469   8.400  15.047  1.00  0.00     0.050 C 
BRANCH  17  18
HETATM   18  C9  UNL     1      -1.988   8.444  15.348  1.00  0.00     0.273 C 
BRANCH  18  19
HETATM   19  N5  UNL     1      -1.636   9.847  15.443  1.00  0.00     0.080 N 
HETATM   20  C10 UNL     1      -2.344  10.671  14.498  1.00  0.00     0.309 C 
HETATM   21  C11 UNL     1      -0.206  10.055  15.403  1.00  0.00     0.309 C 
ENDBRANCH  18  19
ENDBRANCH  17  18
ENDBRANCH  16  17
ENDBRANCH  12  16
ENDBRANCH   3   6
TORSDOF 5
ENDMDL
MODEL 5
REMARK VINA RESULT: -5.684519606      1.767      6.687
REMARK  5 active torsions:
REMARK  status: ('A' for Active; 'I' for Inactive)
REMARK    1  A    between atoms: C3_3  and  C5_6 
REMARK    2  A    between atoms: N4_12  and  C7_14 
REMARK    3  A    between atoms: C7_14  and  C8_15 
REMARK    4  A    between atoms: C8_15  and  C9_16 
REMARK    5  A    between atoms: C9_16  and  N5_17 
ROOT
HETATM    1  C1  UNL     1      -6.653   3.928  16.415  1.00  0.00     0.013 C 
HETATM    2  C2  UNL     1      -5.981   3.166  15.769  1.00  0.00    -0.091 C 
HETATM    3  C3  UNL     1      -5.159   2.242  14.952  1.00  0.00     0.223 C 
HETATM    4  C4  UNL     1      -4.531   1.229  15.785  1.00  0.00     0.083 C 
HETATM    5  N1  UNL     1      -4.040   0.426  16.447  1.00  0.00    -0.196 NA
ENDROOT
BRANCH   3   6
HETATM    6  C5  UNL     1      -4.198   3.047  14.214  1.00  0.00     0.076 A 
HETATM    7  N2  UNL     1      -3.371   3.945  14.775  1.00  0.00    -0.299 N 
HETATM    8  N3  UNL     1      -2.622   4.519  13.884  1.00  0.00    -0.284 N 
ATOM      9  H2  UNL     1      -3.336   4.150  15.773  1.00  0.00     0.186 HD
HETATM   10  C6  UNL     1      -2.922   4.013  12.632  1.00  0.00     0.135 A 
ATOM     11  H3  UNL     1      -1.920   5.233  14.077  1.00  0.00     0.188 HD
HETATM   12  N4  UNL     1      -2.379   4.362  11.573  1.00  0.00    -0.374 N 
HETATM   13  C12 UNL     1      -3.908   3.096  12.860  1.00  0.00     0.082 A 
ATOM     14  H4  UNL     1      -1.677   5.078  11.762  1.00  0.00     0.161 HD
HETATM   15 BR1  UNL     1      -4.821   2.002  11.629  1.00  0.00    -0.045 Br
BRANCH  12  16
HETATM   16  C7  UNL     1      -2.421   4.092  10.222  1.00  0.00     0.123 C 
BRANCH  16  17
HETATM   17  C8  UNL     1      -1.168   3.352   9.733  1.00  0.00     0.050 C 
BRANCH  17  18
HETATM   18  C9  UNL     1      -0.089   4.309   9.278  1.00  0.00     0.273 C 
BRANCH  18  19
HETATM   19  N5  UNL     1       1.112   3.935   9.999  1.00  0.00     0.080 N 
HETATM   20  C10 UNL     1       1.146   4.451  11.343  1.00  0.00     0.309 C 
HETATM   21  C11 UNL     1       2.312   4.239   9.253  1.00  0.00     0.309 C 
ENDBRANCH  18  19
ENDBRANCH  17  18
ENDBRANCH  16  17
ENDBRANCH  12  16
ENDBRANCH   3   6
TORSDOF 5
ENDMDL
