MODEL 1
REMARK VINA RESULT: -6.714865368      0.000      0.000
REMARK  5 active torsions:
REMARK  status: ('A' for Active; 'I' for Inactive)
REMARK    1  A    between atoms: C3_3  and  N1_4 
REMARK    2  A    between atoms: C6_7  and  C8_9 
REMARK       I    between atoms: C8_9  and  N2_11 
REMARK    3  A    between atoms: N2_11  and  C9_12 
REMARK    4  A    between atoms: C9_12  and  C10_13 
REMARK    5  A    between atoms: C10_13  and  O2_14 
ROOT
HETATM    1  C1  UNL     1      -2.513   4.986   9.608  1.00  0.00     0.013 C 
HETATM    2  C2  UNL     1      -2.967   4.988  10.723  1.00  0.00    -0.087 C 
HETATM    3  C3  UNL     1      -3.478   5.014  12.076  1.00  0.00     0.366 C 
ENDROOT
BRANCH   3   4
HETATM    4  N1  UNL     1      -3.198   3.948  12.948  1.00  0.00     0.110 N 
HETATM    5  C4  UNL     1      -2.753   4.638  14.200  1.00  0.00     0.276 C 
HETATM    6  C5  UNL     1      -4.042   4.771  14.904  1.00  0.00     0.053 C 
HETATM    7  C6  UNL     1      -4.533   3.316  14.829  1.00  0.00     0.088 C 
HETATM    8  C7  UNL     1      -3.750   2.604  15.858  1.00  0.00     0.029 C 
HETATM    9  C11 UNL     1      -4.196   3.043  13.376  1.00  0.00     0.180 C 
HETATM   10  C12 UNL     1      -5.374   2.820  12.501  1.00  0.00     0.046 C 
HETATM   11  C15 UNL     1      -3.650   1.592  13.401  1.00  0.00     0.085 C 
HETATM   12  C13 UNL     1      -5.080   1.647  11.567  1.00  0.00     0.045 C 
HETATM   13  C14 UNL     1      -3.835   1.001  12.036  1.00  0.00     0.116 C 
HETATM   14 CL1  UNL     1      -4.157  -0.757  12.248  1.00  0.00    -0.102 Cl
HETATM   15 CL2  UNL     1      -2.441   1.132  10.999  1.00  0.00    -0.102 Cl
BRANCH   7  16
HETATM   16  C8  UNL     1      -6.012   3.320  15.126  1.00  0.00     0.302 C 
HETATM   17  O1  UNL     1      -6.611   4.212  14.446  1.00  0.00    -0.256 OA
HETATM   18  N2  UNL     1      -6.623   2.464  16.008  1.00  0.00    -0.385 NA
BRANCH  18  19
HETATM   19  C9  UNL     1      -7.231   1.611  16.888  1.00  0.00     0.184 C 
BRANCH  19  20
HETATM   20  C10 UNL     1      -6.326   0.551  17.553  1.00  0.00     0.223 C 
BRANCH  20  21
HETATM   21  O2  UNL     1      -5.812  -0.203  16.520  1.00  0.00    -0.395 OA
ATOM     22  H2  UNL     1      -5.798  -1.098  16.837  1.00  0.00     0.209 HD
ENDBRANCH  20  21
ENDBRANCH  19  20
ENDBRANCH  18  19
ENDBRANCH   7  16
ENDBRANCH   3   4
TORSDOF 5
ENDMDL
MODEL 2
REMARK VINA RESULT: -6.565208426      3.396      5.134
REMARK  5 active torsions:
REMARK  status: ('A' for Active; 'I' for Inactive)
REMARK    1  A    between atoms: C3_3  and  N1_4 
REMARK    2  A    between atoms: C6_7  and  C8_9 
REMARK       I    between atoms: C8_9  and  N2_11 
REMARK    3  A    between atoms: N2_11  and  C9_12 
REMARK    4  A    between atoms: C9_12  and  C10_13 
REMARK    5  A    between atoms: C10_13  and  O2_14 
ROOT
HETATM    1  C1  UNL     1      -1.721   8.779  15.612  1.00  0.00     0.013 C 
HETATM    2  C2  UNL     1      -1.587   7.931  14.769  1.00  0.00    -0.087 C 
HETATM    3  C3  UNL     1      -1.414   6.942  13.727  1.00  0.00     0.366 C 
ENDROOT
BRANCH   3   4
HETATM    4  N1  UNL     1      -2.518   6.543  12.954  1.00  0.00     0.110 N 
HETATM    5  C4  UNL     1      -2.023   6.688  11.549  1.00  0.00     0.276 C 
HETATM    6  C5  UNL     1      -1.474   5.338  11.319  1.00  0.00     0.053 C 
HETATM    7  C6  UNL     1      -2.683   4.488  11.741  1.00  0.00     0.088 C 
HETATM    8  C7  UNL     1      -3.621   4.581  10.605  1.00  0.00     0.029 C 
HETATM    9  C11 UNL     1      -3.044   5.231  13.013  1.00  0.00     0.180 C 
HETATM   10  C12 UNL     1      -2.858   4.448  14.259  1.00  0.00     0.046 C 
HETATM   11  C15 UNL     1      -4.594   5.258  12.986  1.00  0.00     0.085 C 
HETATM   12  C13 UNL     1      -4.056   4.688  15.176  1.00  0.00     0.045 C 
HETATM   13  C14 UNL     1      -5.081   5.413  14.394  1.00  0.00     0.116 C 
HETATM   14 CL1  UNL     1      -6.635   4.514  14.531  1.00  0.00    -0.102 Cl
HETATM   15 CL2  UNL     1      -5.414   7.058  14.865  1.00  0.00    -0.102 Cl
BRANCH   7  16
HETATM   16  C8  UNL     1      -2.191   3.081  11.972  1.00  0.00     0.302 C 
HETATM   17  O1  UNL     1      -0.921   3.042  12.004  1.00  0.00    -0.256 OA
HETATM   18  N2  UNL     1      -3.014   1.994  12.133  1.00  0.00    -0.385 NA
BRANCH  18  19
HETATM   19  C9  UNL     1      -3.835   0.910  12.292  1.00  0.00     0.184 C 
BRANCH  19  20
HETATM   20  C10 UNL     1      -4.909   0.698  11.204  1.00  0.00     0.223 C 
BRANCH  20  21
HETATM   21  O2  UNL     1      -5.746   1.790  11.286  1.00  0.00    -0.395 OA
ATOM     22  H2  UNL     1      -6.185   1.715  12.126  1.00  0.00     0.209 HD
ENDBRANCH  20  21
ENDBRANCH  19  20
ENDBRANCH  18  19
ENDBRANCH   7  16
ENDBRANCH   3   4
TORSDOF 5
ENDMDL
MODEL 3
REMARK VINA RESULT: -6.508363471      3.723      5.302
REMARK  5 active torsions:
REMARK  status: ('A' for Active; 'I' for Inactive)
REMARK    1  A    between atoms: C3_3  and  N1_4 
REMARK    2  A    between atoms: C6_7  and  C8_9 
REMARK       I    between atoms: C8_9  and  N2_11 
REMARK    3  A    between atoms: N2_11  and  C9_12 
REMARK    4  A    between atoms: C9_12  and  C10_13 
REMARK    5  A    between atoms: C10_13  and  O2_14 
ROOT
HETATM    1  C1  UNL     1      -7.555   8.268  13.152  1.00  0.00     0.013 C 
HETATM    2  C2  UNL     1      -7.268   7.131  13.422  1.00  0.00    -0.087 C 
HETATM    3  C3  UNL     1      -6.949   5.767  13.782  1.00  0.00     0.366 C 
ENDROOT
BRANCH   3   4
HETATM    4  N1  UNL     1      -5.828   5.500  14.587  1.00  0.00     0.110 N 
HETATM    5  C4  UNL     1      -6.218   4.251  15.313  1.00  0.00     0.276 C 
HETATM    6  C5  UNL     1      -5.695   3.229  14.387  1.00  0.00     0.053 C 
HETATM    7  C6  UNL     1      -4.253   3.738  14.223  1.00  0.00     0.088 C 
HETATM    8  C7  UNL     1      -3.571   3.330  15.467  1.00  0.00     0.029 C 
HETATM    9  C11 UNL     1      -4.558   5.212  14.038  1.00  0.00     0.180 C 
HETATM   10  C12 UNL     1      -4.228   5.746  12.694  1.00  0.00     0.046 C 
HETATM   11  C15 UNL     1      -3.436   5.913  14.848  1.00  0.00     0.085 C 
HETATM   12  C13 UNL     1      -3.558   7.110  12.857  1.00  0.00     0.045 C 
HETATM   13  C14 UNL     1      -3.256   7.294  14.293  1.00  0.00     0.116 C 
HETATM   14 CL1  UNL     1      -1.513   7.717  14.453  1.00  0.00    -0.102 Cl
HETATM   15 CL2  UNL     1      -4.150   8.531  15.133  1.00  0.00    -0.102 Cl
BRANCH   7  16
HETATM   16  C8  UNL     1      -3.674   3.073  13.000  1.00  0.00     0.302 C 
HETATM   17  O1  UNL     1      -2.417   3.252  12.936  1.00  0.00    -0.256 OA
HETATM   18  N2  UNL     1      -4.412   2.364  12.085  1.00  0.00    -0.385 NA
BRANCH  18  19
HETATM   19  C9  UNL     1      -5.149   1.657  11.174  1.00  0.00     0.184 C 
BRANCH  19  20
HETATM   20  C10 UNL     1      -4.589   0.279  10.759  1.00  0.00     0.223 C 
BRANCH  20  21
HETATM   21  O2  UNL     1      -4.438   0.334   9.390  1.00  0.00    -0.395 OA
ATOM     22  H2  UNL     1      -3.854  -0.382   9.167  1.00  0.00     0.209 HD
ENDBRANCH  20  21
ENDBRANCH  19  20
ENDBRANCH  18  19
ENDBRANCH   7  16
ENDBRANCH   3   4
TORSDOF 5
ENDMDL
MODEL 4
REMARK VINA RESULT: -6.481676960      3.627      5.332
REMARK  5 active torsions:
REMARK  status: ('A' for Active; 'I' for Inactive)
REMARK    1  A    between atoms: C3_3  and  N1_4 
REMARK    2  A    between atoms: C6_7  and  C8_9 
REMARK       I    between atoms: C8_9  and  N2_11 
REMARK    3  A    between atoms: N2_11  and  C9_12 
REMARK    4  A    between atoms: C9_12  and  C10_13 
REMARK    5  A    between atoms: C10_13  and  O2_14 
ROOT
HETATM    1  C1  UNL     1      -7.311   8.677  13.085  1.00  0.00     0.013 C 
HETATM    2  C2  UNL     1      -7.163   7.527  13.409  1.00  0.00    -0.087 C 
HETATM    3  C3  UNL     1      -7.007   6.154  13.836  1.00  0.00     0.366 C 
ENDROOT
BRANCH   3   4
HETATM    4  N1  UNL     1      -5.830   5.757  14.494  1.00  0.00     0.110 N 
HETATM    5  C4  UNL     1      -6.303   4.686  15.427  1.00  0.00     0.276 C 
HETATM    6  C5  UNL     1      -6.134   3.495  14.574  1.00  0.00     0.053 C 
HETATM    7  C6  UNL     1      -4.675   3.694  14.132  1.00  0.00     0.088 C 
HETATM    8  C7  UNL     1      -3.871   3.289  15.302  1.00  0.00     0.029 C 
HETATM    9  C11 UNL     1      -4.742   5.173  13.804  1.00  0.00     0.180 C 
HETATM   10  C12 UNL     1      -4.558   5.495  12.367  1.00  0.00     0.046 C 
HETATM   11  C15 UNL     1      -3.394   5.721  14.338  1.00  0.00     0.085 C 
HETATM   12  C13 UNL     1      -3.641   6.712  12.249  1.00  0.00     0.045 C 
HETATM   13  C14 UNL     1      -3.071   6.977  13.587  1.00  0.00     0.116 C 
HETATM   14 CL1  UNL     1      -1.280   7.067  13.429  1.00  0.00    -0.102 Cl
HETATM   15 CL2  UNL     1      -3.577   8.443  14.383  1.00  0.00    -0.102 Cl
BRANCH   7  16
HETATM   16  C8  UNL     1      -4.438   2.810  12.933  1.00  0.00     0.302 C 
HETATM   17  O1  UNL     1      -5.519   2.259  12.553  1.00  0.00    -0.256 OA
HETATM   18  N2  UNL     1      -3.216   2.636  12.333  1.00  0.00    -0.385 NA
BRANCH  18  19
HETATM   19  C9  UNL     1      -1.997   2.462  11.736  1.00  0.00     0.184 C 
BRANCH  19  20
HETATM   20  C10 UNL     1      -1.837   1.202  10.859  1.00  0.00     0.223 C 
BRANCH  20  21
HETATM   21  O2  UNL     1      -1.510   1.662   9.601  1.00  0.00    -0.395 OA
ATOM     22  H2  UNL     1      -0.560   1.678   9.572  1.00  0.00     0.209 HD
ENDBRANCH  20  21
ENDBRANCH  19  20
ENDBRANCH  18  19
ENDBRANCH   7  16
ENDBRANCH   3   4
TORSDOF 5
ENDMDL
MODEL 5
REMARK VINA RESULT: -6.388956538      2.057      2.672
REMARK  5 active torsions:
REMARK  status: ('A' for Active; 'I' for Inactive)
REMARK    1  A    between atoms: C3_3  and  N1_4 
REMARK    2  A    between atoms: C6_7  and  C8_9 
REMARK       I    between atoms: C8_9  and  N2_11 
REMARK    3  A    between atoms: N2_11  and  C9_12 
REMARK    4  A    between atoms: C9_12  and  C10_13 
REMARK    5  A    between atoms: C10_13  and  O2_14 
ROOT
HETATM    1  C1  UNL     1      -7.109   8.017  12.978  1.00  0.00     0.013 C 
HETATM    2  C2  UNL     1      -6.764   6.876  13.146  1.00  0.00    -0.087 C 
HETATM    3  C3  UNL     1      -6.352   5.511  13.390  1.00  0.00     0.366 C 
ENDROOT
BRANCH   3   4
HETATM    4  N1  UNL     1      -4.983   5.193  13.442  1.00  0.00     0.110 N 
HETATM    5  C4  UNL     1      -4.473   6.061  14.550  1.00  0.00     0.276 C 
HETATM    6  C5  UNL     1      -4.645   5.154  15.700  1.00  0.00     0.053 C 
HETATM    7  C6  UNL     1      -3.929   3.905  15.160  1.00  0.00     0.088 C 
HETATM    8  C7  UNL     1      -2.491   4.214  15.289  1.00  0.00     0.029 C 
HETATM    9  C11 UNL     1      -4.523   3.896  13.764  1.00  0.00     0.180 C 
HETATM   10  C12 UNL     1      -5.406   2.738  13.478  1.00  0.00     0.046 C 
HETATM   11  C15 UNL     1      -3.323   3.498  12.866  1.00  0.00     0.085 C 
HETATM   12  C13 UNL     1      -5.096   2.216  12.076  1.00  0.00     0.045 C 
HETATM   13  C14 UNL     1      -3.865   2.890  11.608  1.00  0.00     0.116 C 
HETATM   14 CL1  UNL     1      -2.699   1.626  11.074  1.00  0.00    -0.102 Cl
HETATM   15 CL2  UNL     1      -4.033   4.006  10.281  1.00  0.00    -0.102 Cl
BRANCH   7  16
HETATM   16  C8  UNL     1      -4.349   2.735  16.013  1.00  0.00     0.302 C 
HETATM   17  O1  UNL     1      -3.398   1.902  16.144  1.00  0.00    -0.256 OA
HETATM   18  N2  UNL     1      -5.594   2.600  16.576  1.00  0.00    -0.385 NA
BRANCH  18  19
HETATM   19  C9  UNL     1      -6.835   2.465  17.137  1.00  0.00     0.184 C 
BRANCH  19  20
HETATM   20  C10 UNL     1      -7.388   1.028  17.240  1.00  0.00     0.223 C 
BRANCH  20  21
HETATM   21  O2  UNL     1      -6.391   0.208  16.756  1.00  0.00    -0.395 OA
ATOM     22  H2  UNL     1      -6.139   0.578  15.918  1.00  0.00     0.209 HD
ENDBRANCH  20  21
ENDBRANCH  19  20
ENDBRANCH  18  19
ENDBRANCH   7  16
ENDBRANCH   3   4
TORSDOF 5
ENDMDL
