MODEL 1
REMARK VINA RESULT: -6.674632224      0.000      0.000
REMARK  6 active torsions:
REMARK  status: ('A' for Active; 'I' for Inactive)
REMARK    1  A    between atoms: C3_4  and  C4_5 
REMARK    2  A    between atoms: C4_5  and  N1_6 
REMARK    3  A    between atoms: C8_10  and  N2_11 
REMARK    4  A    between atoms: N2_11  and  C9_13 
REMARK    5  A    between atoms: C9_13  and  N3_15 
REMARK       I    between atoms: N3_15  and  C10_17 
REMARK    6  A    between atoms: C10_17  and  C11_19 
ROOT
HETATM    1  N1  UNL     1      -5.189   2.992  14.721  1.00  0.00    -0.348 N 
HETATM    2  C5  UNL     1      -4.006   3.238  15.439  1.00  0.00     0.068 C 
HETATM    3  C6  UNL     1      -3.157   4.314  14.808  1.00  0.00     0.047 C 
HETATM    4  C7  UNL     1      -3.127   4.340  13.338  1.00  0.00     0.036 C 
HETATM    5  C8  UNL     1      -4.292   3.820  12.583  1.00  0.00     0.123 C 
HETATM    6  C12 UNL     1      -5.084   2.824  13.342  1.00  0.00     0.093 C 
ENDROOT
BRANCH   5   7
HETATM    7  N2  UNL     1      -3.817   3.217  11.328  1.00  0.00    -0.358 N 
ATOM      8  H2  UNL     1      -4.182   3.601  10.457  1.00  0.00     0.162 HD
BRANCH   7   9
HETATM    9  C9  UNL     1      -2.906   2.160  11.233  1.00  0.00     0.174 C 
HETATM   10  S1  UNL     1      -1.420   2.491  10.553  1.00  0.00    -0.041 SA
BRANCH   9  11
HETATM   11  N3  UNL     1      -3.114   0.836  11.637  1.00  0.00    -0.303 N 
HETATM   12  C10 UNL     1      -4.193  -0.009  11.300  1.00  0.00     0.237 C 
HETATM   13  O1  UNL     1      -5.113   0.363  10.568  1.00  0.00    -0.272 OA
ATOM     14  H3  UNL     1      -2.402   0.434  12.247  1.00  0.00     0.171 HD
BRANCH  12  15
HETATM   15  C11 UNL     1      -4.255  -1.417  11.834  1.00  0.00     0.217 C 
HETATM   16 CL2  UNL     1      -2.759  -2.238  11.373  1.00  0.00    -0.121 Cl
ENDBRANCH  12  15
ENDBRANCH   9  11
ENDBRANCH   7   9
ENDBRANCH   5   7
BRANCH   1  17
HETATM   17  C4  UNL     1      -6.407   3.325  15.327  1.00  0.00     0.096 C 
BRANCH  17  18
HETATM   18  C3  UNL     1      -6.235   3.293  16.828  1.00  0.00     0.036 C 
HETATM   19  C2  UNL     1      -6.670   2.325  17.601  1.00  0.00     0.009 C 
HETATM   20  C1  UNL     1      -7.395   1.121  17.118  1.00  0.00     0.062 C 
HETATM   21 CL1  UNL     1      -6.390   2.437  19.328  1.00  0.00    -0.089 Cl
ENDBRANCH  17  18
ENDBRANCH   1  17
TORSDOF 6
ENDMDL
MODEL 2
REMARK VINA RESULT: -6.448705186      3.597      7.098
REMARK  6 active torsions:
REMARK  status: ('A' for Active; 'I' for Inactive)
REMARK    1  A    between atoms: C3_4  and  C4_5 
REMARK    2  A    between atoms: C4_5  and  N1_6 
REMARK    3  A    between atoms: C8_10  and  N2_11 
REMARK    4  A    between atoms: N2_11  and  C9_13 
REMARK    5  A    between atoms: C9_13  and  N3_15 
REMARK       I    between atoms: N3_15  and  C10_17 
REMARK    6  A    between atoms: C10_17  and  C11_19 
ROOT
HETATM    1  N1  UNL     1      -1.780   2.167  11.176  1.00  0.00    -0.348 N 
HETATM    2  C5  UNL     1      -1.985   0.777  11.237  1.00  0.00     0.068 C 
HETATM    3  C6  UNL     1      -3.403   0.414  11.600  1.00  0.00     0.047 C 
HETATM    4  C7  UNL     1      -4.066   1.285  12.582  1.00  0.00     0.036 C 
HETATM    5  C8  UNL     1      -3.645   2.702  12.692  1.00  0.00     0.123 C 
HETATM    6  C12 UNL     1      -2.254   2.936  12.237  1.00  0.00     0.093 C 
ENDROOT
BRANCH   5   7
HETATM    7  N2  UNL     1      -3.782   3.135  14.091  1.00  0.00    -0.358 N 
ATOM      8  H2  UNL     1      -2.923   3.308  14.614  1.00  0.00     0.162 HD
BRANCH   7   9
HETATM    9  C9  UNL     1      -4.993   3.328  14.763  1.00  0.00     0.174 C 
HETATM   10  S1  UNL     1      -5.808   4.754  14.475  1.00  0.00    -0.041 SA
BRANCH   9  11
HETATM   11  N3  UNL     1      -5.596   2.451  15.673  1.00  0.00    -0.303 N 
HETATM   12  C10 UNL     1      -4.975   1.434  16.429  1.00  0.00     0.237 C 
HETATM   13  O1  UNL     1      -3.765   1.209  16.358  1.00  0.00    -0.272 OA
ATOM     14  H3  UNL     1      -6.601   2.560  15.805  1.00  0.00     0.171 HD
BRANCH  12  15
HETATM   15  C11 UNL     1      -5.788   0.577  17.366  1.00  0.00     0.217 C 
HETATM   16 CL2  UNL     1      -7.472   1.100  17.257  1.00  0.00    -0.121 Cl
ENDBRANCH  12  15
ENDBRANCH   9  11
ENDBRANCH   7   9
ENDBRANCH   5   7
BRANCH   1  17
HETATM   17  C4  UNL     1      -1.499   2.735   9.927  1.00  0.00     0.096 C 
BRANCH  17  18
HETATM   18  C3  UNL     1      -0.169   3.448   9.997  1.00  0.00     0.036 C 
HETATM   19  C2  UNL     1       0.463   3.938   8.955  1.00  0.00     0.009 C 
HETATM   20  C1  UNL     1      -0.034   3.864   7.556  1.00  0.00     0.062 C 
HETATM   21 CL1  UNL     1       2.001   4.740   9.205  1.00  0.00    -0.089 Cl
ENDBRANCH  17  18
ENDBRANCH   1  17
TORSDOF 6
ENDMDL
MODEL 3
REMARK VINA RESULT: -6.347784822      3.225      6.710
REMARK  6 active torsions:
REMARK  status: ('A' for Active; 'I' for Inactive)
REMARK    1  A    between atoms: C3_4  and  C4_5 
REMARK    2  A    between atoms: C4_5  and  N1_6 
REMARK    3  A    between atoms: C8_10  and  N2_11 
REMARK    4  A    between atoms: N2_11  and  C9_13 
REMARK    5  A    between atoms: C9_13  and  N3_15 
REMARK       I    between atoms: N3_15  and  C10_17 
REMARK    6  A    between atoms: C10_17  and  C11_19 
ROOT
HETATM    1  N1  UNL     1      -2.044   1.348  10.732  1.00  0.00    -0.348 N 
HETATM    2  C5  UNL     1      -2.628   0.281  10.027  1.00  0.00     0.068 C 
HETATM    3  C6  UNL     1      -4.135   0.292  10.099  1.00  0.00     0.047 C 
HETATM    4  C7  UNL     1      -4.721   0.718  11.378  1.00  0.00     0.036 C 
HETATM    5  C8  UNL     1      -3.961   1.648  12.248  1.00  0.00     0.123 C 
HETATM    6  C12 UNL     1      -2.497   1.589  12.028  1.00  0.00     0.093 C 
ENDROOT
BRANCH   5   7
HETATM    7  N2  UNL     1      -4.258   1.338  13.655  1.00  0.00    -0.358 N 
ATOM      8  H2  UNL     1      -4.090   0.383  13.969  1.00  0.00     0.162 HD
BRANCH   7   9
HETATM    9  C9  UNL     1      -4.753   2.246  14.596  1.00  0.00     0.174 C 
HETATM   10  S1  UNL     1      -4.604   3.870  14.244  1.00  0.00    -0.041 SA
BRANCH   9  11
HETATM   11  N3  UNL     1      -5.354   1.939  15.822  1.00  0.00    -0.303 N 
HETATM   12  C10 UNL     1      -5.473   0.671  16.429  1.00  0.00     0.237 C 
HETATM   13  O1  UNL     1      -5.027  -0.352  15.904  1.00  0.00    -0.272 OA
ATOM     14  H3  UNL     1      -5.754   2.723  16.337  1.00  0.00     0.171 HD
BRANCH  12  15
HETATM   15  C11 UNL     1      -6.161   0.524  17.762  1.00  0.00     0.217 C 
HETATM   16 CL2  UNL     1      -6.320   2.136  18.471  1.00  0.00    -0.121 Cl
ENDBRANCH  12  15
ENDBRANCH   9  11
ENDBRANCH   7   9
ENDBRANCH   5   7
BRANCH   1  17
HETATM   17  C4  UNL     1      -1.370   2.330   9.997  1.00  0.00     0.096 C 
BRANCH  17  18
HETATM   18  C3  UNL     1      -0.976   3.457  10.923  1.00  0.00     0.036 C 
HETATM   19  C2  UNL     1       0.134   4.151  10.813  1.00  0.00     0.009 C 
HETATM   20  C1  UNL     1       1.166   3.931   9.766  1.00  0.00     0.062 C 
HETATM   21 CL1  UNL     1       0.444   5.430  11.971  1.00  0.00    -0.089 Cl
ENDBRANCH  17  18
ENDBRANCH   1  17
TORSDOF 6
ENDMDL
MODEL 4
REMARK VINA RESULT: -6.346145902      2.548      5.777
REMARK  6 active torsions:
REMARK  status: ('A' for Active; 'I' for Inactive)
REMARK    1  A    between atoms: C3_4  and  C4_5 
REMARK    2  A    between atoms: C4_5  and  N1_6 
REMARK    3  A    between atoms: C8_10  and  N2_11 
REMARK    4  A    between atoms: N2_11  and  C9_13 
REMARK    5  A    between atoms: C9_13  and  N3_15 
REMARK       I    between atoms: N3_15  and  C10_17 
REMARK    6  A    between atoms: C10_17  and  C11_19 
ROOT
HETATM    1  N1  UNL     1      -3.309   2.863  11.575  1.00  0.00    -0.348 N 
HETATM    2  C5  UNL     1      -3.875   3.950  10.885  1.00  0.00     0.068 C 
HETATM    3  C6  UNL     1      -3.486   5.282  11.478  1.00  0.00     0.047 C 
HETATM    4  C7  UNL     1      -3.380   5.334  12.944  1.00  0.00     0.036 C 
HETATM    5  C8  UNL     1      -3.041   4.098  13.689  1.00  0.00     0.123 C 
HETATM    6  C12 UNL     1      -3.410   2.859  12.965  1.00  0.00     0.093 C 
ENDROOT
BRANCH   5   7
HETATM    7  N2  UNL     1      -3.719   4.124  14.994  1.00  0.00    -0.358 N 
ATOM      8  H2  UNL     1      -3.154   4.356  15.810  1.00  0.00     0.162 HD
BRANCH   7   9
HETATM    9  C9  UNL     1      -5.075   3.856  15.206  1.00  0.00     0.174 C 
HETATM   10  S1  UNL     1      -6.173   4.981  14.647  1.00  0.00    -0.041 SA
BRANCH   9  11
HETATM   11  N3  UNL     1      -5.618   2.742  15.856  1.00  0.00    -0.303 N 
HETATM   12  C10 UNL     1      -4.923   1.654  16.425  1.00  0.00     0.237 C 
HETATM   13  O1  UNL     1      -3.692   1.578  16.403  1.00  0.00    -0.272 OA
ATOM     14  H3  UNL     1      -6.635   2.713  15.928  1.00  0.00     0.171 HD
BRANCH  12  15
HETATM   15  C11 UNL     1      -5.677   0.530  17.088  1.00  0.00     0.217 C 
HETATM   16 CL2  UNL     1      -7.357   1.044  17.283  1.00  0.00    -0.121 Cl
ENDBRANCH  12  15
ENDBRANCH   9  11
ENDBRANCH   7   9
ENDBRANCH   5   7
BRANCH   1  17
HETATM   17  C4  UNL     1      -2.353   2.088  10.907  1.00  0.00     0.096 C 
BRANCH  17  18
HETATM   18  C3  UNL     1      -2.435   0.665  11.409  1.00  0.00     0.036 C 
HETATM   19  C2  UNL     1      -3.268  -0.237  10.943  1.00  0.00     0.009 C 
HETATM   20  C1  UNL     1      -4.254   0.007   9.858  1.00  0.00     0.062 C 
HETATM   21 CL1  UNL     1      -3.237  -1.847  11.634  1.00  0.00    -0.089 Cl
ENDBRANCH  17  18
ENDBRANCH   1  17
TORSDOF 6
ENDMDL
MODEL 5
REMARK VINA RESULT: -6.344216992      1.046      1.167
REMARK  6 active torsions:
REMARK  status: ('A' for Active; 'I' for Inactive)
REMARK    1  A    between atoms: C3_4  and  C4_5 
REMARK    2  A    between atoms: C4_5  and  N1_6 
REMARK    3  A    between atoms: C8_10  and  N2_11 
REMARK    4  A    between atoms: N2_11  and  C9_13 
REMARK    5  A    between atoms: C9_13  and  N3_15 
REMARK       I    between atoms: N3_15  and  C10_17 
REMARK    6  A    between atoms: C10_17  and  C11_19 
ROOT
HETATM    1  N1  UNL     1      -5.322   3.953  15.006  1.00  0.00    -0.348 N 
HETATM    2  C5  UNL     1      -5.352   5.355  14.914  1.00  0.00     0.068 C 
HETATM    3  C6  UNL     1      -5.257   5.847  13.491  1.00  0.00     0.047 C 
HETATM    4  C7  UNL     1      -4.372   5.085  12.598  1.00  0.00     0.036 C 
HETATM    5  C8  UNL     1      -4.136   3.647  12.870  1.00  0.00     0.123 C 
HETATM    6  C12 UNL     1      -4.331   3.281  14.292  1.00  0.00     0.093 C 
ENDROOT
BRANCH   5   7
HETATM    7  N2  UNL     1      -2.766   3.301  12.459  1.00  0.00    -0.358 N 
ATOM      8  H2  UNL     1      -2.016   3.924  12.757  1.00  0.00     0.162 HD
BRANCH   7   9
HETATM    9  C9  UNL     1      -2.409   2.188  11.691  1.00  0.00     0.174 C 
HETATM   10  S1  UNL     1      -1.374   2.444  10.408  1.00  0.00    -0.041 SA
BRANCH   9  11
HETATM   11  N3  UNL     1      -2.841   0.869  11.875  1.00  0.00    -0.303 N 
HETATM   12  C10 UNL     1      -4.030   0.279  11.398  1.00  0.00     0.237 C 
HETATM   13  O1  UNL     1      -4.853   0.908  10.729  1.00  0.00    -0.272 OA
ATOM     14  H3  UNL     1      -2.224   0.264  12.418  1.00  0.00     0.171 HD
BRANCH  12  15
HETATM   15  C11 UNL     1      -4.338  -1.167  11.698  1.00  0.00     0.217 C 
HETATM   16 CL2  UNL     1      -2.859  -2.100  11.442  1.00  0.00    -0.121 Cl
ENDBRANCH  12  15
ENDBRANCH   9  11
ENDBRANCH   7   9
ENDBRANCH   5   7
BRANCH   1  17
HETATM   17  C4  UNL     1      -6.480   3.299  15.445  1.00  0.00     0.096 C 
BRANCH  17  18
HETATM   18  C3  UNL     1      -6.488   3.273  16.956  1.00  0.00     0.036 C 
HETATM   19  C2  UNL     1      -6.375   2.182  17.677  1.00  0.00     0.009 C 
HETATM   20  C1  UNL     1      -6.223   0.813  17.118  1.00  0.00     0.062 C 
HETATM   21 CL1  UNL     1      -6.402   2.322  19.424  1.00  0.00    -0.089 Cl
ENDBRANCH  17  18
ENDBRANCH   1  17
TORSDOF 6
ENDMDL
