MODEL 1
REMARK VINA RESULT: -6.696484310      0.000      0.000
REMARK  6 active torsions:
REMARK  status: ('A' for Active; 'I' for Inactive)
REMARK    1  A    between atoms: C2_2  and  O1_3 
REMARK    2  A    between atoms: C2_2  and  C3_5 
REMARK    3  A    between atoms: C5_8  and  C6_9 
REMARK    4  A    between atoms: C5_8  and  C7_11 
REMARK    5  A    between atoms: N1_14  and  C10_15 
REMARK    6  A    between atoms: C10_15  and  O2_16 
ROOT
HETATM    1  C3  UNL     1      -4.163   2.001  12.468  1.00  0.00     0.054 C 
HETATM    2  C4  UNL     1      -4.151   3.244  12.817  1.00  0.00     0.033 C 
HETATM    3 BR1  UNL     1      -3.749   4.701  11.635  1.00  0.00    -0.052 Br
HETATM    4  C5  UNL     1      -4.548   3.385  14.256  1.00  0.00     0.088 C 
HETATM    5  N1  UNL     1      -4.583   2.063  14.749  1.00  0.00    -0.311 N 
HETATM    6  C11 UNL     1      -4.436   1.187  13.644  1.00  0.00     0.256 C 
HETATM    7  O3  UNL     1      -4.533  -0.092  13.710  1.00  0.00    -0.268 OA
ENDROOT
BRANCH   4   8
HETATM    8  C6  UNL     1      -5.940   4.011  14.163  1.00  0.00     0.152 C 
HETATM    9 CL1  UNL     1      -6.410   4.763  15.663  1.00  0.00    -0.128 Cl
ENDBRANCH   4   8
BRANCH   4  10
HETATM   10  C7  UNL     1      -3.545   4.281  14.927  1.00  0.00     0.020 A 
HETATM   11  C8  UNL     1      -3.133   5.601  14.479  1.00  0.00     0.008 A 
HETATM   12  C9  UNL     1      -2.162   4.467  14.429  1.00  0.00     0.008 A 
ENDBRANCH   4  10
BRANCH   5  13
HETATM   13  C10 UNL     1      -4.723   1.564  16.127  1.00  0.00     0.294 C 
BRANCH  13  14
HETATM   14  O2  UNL     1      -3.610   0.808  16.499  1.00  0.00    -0.382 OA
ATOM     15  H2  UNL     1      -3.687   0.510  17.398  1.00  0.00     0.211 HD
ENDBRANCH  13  14
ENDBRANCH   5  13
BRANCH   1  16
HETATM   16  C2  UNL     1      -3.903   1.331  11.162  1.00  0.00     0.153 C 
HETATM   17  C1  UNL     1      -2.516   1.393  10.662  1.00  0.00     0.044 C 
BRANCH  16  18
HETATM   18  O1  UNL     1      -4.720   2.002  10.224  1.00  0.00    -0.391 OA
ATOM     19  H1  UNL     1      -5.294   2.581  10.711  1.00  0.00     0.210 HD
ENDBRANCH  16  18
ENDBRANCH   1  16
TORSDOF 6
ENDMDL
MODEL 2
REMARK VINA RESULT: -6.690685136      0.965      1.031
REMARK  6 active torsions:
REMARK  status: ('A' for Active; 'I' for Inactive)
REMARK    1  A    between atoms: C2_2  and  O1_3 
REMARK    2  A    between atoms: C2_2  and  C3_5 
REMARK    3  A    between atoms: C5_8  and  C6_9 
REMARK    4  A    between atoms: C5_8  and  C7_11 
REMARK    5  A    between atoms: N1_14  and  C10_15 
REMARK    6  A    between atoms: C10_15  and  O2_16 
ROOT
HETATM    1  C3  UNL     1      -4.455   1.214  12.524  1.00  0.00     0.054 C 
HETATM    2  C4  UNL     1      -4.316   2.495  12.434  1.00  0.00     0.033 C 
HETATM    3 BR1  UNL     1      -4.062   3.447  10.788  1.00  0.00    -0.052 Br
HETATM    4  C5  UNL     1      -4.438   3.128  13.788  1.00  0.00     0.088 C 
HETATM    5  N1  UNL     1      -4.450   2.044  14.692  1.00  0.00    -0.311 N 
HETATM    6  C11 UNL     1      -4.551   0.851  13.932  1.00  0.00     0.256 C 
HETATM    7  O3  UNL     1      -4.701  -0.321  14.433  1.00  0.00    -0.268 OA
ENDROOT
BRANCH   4   8
HETATM    8  C6  UNL     1      -5.790   3.839  13.708  1.00  0.00     0.152 C 
HETATM    9 CL1  UNL     1      -6.431   4.183  15.292  1.00  0.00    -0.128 Cl
ENDBRANCH   4   8
BRANCH   4  10
HETATM   10  C7  UNL     1      -3.285   4.078  13.959  1.00  0.00     0.020 A 
HETATM   11  C8  UNL     1      -3.142   5.081  15.001  1.00  0.00     0.008 A 
HETATM   12  C9  UNL     1      -3.351   5.510  13.585  1.00  0.00     0.008 A 
ENDBRANCH   4  10
BRANCH   5  13
HETATM   13  C10 UNL     1      -4.363   2.028  16.161  1.00  0.00     0.294 C 
BRANCH  13  14
HETATM   14  O2  UNL     1      -3.550   0.983  16.601  1.00  0.00    -0.382 OA
ATOM     15  H2  UNL     1      -3.961   0.142  16.442  1.00  0.00     0.211 HD
ENDBRANCH  13  14
ENDBRANCH   5  13
BRANCH   1  16
HETATM   16  C2  UNL     1      -4.472   0.139  11.492  1.00  0.00     0.153 C 
HETATM   17  C1  UNL     1      -3.182  -0.156  10.839  1.00  0.00     0.044 C 
BRANCH  16  18
HETATM   18  O1  UNL     1      -5.359   0.592  10.489  1.00  0.00    -0.391 OA
ATOM     19  H1  UNL     1      -6.036   1.101  10.919  1.00  0.00     0.210 HD
ENDBRANCH  16  18
ENDBRANCH   1  16
TORSDOF 6
ENDMDL
MODEL 3
REMARK VINA RESULT: -6.170757870      2.749      3.665
REMARK  6 active torsions:
REMARK  status: ('A' for Active; 'I' for Inactive)
REMARK    1  A    between atoms: C2_2  and  O1_3 
REMARK    2  A    between atoms: C2_2  and  C3_5 
REMARK    3  A    between atoms: C5_8  and  C6_9 
REMARK    4  A    between atoms: C5_8  and  C7_11 
REMARK    5  A    between atoms: N1_14  and  C10_15 
REMARK    6  A    between atoms: C10_15  and  O2_16 
ROOT
HETATM    1  C3  UNL     1      -4.626   2.497  12.814  1.00  0.00     0.054 C 
HETATM    2  C4  UNL     1      -4.763   2.100  14.035  1.00  0.00     0.033 C 
HETATM    3 BR1  UNL     1      -4.501   0.294  14.626  1.00  0.00    -0.052 Br
HETATM    4  C5  UNL     1      -5.099   3.260  14.926  1.00  0.00     0.088 C 
HETATM    5  N1  UNL     1      -5.348   4.331  14.040  1.00  0.00    -0.311 N 
HETATM    6  C11 UNL     1      -4.977   3.909  12.739  1.00  0.00     0.256 C 
HETATM    7  O3  UNL     1      -4.965   4.668  11.703  1.00  0.00    -0.268 OA
ENDROOT
BRANCH   4   8
HETATM    8  C6  UNL     1      -3.813   3.452  15.729  1.00  0.00     0.152 C 
HETATM    9 CL1  UNL     1      -2.668   4.456  14.882  1.00  0.00    -0.128 Cl
ENDBRANCH   4   8
BRANCH   4  10
HETATM   10  C7  UNL     1      -6.270   2.862  15.779  1.00  0.00     0.020 A 
HETATM   11  C8  UNL     1      -6.813   3.610  16.901  1.00  0.00     0.008 A 
HETATM   12  C9  UNL     1      -6.128   2.305  17.144  1.00  0.00     0.008 A 
ENDBRANCH   4  10
BRANCH   5  13
HETATM   13  C10 UNL     1      -5.901   5.670  14.299  1.00  0.00     0.294 C 
BRANCH  13  14
HETATM   14  O2  UNL     1      -6.999   5.924  13.474  1.00  0.00    -0.382 OA
ATOM     15  H2  UNL     1      -7.780   5.501  13.810  1.00  0.00     0.211 HD
ENDBRANCH  13  14
ENDBRANCH   5  13
BRANCH   1  16
HETATM   16  C2  UNL     1      -4.251   1.772  11.568  1.00  0.00     0.153 C 
HETATM   17  C1  UNL     1      -2.892   2.023  11.051  1.00  0.00     0.044 C 
BRANCH  16  18
HETATM   18  O1  UNL     1      -5.164   2.215  10.584  1.00  0.00    -0.391 OA
ATOM     19  H1  UNL     1      -5.515   3.047  10.878  1.00  0.00     0.210 HD
ENDBRANCH  16  18
ENDBRANCH   1  16
TORSDOF 6
ENDMDL
MODEL 4
REMARK VINA RESULT: -6.140685830      2.455      4.319
REMARK  6 active torsions:
REMARK  status: ('A' for Active; 'I' for Inactive)
REMARK    1  A    between atoms: C2_2  and  O1_3 
REMARK    2  A    between atoms: C2_2  and  C3_5 
REMARK    3  A    between atoms: C5_8  and  C6_9 
REMARK    4  A    between atoms: C5_8  and  C7_11 
REMARK    5  A    between atoms: N1_14  and  C10_15 
REMARK    6  A    between atoms: C10_15  and  O2_16 
ROOT
HETATM    1  C3  UNL     1      -4.299   1.933  14.213  1.00  0.00     0.054 C 
HETATM    2  C4  UNL     1      -3.980   3.106  13.774  1.00  0.00     0.033 C 
HETATM    3 BR1  UNL     1      -3.914   4.689  14.856  1.00  0.00    -0.052 Br
HETATM    4  C5  UNL     1      -3.619   3.038  12.320  1.00  0.00     0.088 C 
HETATM    5  N1  UNL     1      -3.972   1.730  11.924  1.00  0.00    -0.311 N 
HETATM    6  C11 UNL     1      -4.311   1.002  13.092  1.00  0.00     0.256 C 
HETATM    7  O3  UNL     1      -4.574  -0.254  13.117  1.00  0.00    -0.268 OA
ENDROOT
BRANCH   4   8
HETATM    8  C6  UNL     1      -2.106   3.255  12.338  1.00  0.00     0.152 C 
HETATM    9 CL1  UNL     1      -1.316   2.394  11.045  1.00  0.00    -0.128 Cl
ENDBRANCH   4   8
BRANCH   4  10
HETATM   10  C7  UNL     1      -4.361   4.134  11.609  1.00  0.00     0.020 A 
HETATM   11  C8  UNL     1      -4.121   4.598  10.252  1.00  0.00     0.008 A 
HETATM   12  C9  UNL     1      -3.805   5.492  11.406  1.00  0.00     0.008 A 
ENDBRANCH   4  10
BRANCH   5  13
HETATM   13  C10 UNL     1      -4.033   1.125  10.583  1.00  0.00     0.294 C 
BRANCH  13  14
HETATM   14  O2  UNL     1      -5.213   0.399  10.416  1.00  0.00    -0.382 OA
ATOM     15  H2  UNL     1      -5.148  -0.188   9.672  1.00  0.00     0.211 HD
ENDBRANCH  13  14
ENDBRANCH   5  13
BRANCH   1  16
HETATM   16  C2  UNL     1      -4.680   1.447  15.569  1.00  0.00     0.153 C 
HETATM   17  C1  UNL     1      -5.733   2.213  16.264  1.00  0.00     0.044 C 
BRANCH  16  18
HETATM   18  O1  UNL     1      -3.505   1.542  16.348  1.00  0.00    -0.391 OA
ATOM     19  H1  UNL     1      -3.773   1.629  17.255  1.00  0.00     0.210 HD
ENDBRANCH  16  18
ENDBRANCH   1  16
TORSDOF 6
ENDMDL
MODEL 5
REMARK VINA RESULT: -6.016292407      2.753      3.781
REMARK  6 active torsions:
REMARK  status: ('A' for Active; 'I' for Inactive)
REMARK    1  A    between atoms: C2_2  and  O1_3 
REMARK    2  A    between atoms: C2_2  and  C3_5 
REMARK    3  A    between atoms: C5_8  and  C6_9 
REMARK    4  A    between atoms: C5_8  and  C7_11 
REMARK    5  A    between atoms: N1_14  and  C10_15 
REMARK    6  A    between atoms: C10_15  and  O2_16 
ROOT
HETATM    1  C3  UNL     1      -4.232   1.848  12.362  1.00  0.00     0.054 C 
HETATM    2  C4  UNL     1      -4.433   2.444  13.490  1.00  0.00     0.033 C 
HETATM    3 BR1  UNL     1      -4.703   1.543  15.162  1.00  0.00    -0.052 Br
HETATM    4  C5  UNL     1      -4.369   3.932  13.311  1.00  0.00     0.088 C 
HETATM    5  N1  UNL     1      -4.320   4.123  11.913  1.00  0.00    -0.311 N 
HETATM    6  C11 UNL     1      -4.145   2.852  11.311  1.00  0.00     0.256 C 
HETATM    7  O3  UNL     1      -3.947   2.661  10.056  1.00  0.00    -0.268 OA
ENDROOT
BRANCH   4   8
HETATM    8  C6  UNL     1      -3.054   4.298  13.999  1.00  0.00     0.152 C 
HETATM    9 CL1  UNL     1      -1.730   4.356  12.866  1.00  0.00    -0.128 Cl
ENDBRANCH   4   8
BRANCH   4  10
HETATM   10  C7  UNL     1      -5.571   4.530  13.987  1.00  0.00     0.020 A 
HETATM   11  C8  UNL     1      -5.896   5.944  14.075  1.00  0.00     0.008 A 
HETATM   12  C9  UNL     1      -5.511   5.195  15.309  1.00  0.00     0.008 A 
ENDBRANCH   4  10
BRANCH   5  13
HETATM   13  C10 UNL     1      -4.434   5.356  11.117  1.00  0.00     0.294 C 
BRANCH  13  14
HETATM   14  O2  UNL     1      -5.325   5.183  10.056  1.00  0.00    -0.382 OA
ATOM     15  H2  UNL     1      -5.204   4.336   9.645  1.00  0.00     0.211 HD
ENDBRANCH  13  14
ENDBRANCH   5  13
BRANCH   1  16
HETATM   16  C2  UNL     1      -4.142   0.405  12.001  1.00  0.00     0.153 C 
HETATM   17  C1  UNL     1      -2.820  -0.075  11.556  1.00  0.00     0.044 C 
BRANCH  16  18
HETATM   18  O1  UNL     1      -5.039   0.229  10.923  1.00  0.00    -0.391 OA
ATOM     19  H1  UNL     1      -5.004  -0.686  10.671  1.00  0.00     0.210 HD
ENDBRANCH  16  18
ENDBRANCH   1  16
TORSDOF 6
ENDMDL
