MODEL 1
REMARK VINA RESULT: -6.909838258      0.000      0.000
REMARK  4 active torsions:
REMARK  status: ('A' for Active; 'I' for Inactive)
REMARK    1  A    between atoms: C2_2  and  C3_3 
REMARK    2  A    between atoms: C3_3  and  N1_4 
REMARK       I    between atoms: N1_4  and  C4_6 
REMARK    3  A    between atoms: C4_6  and  C5_8 
REMARK    4  A    between atoms: C5_8  and  N2_9 
ROOT
HETATM    1  N1  UNL     1      -3.812   2.092  13.109  1.00  0.00    -0.359 N 
ATOM      2  H1  UNL     1      -2.897   2.503  13.294  1.00  0.00     0.162 HD
HETATM    3  C4  UNL     1      -4.409   2.252  11.814  1.00  0.00     0.246 C 
HETATM    4  O1  UNL     1      -5.533   1.761  11.547  1.00  0.00    -0.272 OA
ENDROOT
BRANCH   1   5
HETATM    5  C3  UNL     1      -4.488   1.355  14.160  1.00  0.00     0.131 C 
BRANCH   5   6
HETATM    6  C2  UNL     1      -4.985   2.309  15.221  1.00  0.00    -0.025 C 
HETATM    7  C1  UNL     1      -3.814   3.216  15.569  1.00  0.00     0.017 C 
HETATM    8  C10 UNL     1      -6.172   3.038  14.686  1.00  0.00     0.011 C 
HETATM    9  C11 UNL     1      -6.661   4.094  15.648  1.00  0.00     0.004 C 
HETATM   10  C12 UNL     1      -6.545   3.688  17.077  1.00  0.00     0.042 C 
HETATM   11  C13 UNL     1      -6.392   2.222  17.304  1.00  0.00     0.114 C 
HETATM   12 CL1  UNL     1      -7.968   1.408  17.018  1.00  0.00    -0.102 Cl
HETATM   13 CL2  UNL     1      -6.040   1.992  19.053  1.00  0.00    -0.102 Cl
HETATM   14  C14 UNL     1      -5.306   1.573  16.512  1.00  0.00     0.053 C 
ENDBRANCH   5   6
ENDBRANCH   1   5
BRANCH   3  15
HETATM   15  C5  UNL     1      -3.668   3.015  10.787  1.00  0.00     0.374 C 
BRANCH  15  16
HETATM   16  N2  UNL     1      -2.329   3.325  11.164  1.00  0.00     0.100 N 
HETATM   17  C6  UNL     1      -2.137   4.755  11.014  1.00  0.00     0.300 C 
HETATM   18  C7  UNL     1      -2.069   5.172   9.567  1.00  0.00     0.262 C 
HETATM   19  N3  UNL     1      -1.101   4.410   8.814  1.00  0.00    -0.072 N 
HETATM   20  C8  UNL     1      -0.399   3.447   9.649  1.00  0.00     0.262 C 
ATOM     21  H32 UNL     1      -1.531   3.958   8.008  1.00  0.00     0.277 HD
ATOM     22  H31 UNL     1      -0.447   5.022   8.325  1.00  0.00     0.277 HD
HETATM   23  C9  UNL     1      -1.418   2.567  10.333  1.00  0.00     0.300 C 
ENDBRANCH  15  16
ENDBRANCH   3  15
TORSDOF 4
ENDMDL
MODEL 2
REMARK VINA RESULT: -6.498171536      3.670      4.689
REMARK  4 active torsions:
REMARK  status: ('A' for Active; 'I' for Inactive)
REMARK    1  A    between atoms: C2_2  and  C3_3 
REMARK    2  A    between atoms: C3_3  and  N1_4 
REMARK       I    between atoms: N1_4  and  C4_6 
REMARK    3  A    between atoms: C4_6  and  C5_8 
REMARK    4  A    between atoms: C5_8  and  N2_9 
ROOT
HETATM    1  N1  UNL     1      -4.810   3.655  13.134  1.00  0.00    -0.359 N 
ATOM      2  H1  UNL     1      -5.352   4.191  12.456  1.00  0.00     0.162 HD
HETATM    3  C4  UNL     1      -4.605   2.251  12.919  1.00  0.00     0.246 C 
HETATM    4  O1  UNL     1      -3.944   1.556  13.729  1.00  0.00    -0.272 OA
ENDROOT
BRANCH   1   5
HETATM    5  C3  UNL     1      -4.261   4.323  14.297  1.00  0.00     0.131 C 
BRANCH   5   6
HETATM    6  C2  UNL     1      -5.099   5.533  14.640  1.00  0.00    -0.025 C 
HETATM    7  C1  UNL     1      -6.168   5.056  15.611  1.00  0.00     0.017 C 
HETATM    8  C10 UNL     1      -4.204   6.587  15.201  1.00  0.00     0.011 C 
HETATM    9  C11 UNL     1      -4.983   7.790  15.675  1.00  0.00     0.004 C 
HETATM   10  C12 UNL     1      -6.156   8.109  14.813  1.00  0.00     0.042 C 
HETATM   11  C13 UNL     1      -6.119   7.501  13.450  1.00  0.00     0.114 C 
HETATM   12 CL1  UNL     1      -4.917   8.374  12.442  1.00  0.00    -0.102 Cl
HETATM   13 CL2  UNL     1      -7.716   7.820  12.687  1.00  0.00    -0.102 Cl
HETATM   14  C14 UNL     1      -5.867   6.030  13.426  1.00  0.00     0.053 C 
ENDBRANCH   5   6
ENDBRANCH   1   5
BRANCH   3  15
HETATM   15  C5  UNL     1      -5.192   1.629  11.713  1.00  0.00     0.374 C 
BRANCH  15  16
HETATM   16  N2  UNL     1      -4.310   1.616  10.593  1.00  0.00     0.100 N 
HETATM   17  C6  UNL     1      -4.169   0.244  10.145  1.00  0.00     0.300 C 
HETATM   18  C7  UNL     1      -3.343  -0.584  11.096  1.00  0.00     0.262 C 
HETATM   19  N3  UNL     1      -2.070   0.024  11.399  1.00  0.00    -0.072 N 
HETATM   20  C8  UNL     1      -1.879   1.274  10.681  1.00  0.00     0.262 C 
ATOM     21  H32 UNL     1      -1.950   0.152  12.404  1.00  0.00     0.277 HD
ATOM     22  H31 UNL     1      -1.300  -0.624  11.227  1.00  0.00     0.277 HD
HETATM   23  C9  UNL     1      -3.041   2.189  10.987  1.00  0.00     0.300 C 
ENDBRANCH  15  16
ENDBRANCH   3  15
TORSDOF 4
ENDMDL
MODEL 3
REMARK VINA RESULT: -6.363980403      3.953      5.012
REMARK  4 active torsions:
REMARK  status: ('A' for Active; 'I' for Inactive)
REMARK    1  A    between atoms: C2_2  and  C3_3 
REMARK    2  A    between atoms: C3_3  and  N1_4 
REMARK       I    between atoms: N1_4  and  C4_6 
REMARK    3  A    between atoms: C4_6  and  C5_8 
REMARK    4  A    between atoms: C5_8  and  N2_9 
ROOT
HETATM    1  N1  UNL     1      -4.158   4.171  13.429  1.00  0.00    -0.359 N 
ATOM      2  H1  UNL     1      -4.326   4.513  12.483  1.00  0.00     0.162 HD
HETATM    3  C4  UNL     1      -4.189   2.759  13.684  1.00  0.00     0.246 C 
HETATM    4  O1  UNL     1      -3.987   2.298  14.834  1.00  0.00    -0.272 OA
ENDROOT
BRANCH   1   5
HETATM    5  C3  UNL     1      -3.891   5.118  14.493  1.00  0.00     0.131 C 
BRANCH   5   6
HETATM    6  C2  UNL     1      -5.057   6.069  14.642  1.00  0.00    -0.025 C 
HETATM    7  C1  UNL     1      -6.147   5.304  15.376  1.00  0.00     0.017 C 
HETATM    8  C10 UNL     1      -4.587   7.288  15.363  1.00  0.00     0.011 C 
HETATM    9  C11 UNL     1      -5.721   8.241  15.650  1.00  0.00     0.004 C 
HETATM   10  C12 UNL     1      -6.736   8.295  14.560  1.00  0.00     0.042 C 
HETATM   11  C13 UNL     1      -6.272   7.770  13.243  1.00  0.00     0.114 C 
HETATM   12 CL1  UNL     1      -5.148   8.953  12.494  1.00  0.00    -0.102 Cl
HETATM   13 CL2  UNL     1      -7.709   7.716  12.161  1.00  0.00    -0.102 Cl
HETATM   14  C14 UNL     1      -5.662   6.409  13.289  1.00  0.00     0.053 C 
ENDBRANCH   5   6
ENDBRANCH   1   5
BRANCH   3  15
HETATM   15  C5  UNL     1      -4.467   1.845  12.555  1.00  0.00     0.374 C 
BRANCH  15  16
HETATM   16  N2  UNL     1      -3.602   0.713  12.514  1.00  0.00     0.100 N 
HETATM   17  C6  UNL     1      -2.449   1.053  11.703  1.00  0.00     0.300 C 
HETATM   18  C7  UNL     1      -2.789   1.134  10.236  1.00  0.00     0.262 C 
HETATM   19  N3  UNL     1      -3.463  -0.049   9.756  1.00  0.00    -0.072 N 
HETATM   20  C8  UNL     1      -3.618  -1.049  10.802  1.00  0.00     0.262 C 
ATOM     21  H32 UNL     1      -4.360   0.182   9.330  1.00  0.00     0.277 HD
ATOM     22  H31 UNL     1      -2.993  -0.438   8.939  1.00  0.00     0.277 HD
HETATM   23  C9  UNL     1      -4.329  -0.416  11.974  1.00  0.00     0.300 C 
ENDBRANCH  15  16
ENDBRANCH   3  15
TORSDOF 4
ENDMDL
MODEL 4
REMARK VINA RESULT: -6.302540427      3.225      6.813
REMARK  4 active torsions:
REMARK  status: ('A' for Active; 'I' for Inactive)
REMARK    1  A    between atoms: C2_2  and  C3_3 
REMARK    2  A    between atoms: C3_3  and  N1_4 
REMARK       I    between atoms: N1_4  and  C4_6 
REMARK    3  A    between atoms: C4_6  and  C5_8 
REMARK    4  A    between atoms: C5_8  and  N2_9 
ROOT
HETATM    1  N1  UNL     1      -5.114   3.667  13.298  1.00  0.00    -0.359 N 
ATOM      2  H1  UNL     1      -5.464   2.760  12.990  1.00  0.00     0.162 HD
HETATM    3  C4  UNL     1      -5.415   4.124  14.624  1.00  0.00     0.246 C 
HETATM    4  O1  UNL     1      -5.003   5.235  15.041  1.00  0.00    -0.272 OA
ENDROOT
BRANCH   1   5
HETATM    5  C3  UNL     1      -4.322   4.472  12.389  1.00  0.00     0.131 C 
BRANCH   5   6
HETATM    6  C2  UNL     1      -3.525   3.577  11.469  1.00  0.00    -0.025 C 
HETATM    7  C1  UNL     1      -3.383   4.326  10.153  1.00  0.00     0.017 C 
HETATM    8  C10 UNL     1      -2.222   3.261  12.125  1.00  0.00     0.011 C 
HETATM    9  C11 UNL     1      -1.318   2.460  11.219  1.00  0.00     0.004 C 
HETATM   10  C12 UNL     1      -2.052   1.474  10.377  1.00  0.00     0.042 C 
HETATM   11  C13 UNL     1      -3.426   1.139  10.853  1.00  0.00     0.114 C 
HETATM   12 CL1  UNL     1      -3.313   0.084  12.301  1.00  0.00    -0.102 Cl
HETATM   13 CL2  UNL     1      -4.196   0.131   9.578  1.00  0.00    -0.102 Cl
HETATM   14  C14 UNL     1      -4.303   2.318  11.120  1.00  0.00     0.053 C 
ENDBRANCH   5   6
ENDBRANCH   1   5
BRANCH   3  15
HETATM   15  C5  UNL     1      -6.228   3.256  15.502  1.00  0.00     0.374 C 
BRANCH  15  16
HETATM   16  N2  UNL     1      -5.563   2.881  16.705  1.00  0.00     0.100 N 
HETATM   17  C6  UNL     1      -4.356   2.159  16.347  1.00  0.00     0.300 C 
HETATM   18  C7  UNL     1      -4.655   0.781  15.812  1.00  0.00     0.262 C 
HETATM   19  N3  UNL     1      -5.507   0.016  16.691  1.00  0.00    -0.072 N 
HETATM   20  C8  UNL     1      -5.842   0.753  17.900  1.00  0.00     0.262 C 
ATOM     21  H32 UNL     1      -6.347  -0.303  16.208  1.00  0.00     0.277 HD
ATOM     22  H31 UNL     1      -5.094  -0.890  16.912  1.00  0.00     0.277 HD
HETATM   23  C9  UNL     1      -6.457   2.075  17.507  1.00  0.00     0.300 C 
ENDBRANCH  15  16
ENDBRANCH   3  15
TORSDOF 4
ENDMDL
MODEL 5
REMARK VINA RESULT: -6.253711678      3.756      5.059
REMARK  4 active torsions:
REMARK  status: ('A' for Active; 'I' for Inactive)
REMARK    1  A    between atoms: C2_2  and  C3_3 
REMARK    2  A    between atoms: C3_3  and  N1_4 
REMARK       I    between atoms: N1_4  and  C4_6 
REMARK    3  A    between atoms: C4_6  and  C5_8 
REMARK    4  A    between atoms: C5_8  and  N2_9 
ROOT
HETATM    1  N1  UNL     1      -2.484   4.463  13.029  1.00  0.00    -0.359 N 
ATOM      2  H1  UNL     1      -2.385   3.814  13.810  1.00  0.00     0.162 HD
HETATM    3  C4  UNL     1      -2.590   3.948  11.694  1.00  0.00     0.246 C 
HETATM    4  O1  UNL     1      -2.714   4.713  10.707  1.00  0.00    -0.272 OA
ENDROOT
BRANCH   1   5
HETATM    5  C3  UNL     1      -2.515   5.889  13.287  1.00  0.00     0.131 C 
BRANCH   5   6
HETATM    6  C2  UNL     1      -3.759   6.244  14.068  1.00  0.00    -0.025 C 
HETATM    7  C1  UNL     1      -4.177   4.985  14.812  1.00  0.00     0.017 C 
HETATM    8  C10 UNL     1      -3.445   7.396  14.964  1.00  0.00     0.011 C 
HETATM    9  C11 UNL     1      -4.608   7.740  15.863  1.00  0.00     0.004 C 
HETATM   10  C12 UNL     1      -5.932   7.578  15.199  1.00  0.00     0.042 C 
HETATM   11  C13 UNL     1      -5.889   7.534  13.708  1.00  0.00     0.114 C 
HETATM   12 CL1  UNL     1      -5.576   9.185  13.074  1.00  0.00    -0.102 Cl
HETATM   13 CL2  UNL     1      -7.541   7.103  13.145  1.00  0.00    -0.102 Cl
HETATM   14  C14 UNL     1      -4.921   6.552  13.137  1.00  0.00     0.053 C 
ENDBRANCH   5   6
ENDBRANCH   1   5
BRANCH   3  15
HETATM   15  C5  UNL     1      -2.552   2.482  11.499  1.00  0.00     0.374 C 
BRANCH  15  16
HETATM   16  N2  UNL     1      -3.780   1.940  11.021  1.00  0.00     0.100 N 
HETATM   17  C6  UNL     1      -4.723   1.918  12.124  1.00  0.00     0.300 C 
HETATM   18  C7  UNL     1      -4.385   0.858  13.141  1.00  0.00     0.262 C 
HETATM   19  N3  UNL     1      -4.211  -0.446  12.547  1.00  0.00    -0.072 N 
HETATM   20  C8  UNL     1      -4.441  -0.424  11.111  1.00  0.00     0.262 C 
ATOM     21  H32 UNL     1      -3.295  -0.835  12.770  1.00  0.00     0.277 HD
ATOM     22  H31 UNL     1      -4.798  -1.143  13.006  1.00  0.00     0.277 HD
HETATM   23  C9  UNL     1      -3.537   0.615  10.492  1.00  0.00     0.300 C 
ENDBRANCH  15  16
ENDBRANCH   3  15
TORSDOF 4
ENDMDL
