MODEL 1
REMARK VINA RESULT: -5.805214901      0.000      0.000
REMARK  6 active torsions:
REMARK  status: ('A' for Active; 'I' for Inactive)
REMARK    1  A    between atoms: C2_2  and  C4_4 
REMARK    2  A    between atoms: C4_4  and  C5_5 
REMARK    3  A    between atoms: C5_5  and  C6_8 
REMARK    4  A    between atoms: N2_19  and  C14_20 
REMARK    5  A    between atoms: C14_20  and  C15_21 
REMARK    6  A    between atoms: C15_21  and  O2_22 
ROOT
HETATM    1  C4  UNL     1      -4.113   5.129  13.733  1.00  0.00     0.118 C 
HETATM    2  C10 UNL     1      -3.552   5.290  12.373  1.00  0.00     0.100 C 
HETATM    3  N1  UNL     1      -3.773   4.373  11.336  1.00  0.00    -0.338 N 
ATOM      4  H1  UNL     1      -3.487   4.771  10.442  1.00  0.00     0.167 HD
HETATM    5  C11 UNL     1      -4.268   3.078  11.159  1.00  0.00     0.226 C 
HETATM    6  O1  UNL     1      -4.031   2.487  10.071  1.00  0.00    -0.273 OA
HETATM    7  C12 UNL     1      -5.042   2.395  12.181  1.00  0.00     0.147 C 
HETATM    8  C13 UNL     1      -4.517   2.673  13.524  1.00  0.00     0.069 C 
HETATM    9  N2  UNL     1      -4.413   3.824  14.208  1.00  0.00    -0.373 N 
ENDROOT
BRANCH   1  10
HETATM   10  C2  UNL     1      -2.934   5.660  14.547  1.00  0.00     0.015 C 
HETATM   11  C1  UNL     1      -1.715   4.733  14.317  1.00  0.00     0.012 C 
HETATM   12  C3  UNL     1      -2.378   6.996  14.114  1.00  0.00     0.012 C 
ENDBRANCH   1  10
BRANCH   1  13
HETATM   13  C5  UNL     1      -5.292   6.050  13.998  1.00  0.00     0.215 C 
HETATM   14  F1  UNL     1      -6.398   5.228  13.972  1.00  0.00    -0.222 F 
HETATM   15 CL1  UNL     1      -5.299   6.774  15.621  1.00  0.00    -0.079 Cl
BRANCH  13  16
HETATM   16  C6  UNL     1      -5.706   7.123  13.115  1.00  0.00     0.002 C 
HETATM   17  C7  UNL     1      -5.153   8.481  13.187  1.00  0.00     0.019 C 
HETATM   18  C8  UNL     1      -5.897   6.799  11.656  1.00  0.00     0.019 C 
HETATM   19  C9  UNL     1      -7.193   7.360  13.536  1.00  0.00     0.019 C 
ENDBRANCH  13  16
ENDBRANCH   1  13
BRANCH   9  20
HETATM   20  C14 UNL     1      -4.144   3.481  15.565  1.00  0.00     0.149 C 
BRANCH  20  21
HETATM   21  C15 UNL     1      -4.471   2.136  16.087  1.00  0.00     0.183 C 
BRANCH  21  22
HETATM   22  O2  UNL     1      -3.452   1.302  16.500  1.00  0.00    -0.399 OA
ATOM     23  H2  UNL     1      -3.241   0.533  15.985  1.00  0.00     0.209 HD
ENDBRANCH  21  22
ENDBRANCH  20  21
ENDBRANCH   9  20
TORSDOF 6
ENDMDL
MODEL 2
REMARK VINA RESULT: -5.630393620      2.576      3.787
REMARK  6 active torsions:
REMARK  status: ('A' for Active; 'I' for Inactive)
REMARK    1  A    between atoms: C2_2  and  C4_4 
REMARK    2  A    between atoms: C4_4  and  C5_5 
REMARK    3  A    between atoms: C5_5  and  C6_8 
REMARK    4  A    between atoms: N2_19  and  C14_20 
REMARK    5  A    between atoms: C14_20  and  C15_21 
REMARK    6  A    between atoms: C15_21  and  O2_22 
ROOT
HETATM    1  C4  UNL     1      -3.436   4.693  11.882  1.00  0.00     0.118 C 
HETATM    2  C10 UNL     1      -4.446   4.360  10.852  1.00  0.00     0.100 C 
HETATM    3  N1  UNL     1      -4.756   3.047  10.475  1.00  0.00    -0.338 N 
ATOM      4  H1  UNL     1      -5.612   3.028   9.921  1.00  0.00     0.167 HD
HETATM    5  C11 UNL     1      -4.246   1.755  10.630  1.00  0.00     0.226 C 
HETATM    6  O1  UNL     1      -4.679   0.842   9.875  1.00  0.00    -0.273 OA
HETATM    7  C12 UNL     1      -3.240   1.431  11.626  1.00  0.00     0.147 C 
HETATM    8  C13 UNL     1      -2.242   2.502  11.747  1.00  0.00     0.069 C 
HETATM    9  N2  UNL     1      -2.370   3.784  12.125  1.00  0.00    -0.373 N 
ENDROOT
BRANCH   1  10
HETATM   10  C2  UNL     1      -2.841   5.947  11.244  1.00  0.00     0.015 C 
HETATM   11  C1  UNL     1      -2.485   5.632   9.770  1.00  0.00     0.012 C 
HETATM   12  C3  UNL     1      -3.782   7.117  11.079  1.00  0.00     0.012 C 
ENDBRANCH   1  10
BRANCH   1  13
HETATM   13  C5  UNL     1      -4.057   5.113  13.204  1.00  0.00     0.215 C 
HETATM   14  F1  UNL     1      -3.086   5.865  13.829  1.00  0.00    -0.222 F 
HETATM   15 CL1  UNL     1      -5.446   6.209  13.038  1.00  0.00    -0.079 Cl
BRANCH  13  16
HETATM   16  C6  UNL     1      -4.438   4.194  14.257  1.00  0.00     0.002 C 
HETATM   17  C7  UNL     1      -5.267   3.004  14.024  1.00  0.00     0.019 C 
HETATM   18  C8  UNL     1      -3.391   3.812  15.271  1.00  0.00     0.019 C 
HETATM   19  C9  UNL     1      -5.376   5.067  15.153  1.00  0.00     0.019 C 
ENDBRANCH  13  16
ENDBRANCH   1  13
BRANCH   9  20
HETATM   20  C14 UNL     1      -1.057   4.278  12.378  1.00  0.00     0.149 C 
BRANCH  20  21
HETATM   21  C15 UNL     1       0.103   3.776  11.611  1.00  0.00     0.183 C 
BRANCH  21  22
HETATM   22  O2  UNL     1       1.377   4.146  11.988  1.00  0.00    -0.399 OA
ATOM     23  H2  UNL     1       2.105   3.982  11.400  1.00  0.00     0.209 HD
ENDBRANCH  21  22
ENDBRANCH  20  21
ENDBRANCH   9  20
TORSDOF 6
ENDMDL
MODEL 3
REMARK VINA RESULT: -5.542105404      3.322      5.713
REMARK  6 active torsions:
REMARK  status: ('A' for Active; 'I' for Inactive)
REMARK    1  A    between atoms: C2_2  and  C4_4 
REMARK    2  A    between atoms: C4_4  and  C5_5 
REMARK    3  A    between atoms: C5_5  and  C6_8 
REMARK    4  A    between atoms: N2_19  and  C14_20 
REMARK    5  A    between atoms: C14_20  and  C15_21 
REMARK    6  A    between atoms: C15_21  and  O2_22 
ROOT
HETATM    1  C4  UNL     1      -2.399   3.299  11.200  1.00  0.00     0.118 C 
HETATM    2  C10 UNL     1      -1.233   3.497  12.090  1.00  0.00     0.100 C 
HETATM    3  N1  UNL     1      -1.324   4.092  13.355  1.00  0.00    -0.338 N 
ATOM      4  H1  UNL     1      -0.465   3.939  13.884  1.00  0.00     0.167 HD
HETATM    5  C11 UNL     1      -2.237   4.832  14.111  1.00  0.00     0.226 C 
HETATM    6  O1  UNL     1      -1.818   5.441  15.134  1.00  0.00    -0.273 OA
HETATM    7  C12 UNL     1      -3.644   4.923  13.761  1.00  0.00     0.147 C 
HETATM    8  C13 UNL     1      -3.827   5.024  12.307  1.00  0.00     0.069 C 
HETATM    9  N2  UNL     1      -3.517   4.169  11.320  1.00  0.00    -0.373 N 
ENDROOT
BRANCH   1  10
HETATM   10  C2  UNL     1      -1.730   3.585   9.856  1.00  0.00     0.015 C 
HETATM   11  C1  UNL     1      -1.214   5.044   9.860  1.00  0.00     0.012 C 
HETATM   12  C3  UNL     1      -0.459   2.820   9.573  1.00  0.00     0.012 C 
ENDBRANCH   1  10
BRANCH   1  13
HETATM   13  C5  UNL     1      -2.877   1.857  11.166  1.00  0.00     0.215 C 
HETATM   14  F1  UNL     1      -3.306   1.656   9.872  1.00  0.00    -0.222 F 
HETATM   15 CL1  UNL     1      -1.589   0.658  11.412  1.00  0.00    -0.079 Cl
BRANCH  13  16
HETATM   16  C6  UNL     1      -4.002   1.351  11.928  1.00  0.00     0.002 C 
HETATM   17  C7  UNL     1      -4.136   1.535  13.378  1.00  0.00     0.019 C 
HETATM   18  C8  UNL     1      -5.378   1.499  11.333  1.00  0.00     0.019 C 
HETATM   19  C9  UNL     1      -3.824  -0.197  11.815  1.00  0.00     0.019 C 
ENDBRANCH  13  16
ENDBRANCH   1  13
BRANCH   9  20
HETATM   20  C14 UNL     1      -4.201   4.614  10.151  1.00  0.00     0.149 C 
BRANCH  20  21
HETATM   21  C15 UNL     1      -4.981   5.870  10.161  1.00  0.00     0.183 C 
BRANCH  21  22
HETATM   22  O2  UNL     1      -6.278   5.867   9.690  1.00  0.00    -0.399 OA
ATOM     23  H2  UNL     1      -6.998   5.921  10.307  1.00  0.00     0.209 HD
ENDBRANCH  21  22
ENDBRANCH  20  21
ENDBRANCH   9  20
TORSDOF 6
ENDMDL
MODEL 4
REMARK VINA RESULT: -5.410115109      2.542      4.969
REMARK  6 active torsions:
REMARK  status: ('A' for Active; 'I' for Inactive)
REMARK    1  A    between atoms: C2_2  and  C4_4 
REMARK    2  A    between atoms: C4_4  and  C5_5 
REMARK    3  A    between atoms: C5_5  and  C6_8 
REMARK    4  A    between atoms: N2_19  and  C14_20 
REMARK    5  A    between atoms: C14_20  and  C15_21 
REMARK    6  A    between atoms: C15_21  and  O2_22 
ROOT
HETATM    1  C4  UNL     1      -4.089   3.582  13.516  1.00  0.00     0.118 C 
HETATM    2  C10 UNL     1      -3.342   2.802  14.529  1.00  0.00     0.100 C 
HETATM    3  N1  UNL     1      -3.938   2.263  15.676  1.00  0.00    -0.338 N 
ATOM      4  H1  UNL     1      -3.312   1.593  16.122  1.00  0.00     0.167 HD
HETATM    5  C11 UNL     1      -5.133   2.366  16.394  1.00  0.00     0.226 C 
HETATM    6  O1  UNL     1      -5.171   1.907  17.569  1.00  0.00    -0.273 OA
HETATM    7  C12 UNL     1      -6.325   2.979  15.836  1.00  0.00     0.147 C 
HETATM    8  C13 UNL     1      -5.991   4.160  15.029  1.00  0.00     0.069 C 
HETATM    9  N2  UNL     1      -5.262   4.282  13.908  1.00  0.00    -0.373 N 
ENDROOT
BRANCH   1  10
HETATM   10  C2  UNL     1      -3.022   4.620  13.171  1.00  0.00     0.015 C 
HETATM   11  C1  UNL     1      -2.724   5.462  14.436  1.00  0.00     0.012 C 
HETATM   12  C3  UNL     1      -1.650   4.077  12.847  1.00  0.00     0.012 C 
ENDBRANCH   1  10
BRANCH   1  13
HETATM   13  C5  UNL     1      -4.369   2.789  12.250  1.00  0.00     0.215 C 
HETATM   14  F1  UNL     1      -5.723   2.534  12.284  1.00  0.00    -0.222 F 
HETATM   15 CL1  UNL     1      -4.114   3.704  10.748  1.00  0.00    -0.079 Cl
BRANCH  13  16
HETATM   16  C6  UNL     1      -3.831   1.472  11.974  1.00  0.00     0.002 C 
HETATM   17  C7  UNL     1      -2.432   1.241  11.592  1.00  0.00     0.019 C 
HETATM   18  C8  UNL     1      -4.234   0.342  12.885  1.00  0.00     0.019 C 
HETATM   19  C9  UNL     1      -4.592   1.055  10.674  1.00  0.00     0.019 C 
ENDBRANCH  13  16
ENDBRANCH   1  13
BRANCH   9  20
HETATM   20  C14 UNL     1      -5.531   5.576  13.374  1.00  0.00     0.149 C 
BRANCH  20  21
HETATM   21  C15 UNL     1      -6.539   6.459  13.997  1.00  0.00     0.183 C 
BRANCH  21  22
HETATM   22  O2  UNL     1      -7.604   6.911  13.243  1.00  0.00    -0.399 OA
ATOM     23  H2  UNL     1      -8.073   6.303  12.685  1.00  0.00     0.209 HD
ENDBRANCH  21  22
ENDBRANCH  20  21
ENDBRANCH   9  20
TORSDOF 6
ENDMDL
MODEL 5
REMARK VINA RESULT: -5.363289773      2.192      3.322
REMARK  6 active torsions:
REMARK  status: ('A' for Active; 'I' for Inactive)
REMARK    1  A    between atoms: C2_2  and  C4_4 
REMARK    2  A    between atoms: C4_4  and  C5_5 
REMARK    3  A    between atoms: C5_5  and  C6_8 
REMARK    4  A    between atoms: N2_19  and  C14_20 
REMARK    5  A    between atoms: C14_20  and  C15_21 
REMARK    6  A    between atoms: C15_21  and  O2_22 
ROOT
HETATM    1  C4  UNL     1      -3.617   5.007  12.852  1.00  0.00     0.118 C 
HETATM    2  C10 UNL     1      -3.157   6.406  12.691  1.00  0.00     0.100 C 
HETATM    3  N1  UNL     1      -3.605   7.249  11.666  1.00  0.00    -0.338 N 
ATOM      4  H1  UNL     1      -3.339   8.215  11.857  1.00  0.00     0.167 HD
HETATM    5  C11 UNL     1      -4.306   7.165  10.460  1.00  0.00     0.226 C 
HETATM    6  O1  UNL     1      -4.257   8.144   9.666  1.00  0.00    -0.273 OA
HETATM    7  C12 UNL     1      -5.085   5.996  10.092  1.00  0.00     0.147 C 
HETATM    8  C13 UNL     1      -4.410   4.755  10.496  1.00  0.00     0.069 C 
HETATM    9  N2  UNL     1      -4.072   4.293  11.711  1.00  0.00    -0.373 N 
ENDROOT
BRANCH   1  10
HETATM   10  C2  UNL     1      -2.305   4.370  13.307  1.00  0.00     0.015 C 
HETATM   11  C1  UNL     1      -1.270   4.496  12.162  1.00  0.00     0.012 C 
HETATM   12  C3  UNL     1      -1.585   5.069  14.436  1.00  0.00     0.012 C 
ENDBRANCH   1  10
BRANCH   1  13
HETATM   13  C5  UNL     1      -4.614   4.841  13.987  1.00  0.00     0.215 C 
HETATM   14  F1  UNL     1      -5.668   4.146  13.435  1.00  0.00    -0.222 F 
HETATM   15 CL1  UNL     1      -4.036   3.814  15.317  1.00  0.00    -0.079 Cl
BRANCH  13  16
HETATM   16  C6  UNL     1      -5.299   5.939  14.640  1.00  0.00     0.002 C 
HETATM   17  C7  UNL     1      -4.609   6.942  15.460  1.00  0.00     0.019 C 
HETATM   18  C8  UNL     1      -6.370   6.661  13.865  1.00  0.00     0.019 C 
HETATM   19  C9  UNL     1      -6.182   5.208  15.703  1.00  0.00     0.019 C 
ENDBRANCH  13  16
ENDBRANCH   1  13
BRANCH   9  20
HETATM   20  C14 UNL     1      -3.743   2.915  11.556  1.00  0.00     0.149 C 
BRANCH  20  21
HETATM   21  C15 UNL     1      -4.625   2.005  10.796  1.00  0.00     0.183 C 
BRANCH  21  22
HETATM   22  O2  UNL     1      -5.944   1.862  11.176  1.00  0.00    -0.399 OA
ATOM     23  H2  UNL     1      -6.170   1.896  12.098  1.00  0.00     0.209 HD
ENDBRANCH  21  22
ENDBRANCH  20  21
ENDBRANCH   9  20
TORSDOF 6
ENDMDL
