MODEL 1
REMARK VINA RESULT: -7.693188215      0.000      0.000
REMARK  6 active torsions:
REMARK  status: ('A' for Active; 'I' for Inactive)
REMARK    1  A    between atoms: N2_5  and  C3_6 
REMARK    2  A    between atoms: C3_6  and  C4_7 
REMARK    3  A    between atoms: C4_7  and  O2_8 
REMARK    4  A    between atoms: C4_7  and  C5_10 
REMARK    5  A    between atoms: C5_10  and  N3_11 
REMARK    6  A    between atoms: N3_11  and  C6_13 
ROOT
HETATM    1  C1  UNL     1      -4.569   6.020  15.292  1.00  0.00     0.155 C 
HETATM    2  N1  UNL     1      -4.366   4.818  14.478  1.00  0.00    -0.327 N 
HETATM    3  C2  UNL     1      -3.547   4.718  13.301  1.00  0.00     0.321 C 
HETATM    4  O1  UNL     1      -2.603   5.515  13.063  1.00  0.00    -0.247 OA
HETATM    5  N2  UNL     1      -3.975   3.617  12.506  1.00  0.00    -0.329 N 
HETATM    6  C10 UNL     1      -4.687   2.737  13.427  1.00  0.00     0.158 C 
HETATM    7  C11 UNL     1      -4.930   3.505  14.680  1.00  0.00     0.053 C 
HETATM    8  C12 UNL     1      -4.304   2.846  15.899  1.00  0.00     0.039 C 
HETATM    9  C13 UNL     1      -5.204   1.830  16.547  1.00  0.00     0.081 C 
HETATM   10  C14 UNL     1      -6.467   2.424  17.107  1.00  0.00     0.243 C 
HETATM   11  F1  UNL     1      -6.361   2.679  18.461  1.00  0.00    -0.206 F 
HETATM   12  F2  UNL     1      -7.573   1.606  16.934  1.00  0.00    -0.206 F 
HETATM   13  C15 UNL     1      -6.673   3.771  16.445  1.00  0.00     0.081 C 
HETATM   14  C16 UNL     1      -6.431   3.629  14.978  1.00  0.00     0.039 C 
ENDROOT
BRANCH   5  15
HETATM   15  C3  UNL     1      -3.762   3.371  11.113  1.00  0.00     0.164 C 
BRANCH  15  16
HETATM   16  C4  UNL     1      -2.375   2.981  10.718  1.00  0.00     0.174 C 
BRANCH  16  17
HETATM   17  O2  UNL     1      -1.903   3.749   9.641  1.00  0.00    -0.389 OA
ATOM     18  H2  UNL     1      -1.067   3.433   9.320  1.00  0.00     0.210 HD
ENDBRANCH  16  17
BRANCH  16  19
HETATM   19  C5  UNL     1      -2.192   1.510  10.444  1.00  0.00     0.089 C 
BRANCH  19  20
HETATM   20  N3  UNL     1      -2.342   0.660  11.552  1.00  0.00    -0.392 N 
ATOM     21  H3  UNL     1      -1.777   0.818  12.387  1.00  0.00     0.159 HD
BRANCH  20  22
HETATM   22  C6  UNL     1      -3.260  -0.407  11.528  1.00  0.00     0.018 C 
HETATM   23  C7  UNL     1      -4.189  -0.144  10.315  1.00  0.00     0.037 C 
HETATM   24  C8  UNL     1      -4.204  -0.433  12.718  1.00  0.00     0.037 C 
HETATM   25  C9  UNL     1      -2.724  -1.786  11.332  1.00  0.00     0.037 C 
ENDBRANCH  20  22
ENDBRANCH  19  20
ENDBRANCH  16  19
ENDBRANCH  15  16
ENDBRANCH   5  15
TORSDOF 6
ENDMDL
MODEL 2
REMARK VINA RESULT: -7.367122533      1.848      3.070
REMARK  6 active torsions:
REMARK  status: ('A' for Active; 'I' for Inactive)
REMARK    1  A    between atoms: N2_5  and  C3_6 
REMARK    2  A    between atoms: C3_6  and  C4_7 
REMARK    3  A    between atoms: C4_7  and  O2_8 
REMARK    4  A    between atoms: C4_7  and  C5_10 
REMARK    5  A    between atoms: C5_10  and  N3_11 
REMARK    6  A    between atoms: N3_11  and  C6_13 
ROOT
HETATM    1  C1  UNL     1      -4.119   5.358  14.958  1.00  0.00     0.155 C 
HETATM    2  N1  UNL     1      -4.117   4.060  14.277  1.00  0.00    -0.327 N 
HETATM    3  C2  UNL     1      -3.332   3.707  13.125  1.00  0.00     0.321 C 
HETATM    4  O1  UNL     1      -2.274   4.314  12.814  1.00  0.00    -0.247 OA
HETATM    5  N2  UNL     1      -3.935   2.611  12.446  1.00  0.00    -0.329 N 
HETATM    6  C10 UNL     1      -4.773   1.958  13.447  1.00  0.00     0.158 C 
HETATM    7  C11 UNL     1      -4.882   2.883  14.610  1.00  0.00     0.053 C 
HETATM    8  C12 UNL     1      -4.361   2.265  15.898  1.00  0.00     0.039 C 
HETATM    9  C13 UNL     1      -5.407   1.480  16.640  1.00  0.00     0.081 C 
HETATM   10  C14 UNL     1      -6.555   2.323  17.121  1.00  0.00     0.243 C 
HETATM   11  F1  UNL     1      -6.402   2.700  18.442  1.00  0.00    -0.206 F 
HETATM   12  F2  UNL     1      -7.780   1.679  17.024  1.00  0.00    -0.206 F 
HETATM   13  C15 UNL     1      -6.548   3.608  16.319  1.00  0.00     0.081 C 
HETATM   14  C16 UNL     1      -6.342   3.276  14.877  1.00  0.00     0.039 C 
ENDROOT
BRANCH   5  15
HETATM   15  C3  UNL     1      -3.773   2.188  11.089  1.00  0.00     0.164 C 
BRANCH  15  16
HETATM   16  C4  UNL     1      -2.637   1.256  10.821  1.00  0.00     0.174 C 
BRANCH  16  17
HETATM   17  O2  UNL     1      -2.376   0.420  11.918  1.00  0.00    -0.389 OA
ATOM     18  H2  UNL     1      -2.032  -0.423  11.647  1.00  0.00     0.210 HD
ENDBRANCH  16  17
BRANCH  16  19
HETATM   19  C5  UNL     1      -1.373   1.931  10.351  1.00  0.00     0.089 C 
BRANCH  19  20
HETATM   20  N3  UNL     1      -1.517   3.256   9.907  1.00  0.00    -0.392 N 
ATOM     21  H3  UNL     1      -2.411   3.732  10.028  1.00  0.00     0.159 HD
BRANCH  20  22
HETATM   22  C6  UNL     1      -0.447   3.936   9.296  1.00  0.00     0.018 C 
HETATM   23  C7  UNL     1      -0.797   5.444   9.374  1.00  0.00     0.037 C 
HETATM   24  C8  UNL     1      -0.314   3.663   7.808  1.00  0.00     0.037 C 
HETATM   25  C9  UNL     1       0.907   3.805   9.913  1.00  0.00     0.037 C 
ENDBRANCH  20  22
ENDBRANCH  19  20
ENDBRANCH  16  19
ENDBRANCH  15  16
ENDBRANCH   5  15
TORSDOF 6
ENDMDL
MODEL 3
REMARK VINA RESULT: -7.364688178      2.715      4.000
REMARK  6 active torsions:
REMARK  status: ('A' for Active; 'I' for Inactive)
REMARK    1  A    between atoms: N2_5  and  C3_6 
REMARK    2  A    between atoms: C3_6  and  C4_7 
REMARK    3  A    between atoms: C4_7  and  O2_8 
REMARK    4  A    between atoms: C4_7  and  C5_10 
REMARK    5  A    between atoms: C5_10  and  N3_11 
REMARK    6  A    between atoms: N3_11  and  C6_13 
ROOT
HETATM    1  C1  UNL     1      -3.977   2.014  16.382  1.00  0.00     0.155 C 
HETATM    2  N1  UNL     1      -4.442   1.924  14.995  1.00  0.00    -0.327 N 
HETATM    3  C2  UNL     1      -4.601   0.717  14.229  1.00  0.00     0.321 C 
HETATM    4  O1  UNL     1      -4.752  -0.411  14.767  1.00  0.00    -0.247 OA
HETATM    5  N2  UNL     1      -4.561   1.017  12.838  1.00  0.00    -0.329 N 
HETATM    6  C10 UNL     1      -4.908   2.432  12.745  1.00  0.00     0.158 C 
HETATM    7  C11 UNL     1      -4.833   3.002  14.120  1.00  0.00     0.053 C 
HETATM    8  C12 UNL     1      -6.156   3.596  14.577  1.00  0.00     0.039 C 
HETATM    9  C13 UNL     1      -6.327   5.034  14.172  1.00  0.00     0.081 C 
HETATM   10  C14 UNL     1      -5.319   5.955  14.802  1.00  0.00     0.243 C 
HETATM   11  F1  UNL     1      -5.820   6.576  15.930  1.00  0.00    -0.206 F 
HETATM   12  F2  UNL     1      -4.890   6.957  13.944  1.00  0.00    -0.206 F 
HETATM   13  C15 UNL     1      -4.157   5.106  15.276  1.00  0.00     0.081 C 
HETATM   14  C16 UNL     1      -3.799   4.134  14.200  1.00  0.00     0.039 C 
ENDROOT
BRANCH   5  15
HETATM   15  C3  UNL     1      -4.270   0.155  11.735  1.00  0.00     0.164 C 
BRANCH  15  16
HETATM   16  C4  UNL     1      -3.369   0.713  10.682  1.00  0.00     0.174 C 
BRANCH  16  17
HETATM   17  O2  UNL     1      -3.508   0.033   9.461  1.00  0.00    -0.389 OA
ATOM     18  H2  UNL     1      -3.010   0.448   8.767  1.00  0.00     0.210 HD
ENDBRANCH  16  17
BRANCH  16  19
HETATM   19  C5  UNL     1      -1.918   0.799  11.083  1.00  0.00     0.089 C 
BRANCH  19  20
HETATM   20  N3  UNL     1      -1.516   2.014  11.663  1.00  0.00    -0.392 N 
ATOM     21  H3  UNL     1      -1.453   2.090  12.678  1.00  0.00     0.159 HD
BRANCH  20  22
HETATM   22  C6  UNL     1      -1.199   3.128  10.864  1.00  0.00     0.018 C 
HETATM   23  C7  UNL     1      -0.004   3.829  11.561  1.00  0.00     0.037 C 
HETATM   24  C8  UNL     1      -2.284   4.191  10.832  1.00  0.00     0.037 C 
HETATM   25  C9  UNL     1      -0.755   2.878   9.460  1.00  0.00     0.037 C 
ENDBRANCH  20  22
ENDBRANCH  19  20
ENDBRANCH  16  19
ENDBRANCH  15  16
ENDBRANCH   5  15
TORSDOF 6
ENDMDL
MODEL 4
REMARK VINA RESULT: -7.309849849      2.161      5.240
REMARK  6 active torsions:
REMARK  status: ('A' for Active; 'I' for Inactive)
REMARK    1  A    between atoms: N2_5  and  C3_6 
REMARK    2  A    between atoms: C3_6  and  C4_7 
REMARK    3  A    between atoms: C4_7  and  O2_8 
REMARK    4  A    between atoms: C4_7  and  C5_10 
REMARK    5  A    between atoms: C5_10  and  N3_11 
REMARK    6  A    between atoms: N3_11  and  C6_13 
ROOT
HETATM    1  C1  UNL     1      -4.534   0.816  13.509  1.00  0.00     0.155 C 
HETATM    2  N1  UNL     1      -4.316   2.193  13.963  1.00  0.00    -0.327 N 
HETATM    3  C2  UNL     1      -3.694   3.247  13.209  1.00  0.00     0.321 C 
HETATM    4  O1  UNL     1      -3.631   3.234  11.952  1.00  0.00    -0.247 OA
HETATM    5  N2  UNL     1      -3.194   4.244  14.093  1.00  0.00    -0.329 N 
HETATM    6  C10 UNL     1      -3.961   4.079  15.324  1.00  0.00     0.158 C 
HETATM    7  C11 UNL     1      -4.674   2.774  15.234  1.00  0.00     0.053 C 
HETATM    8  C12 UNL     1      -6.184   2.927  15.336  1.00  0.00     0.039 C 
HETATM    9  C13 UNL     1      -6.683   2.910  16.754  1.00  0.00     0.081 C 
HETATM   10  C14 UNL     1      -6.437   1.603  17.457  1.00  0.00     0.243 C 
HETATM   11  F1  UNL     1      -7.548   0.782  17.425  1.00  0.00    -0.206 F 
HETATM   12  F2  UNL     1      -6.089   1.762  18.790  1.00  0.00    -0.206 F 
HETATM   13  C15 UNL     1      -5.354   0.869  16.694  1.00  0.00     0.081 C 
HETATM   14  C16 UNL     1      -4.257   1.829  16.369  1.00  0.00     0.039 C 
ENDROOT
BRANCH   5  15
HETATM   15  C3  UNL     1      -2.181   5.229  13.867  1.00  0.00     0.164 C 
BRANCH  15  16
HETATM   16  C4  UNL     1      -2.656   6.635  13.699  1.00  0.00     0.174 C 
BRANCH  16  17
HETATM   17  O2  UNL     1      -2.685   7.326  14.922  1.00  0.00    -0.389 OA
ATOM     18  H2  UNL     1      -3.462   7.119  15.427  1.00  0.00     0.210 HD
ENDBRANCH  16  17
BRANCH  16  19
HETATM   19  C5  UNL     1      -3.974   6.769  12.979  1.00  0.00     0.089 C 
BRANCH  19  20
HETATM   20  N3  UNL     1      -4.749   7.887  13.327  1.00  0.00    -0.392 N 
ATOM     21  H3  UNL     1      -4.360   8.824  13.213  1.00  0.00     0.159 HD
BRANCH  20  22
HETATM   22  C6  UNL     1      -6.054   7.735  13.832  1.00  0.00     0.018 C 
HETATM   23  C7  UNL     1      -6.036   8.347  15.257  1.00  0.00     0.037 C 
HETATM   24  C8  UNL     1      -6.462   6.290  14.055  1.00  0.00     0.037 C 
HETATM   25  C9  UNL     1      -7.166   8.425  13.113  1.00  0.00     0.037 C 
ENDBRANCH  20  22
ENDBRANCH  19  20
ENDBRANCH  16  19
ENDBRANCH  15  16
ENDBRANCH   5  15
TORSDOF 6
ENDMDL
MODEL 5
REMARK VINA RESULT: -7.305005871      3.203      4.570
REMARK  6 active torsions:
REMARK  status: ('A' for Active; 'I' for Inactive)
REMARK    1  A    between atoms: N2_5  and  C3_6 
REMARK    2  A    between atoms: C3_6  and  C4_7 
REMARK    3  A    between atoms: C4_7  and  O2_8 
REMARK    4  A    between atoms: C4_7  and  C5_10 
REMARK    5  A    between atoms: C5_10  and  N3_11 
REMARK    6  A    between atoms: N3_11  and  C6_13 
ROOT
HETATM    1  C1  UNL     1      -2.781   5.525  13.535  1.00  0.00     0.155 C 
HETATM    2  N1  UNL     1      -3.832   5.050  14.440  1.00  0.00    -0.327 N 
HETATM    3  C2  UNL     1      -3.756   3.900  15.300  1.00  0.00     0.321 C 
HETATM    4  O1  UNL     1      -2.660   3.410  15.680  1.00  0.00    -0.247 OA
HETATM    5  N2  UNL     1      -5.067   3.449  15.622  1.00  0.00    -0.329 N 
HETATM    6  C10 UNL     1      -5.930   4.607  15.409  1.00  0.00     0.158 C 
HETATM    7  C11 UNL     1      -5.138   5.622  14.660  1.00  0.00     0.053 C 
HETATM    8  C12 UNL     1      -5.016   6.938  15.413  1.00  0.00     0.039 C 
HETATM    9  C13 UNL     1      -6.158   7.878  15.145  1.00  0.00     0.081 C 
HETATM   10  C14 UNL     1      -6.238   8.326  13.711  1.00  0.00     0.243 C 
HETATM   11  F1  UNL     1      -5.639   9.556  13.520  1.00  0.00    -0.206 F 
HETATM   12  F2  UNL     1      -7.542   8.434  13.249  1.00  0.00    -0.206 F 
HETATM   13  C15 UNL     1      -5.443   7.342  12.879  1.00  0.00     0.081 C 
HETATM   14  C16 UNL     1      -5.789   5.954  13.310  1.00  0.00     0.039 C 
ENDROOT
BRANCH   5  15
HETATM   15  C3  UNL     1      -5.494   2.163  16.079  1.00  0.00     0.164 C 
BRANCH  15  16
HETATM   16  C4  UNL     1      -4.804   0.986  15.470  1.00  0.00     0.174 C 
BRANCH  16  17
HETATM   17  O2  UNL     1      -3.663   0.614  16.200  1.00  0.00    -0.389 OA
ATOM     18  H2  UNL     1      -3.688  -0.300  16.455  1.00  0.00     0.210 HD
ENDBRANCH  16  17
BRANCH  16  19
HETATM   19  C5  UNL     1      -4.475   1.141  14.007  1.00  0.00     0.089 C 
BRANCH  19  20
HETATM   20  N3  UNL     1      -4.115  -0.038  13.334  1.00  0.00    -0.392 N 
ATOM     21  H3  UNL     1      -4.080  -0.919  13.847  1.00  0.00     0.159 HD
BRANCH  20  22
HETATM   22  C6  UNL     1      -3.801  -0.021  11.962  1.00  0.00     0.018 C 
HETATM   23  C7  UNL     1      -3.353  -1.463  11.608  1.00  0.00     0.037 C 
HETATM   24  C8  UNL     1      -2.596   0.836  11.617  1.00  0.00     0.037 C 
HETATM   25  C9  UNL     1      -4.894   0.307  10.999  1.00  0.00     0.037 C 
ENDBRANCH  20  22
ENDBRANCH  19  20
ENDBRANCH  16  19
ENDBRANCH  15  16
ENDBRANCH   5  15
TORSDOF 6
ENDMDL
