MODEL 1
REMARK VINA RESULT: -7.366855259      0.000      0.000
REMARK  6 active torsions:
REMARK  status: ('A' for Active; 'I' for Inactive)
REMARK    1  A    between atoms: C3_3  and  N1_5 
REMARK    2  A    between atoms: N1_5  and  C5_7 
REMARK    3  A    between atoms: C8_13  and  N3_14 
REMARK    4  A    between atoms: N3_14  and  C9_16 
REMARK    5  A    between atoms: C9_16  and  C10_17 
REMARK    6  A    between atoms: C10_17  and  C11_18 
ROOT
HETATM    1  C1  UNL     1      -0.414   3.618   8.066  1.00  0.00     0.014 C 
HETATM    2  C2  UNL     1      -0.732   3.407   9.212  1.00  0.00    -0.092 C 
HETATM    3  C3  UNL     1      -1.146   3.158  10.612  1.00  0.00     0.174 C 
HETATM    4  C4  UNL     1      -0.084   3.827  11.488  1.00  0.00     0.046 C 
ENDROOT
BRANCH   3   5
HETATM    5  N1  UNL     1      -1.159   1.742  10.797  1.00  0.00    -0.211 N 
ATOM      6  H1  UNL     1      -0.331   1.225  10.503  1.00  0.00     0.179 HD
BRANCH   5   7
HETATM    7  C5  UNL     1      -2.128   1.062  11.306  1.00  0.00     0.681 A 
HETATM    8  N2  UNL     1      -2.138  -0.279  11.197  1.00  0.00    -0.181 N 
HETATM    9  C6  UNL     1      -3.156  -0.968  11.733  1.00  0.00     0.122 A 
ATOM     10  H2  UNL     1      -1.383  -0.764  10.713  1.00  0.00     0.185 HD
HETATM   11 CL1  UNL     1      -3.153  -2.714  11.580  1.00  0.00    -0.064 Cl
HETATM   12  C7  UNL     1      -4.161  -0.282  12.380  1.00  0.00     0.091 A 
HETATM   13  C8  UNL     1      -4.151   1.089  12.492  1.00  0.00     0.119 A 
HETATM   14  N5  UNL     1      -3.100   1.747  11.933  1.00  0.00    -0.177 N 
ATOM     15  H5  UNL     1      -3.048   2.765  11.991  1.00  0.00     0.185 HD
BRANCH  13  16
HETATM   16  N3  UNL     1      -5.075   1.750  13.090  1.00  0.00    -0.376 N 
ATOM     17  H3  UNL     1      -5.977   1.321  13.297  1.00  0.00     0.161 HD
BRANCH  16  18
HETATM   18  C9  UNL     1      -4.798   3.119  13.461  1.00  0.00     0.123 C 
BRANCH  18  19
HETATM   19  C10 UNL     1      -5.164   3.441  14.885  1.00  0.00     0.055 C 
BRANCH  19  20
HETATM   20  C11 UNL     1      -5.716   2.293  15.650  1.00  0.00     0.227 C 
HETATM   21  C12 UNL     1      -4.881   1.768  16.761  1.00  0.00     0.074 C 
HETATM   22  C13 UNL     1      -5.902   0.948  17.569  1.00  0.00     0.200 C 
HETATM   23  F1  UNL     1      -5.781   1.246  18.914  1.00  0.00    -0.248 F 
HETATM   24  C14 UNL     1      -7.242   1.400  17.037  1.00  0.00     0.309 C 
HETATM   25  N4  UNL     1      -6.978   2.617  16.296  1.00  0.00     0.091 N 
HETATM   26  C15 UNL     1      -6.875   3.754  17.156  1.00  0.00     0.310 C 
ENDBRANCH  19  20
ENDBRANCH  18  19
ENDBRANCH  16  18
ENDBRANCH  13  16
ENDBRANCH   5   7
ENDBRANCH   3   5
TORSDOF 6
ENDMDL
MODEL 2
REMARK VINA RESULT: -7.290322877      1.075      1.452
REMARK  6 active torsions:
REMARK  status: ('A' for Active; 'I' for Inactive)
REMARK    1  A    between atoms: C3_3  and  N1_5 
REMARK    2  A    between atoms: N1_5  and  C5_7 
REMARK    3  A    between atoms: C8_13  and  N3_14 
REMARK    4  A    between atoms: N3_14  and  C9_16 
REMARK    5  A    between atoms: C9_16  and  C10_17 
REMARK    6  A    between atoms: C10_17  and  C11_18 
ROOT
HETATM    1  C1  UNL     1      -0.346   3.660   7.828  1.00  0.00     0.014 C 
HETATM    2  C2  UNL     1      -0.656   3.577   8.992  1.00  0.00    -0.092 C 
HETATM    3  C3  UNL     1      -1.061   3.484  10.413  1.00  0.00     0.174 C 
HETATM    4  C4  UNL     1      -0.007   4.266  11.202  1.00  0.00     0.046 C 
ENDROOT
BRANCH   3   5
HETATM    5  N1  UNL     1      -1.048   2.098  10.760  1.00  0.00    -0.211 N 
ATOM      6  H1  UNL     1      -0.176   1.589  10.620  1.00  0.00     0.179 HD
BRANCH   5   7
HETATM    7  C5  UNL     1      -2.046   1.436  11.235  1.00  0.00     0.681 A 
HETATM    8  N2  UNL     1      -2.048   0.092  11.183  1.00  0.00    -0.181 N 
HETATM    9  C6  UNL     1      -3.096  -0.579  11.683  1.00  0.00     0.122 A 
ATOM     10  H2  UNL     1      -1.263  -0.411  10.768  1.00  0.00     0.185 HD
HETATM   11 CL1  UNL     1      -3.080  -2.330  11.605  1.00  0.00    -0.064 Cl
HETATM   12  C7  UNL     1      -4.140   0.129  12.236  1.00  0.00     0.091 A 
HETATM   13  C8  UNL     1      -4.140   1.504  12.290  1.00  0.00     0.119 A 
HETATM   14  N5  UNL     1      -3.057   2.143  11.771  1.00  0.00    -0.177 N 
ATOM     15  H5  UNL     1      -3.011   3.162  11.789  1.00  0.00     0.185 HD
BRANCH  13  16
HETATM   16  N3  UNL     1      -5.101   2.185  12.801  1.00  0.00    -0.376 N 
ATOM     17  H3  UNL     1      -6.072   1.904  12.670  1.00  0.00     0.161 HD
BRANCH  16  18
HETATM   18  C9  UNL     1      -4.763   3.363  13.568  1.00  0.00     0.123 C 
BRANCH  18  19
HETATM   19  C10 UNL     1      -4.072   3.054  14.870  1.00  0.00     0.055 C 
BRANCH  19  20
HETATM   20  C11 UNL     1      -4.982   2.977  16.043  1.00  0.00     0.227 C 
HETATM   21  C12 UNL     1      -6.440   2.985  15.758  1.00  0.00     0.074 C 
HETATM   22  C13 UNL     1      -7.028   2.457  17.078  1.00  0.00     0.200 C 
HETATM   23  F1  UNL     1      -7.968   1.477  16.812  1.00  0.00    -0.248 F 
HETATM   24  C14 UNL     1      -5.837   1.875  17.805  1.00  0.00     0.309 C 
HETATM   25  N4  UNL     1      -4.791   1.755  16.809  1.00  0.00     0.091 N 
HETATM   26  C15 UNL     1      -4.946   0.580  16.010  1.00  0.00     0.310 C 
ENDBRANCH  19  20
ENDBRANCH  18  19
ENDBRANCH  16  18
ENDBRANCH  13  16
ENDBRANCH   5   7
ENDBRANCH   3   5
TORSDOF 6
ENDMDL
MODEL 3
REMARK VINA RESULT: -7.159602307      2.345      3.958
REMARK  6 active torsions:
REMARK  status: ('A' for Active; 'I' for Inactive)
REMARK    1  A    between atoms: C3_3  and  N1_5 
REMARK    2  A    between atoms: N1_5  and  C5_7 
REMARK    3  A    between atoms: C8_13  and  N3_14 
REMARK    4  A    between atoms: N3_14  and  C9_16 
REMARK    5  A    between atoms: C9_16  and  C10_17 
REMARK    6  A    between atoms: C10_17  and  C11_18 
ROOT
HETATM    1  C1  UNL     1      -2.975  -2.811  11.559  1.00  0.00     0.014 C 
HETATM    2  C2  UNL     1      -3.285  -1.647  11.632  1.00  0.00    -0.092 C 
HETATM    3  C3  UNL     1      -3.665  -0.220  11.748  1.00  0.00     0.174 C 
HETATM    4  C4  UNL     1      -4.865  -0.029  10.816  1.00  0.00     0.046 C 
ENDROOT
BRANCH   3   5
HETATM    5  N1  UNL     1      -2.541   0.548  11.315  1.00  0.00    -0.211 N 
ATOM      6  H1  UNL     1      -1.899   0.107  10.658  1.00  0.00     0.179 HD
BRANCH   5   7
HETATM    7  C5  UNL     1      -2.270   1.752  11.686  1.00  0.00     0.681 A 
HETATM    8  N2  UNL     1      -1.034   2.250  11.501  1.00  0.00    -0.181 N 
HETATM    9  C6  UNL     1      -0.772   3.505  11.893  1.00  0.00     0.122 A 
ATOM     10  H2  UNL     1      -0.307   1.681  11.068  1.00  0.00     0.185 HD
HETATM   11 CL1  UNL     1       0.845   4.137  11.644  1.00  0.00    -0.064 Cl
HETATM   12  C7  UNL     1      -1.777   4.248  12.474  1.00  0.00     0.091 A 
HETATM   13  C8  UNL     1      -3.041   3.740  12.663  1.00  0.00     0.119 A 
HETATM   14  N5  UNL     1      -3.262   2.463  12.251  1.00  0.00    -0.177 N 
ATOM     15  H5  UNL     1      -4.184   2.042  12.370  1.00  0.00     0.185 HD
BRANCH  13  16
HETATM   16  N3  UNL     1      -3.993   4.412  13.202  1.00  0.00    -0.376 N 
ATOM     17  H3  UNL     1      -4.143   5.393  12.964  1.00  0.00     0.161 HD
BRANCH  16  18
HETATM   18  C9  UNL     1      -4.845   3.737  14.154  1.00  0.00     0.123 C 
BRANCH  18  19
HETATM   19  C10 UNL     1      -4.113   3.249  15.375  1.00  0.00     0.055 C 
BRANCH  19  20
HETATM   20  C11 UNL     1      -4.998   2.767  16.468  1.00  0.00     0.227 C 
HETATM   21  C12 UNL     1      -6.460   2.794  16.203  1.00  0.00     0.074 C 
HETATM   22  C13 UNL     1      -7.000   1.854  17.295  1.00  0.00     0.200 C 
HETATM   23  F1  UNL     1      -7.900   0.961  16.739  1.00  0.00    -0.248 F 
HETATM   24  C14 UNL     1      -5.772   1.132  17.801  1.00  0.00     0.309 C 
HETATM   25  N4  UNL     1      -4.739   1.379  16.814  1.00  0.00     0.091 N 
HETATM   26  C15 UNL     1      -4.856   0.504  15.690  1.00  0.00     0.310 C 
ENDBRANCH  19  20
ENDBRANCH  18  19
ENDBRANCH  16  18
ENDBRANCH  13  16
ENDBRANCH   5   7
ENDBRANCH   3   5
TORSDOF 6
ENDMDL
MODEL 4
REMARK VINA RESULT: -7.155099959      3.349      6.754
REMARK  6 active torsions:
REMARK  status: ('A' for Active; 'I' for Inactive)
REMARK    1  A    between atoms: C3_3  and  N1_5 
REMARK    2  A    between atoms: N1_5  and  C5_7 
REMARK    3  A    between atoms: C8_13  and  N3_14 
REMARK    4  A    between atoms: N3_14  and  C9_16 
REMARK    5  A    between atoms: C9_16  and  C10_17 
REMARK    6  A    between atoms: C10_17  and  C11_18 
ROOT
HETATM    1  C1  UNL     1      -6.382   1.754  18.213  1.00  0.00     0.014 C 
HETATM    2  C2  UNL     1      -5.793   1.763  17.160  1.00  0.00    -0.092 C 
HETATM    3  C3  UNL     1      -5.091   1.786  15.856  1.00  0.00     0.174 C 
HETATM    4  C4  UNL     1      -4.550   0.370  15.646  1.00  0.00     0.046 C 
ENDROOT
BRANCH   3   5
HETATM    5  N1  UNL     1      -4.031   2.738  15.969  1.00  0.00    -0.211 N 
ATOM      6  H1  UNL     1      -3.385   2.627  16.750  1.00  0.00     0.179 HD
BRANCH   5   7
HETATM    7  C5  UNL     1      -3.822   3.724  15.167  1.00  0.00     0.681 A 
HETATM    8  N2  UNL     1      -4.610   4.813  15.220  1.00  0.00    -0.181 N 
HETATM    9  C6  UNL     1      -4.375   5.829  14.377  1.00  0.00     0.122 A 
ATOM     10  H2  UNL     1      -5.376   4.865  15.891  1.00  0.00     0.185 HD
HETATM   11 CL1  UNL     1      -5.414   7.239  14.460  1.00  0.00    -0.064 Cl
HETATM   12  C7  UNL     1      -3.333   5.728  13.481  1.00  0.00     0.091 A 
HETATM   13  C8  UNL     1      -2.525   4.615  13.427  1.00  0.00     0.119 A 
HETATM   14  N5  UNL     1      -2.800   3.609  14.300  1.00  0.00    -0.177 N 
ATOM     15  H5  UNL     1      -2.229   2.763  14.297  1.00  0.00     0.185 HD
BRANCH  13  16
HETATM   16  N3  UNL     1      -1.548   4.498  12.602  1.00  0.00    -0.376 N 
ATOM     17  H3  UNL     1      -0.843   5.230  12.516  1.00  0.00     0.161 HD
BRANCH  16  18
HETATM   18  C9  UNL     1      -1.479   3.298  11.800  1.00  0.00     0.123 C 
BRANCH  18  19
HETATM   19  C10 UNL     1      -2.649   3.130  10.868  1.00  0.00     0.055 C 
BRANCH  19  20
HETATM   20  C11 UNL     1      -3.067   1.719  10.659  1.00  0.00     0.227 C 
HETATM   21  C12 UNL     1      -2.506   0.711  11.595  1.00  0.00     0.074 C 
HETATM   22  C13 UNL     1      -3.455  -0.482  11.387  1.00  0.00     0.200 C 
HETATM   23  F1  UNL     1      -3.847  -0.987  12.614  1.00  0.00    -0.248 F 
HETATM   24  C14 UNL     1      -4.634   0.108  10.648  1.00  0.00     0.309 C 
HETATM   25  N4  UNL     1      -4.505   1.545  10.790  1.00  0.00     0.091 N 
HETATM   26  C15 UNL     1      -4.997   2.002  12.052  1.00  0.00     0.310 C 
ENDBRANCH  19  20
ENDBRANCH  18  19
ENDBRANCH  16  18
ENDBRANCH  13  16
ENDBRANCH   5   7
ENDBRANCH   3   5
TORSDOF 6
ENDMDL
MODEL 5
REMARK VINA RESULT: -7.139055534      2.141      3.750
REMARK  6 active torsions:
REMARK  status: ('A' for Active; 'I' for Inactive)
REMARK    1  A    between atoms: C3_3  and  N1_5 
REMARK    2  A    between atoms: N1_5  and  C5_7 
REMARK    3  A    between atoms: C8_13  and  N3_14 
REMARK    4  A    between atoms: N3_14  and  C9_16 
REMARK    5  A    between atoms: C9_16  and  C10_17 
REMARK    6  A    between atoms: C10_17  and  C11_18 
ROOT
HETATM    1  C1  UNL     1      -2.999  -2.702  11.542  1.00  0.00     0.014 C 
HETATM    2  C2  UNL     1      -3.312  -1.547  11.703  1.00  0.00    -0.092 C 
HETATM    3  C3  UNL     1      -3.699  -0.135  11.927  1.00  0.00     0.174 C 
HETATM    4  C4  UNL     1      -4.797   0.166  10.903  1.00  0.00     0.046 C 
ENDROOT
BRANCH   3   5
HETATM    5  N1  UNL     1      -2.535   0.659  11.692  1.00  0.00    -0.211 N 
ATOM      6  H1  UNL     1      -1.652   0.166  11.559  1.00  0.00     0.179 HD
BRANCH   5   7
HETATM    7  C5  UNL     1      -2.505   1.946  11.634  1.00  0.00     0.681 A 
HETATM    8  N2  UNL     1      -2.043   2.559  10.530  1.00  0.00    -0.181 N 
HETATM    9  C6  UNL     1      -2.021   3.899  10.490  1.00  0.00     0.122 A 
ATOM     10  H2  UNL     1      -1.715   2.012   9.734  1.00  0.00     0.185 HD
HETATM   11 CL1  UNL     1      -1.415   4.680   9.042  1.00  0.00    -0.064 Cl
HETATM   12  C7  UNL     1      -2.472   4.608  11.582  1.00  0.00     0.091 A 
HETATM   13  C8  UNL     1      -2.944   3.982  12.712  1.00  0.00     0.119 A 
HETATM   14  N5  UNL     1      -2.949   2.622  12.709  1.00  0.00    -0.177 N 
ATOM     15  H5  UNL     1      -3.290   2.113  13.525  1.00  0.00     0.185 HD
BRANCH  13  16
HETATM   16  N3  UNL     1      -3.370   4.621  13.741  1.00  0.00    -0.376 N 
ATOM     17  H3  UNL     1      -3.406   5.641  13.748  1.00  0.00     0.161 HD
BRANCH  16  18
HETATM   18  C9  UNL     1      -3.795   3.853  14.888  1.00  0.00     0.123 C 
BRANCH  18  19
HETATM   19  C10 UNL     1      -5.291   3.759  15.028  1.00  0.00     0.055 C 
BRANCH  19  20
HETATM   20  C11 UNL     1      -5.768   2.507  15.672  1.00  0.00     0.227 C 
HETATM   21  C12 UNL     1      -4.891   1.916  16.715  1.00  0.00     0.074 C 
HETATM   22  C13 UNL     1      -5.854   0.960  17.439  1.00  0.00     0.200 C 
HETATM   23  F1  UNL     1      -5.732   1.122  18.807  1.00  0.00    -0.248 F 
HETATM   24  C14 UNL     1      -7.224   1.388  16.967  1.00  0.00     0.309 C 
HETATM   25  N4  UNL     1      -7.038   2.690  16.357  1.00  0.00     0.091 N 
HETATM   26  C15 UNL     1      -6.988   3.734  17.332  1.00  0.00     0.310 C 
ENDBRANCH  19  20
ENDBRANCH  18  19
ENDBRANCH  16  18
ENDBRANCH  13  16
ENDBRANCH   5   7
ENDBRANCH   3   5
TORSDOF 6
ENDMDL
