MODEL 1
REMARK VINA RESULT: -7.250334000      0.000      0.000
REMARK  6 active torsions:
REMARK  status: ('A' for Active; 'I' for Inactive)
REMARK    1  A    between atoms: O1_1  and  C1_3 
REMARK    2  A    between atoms: C1_3  and  C2_4 
REMARK    3  A    between atoms: C5_8  and  C6_9 
REMARK    4  A    between atoms: C6_9  and  O2_10 
REMARK    5  A    between atoms: C8_13  and  C9_14 
REMARK    6  A    between atoms: C9_14  and  C10_15 
ROOT
HETATM    1  C1  UNL     1      -4.649   1.735  13.071  1.00  0.00     0.118 C 
HETATM    2  N1  UNL     1      -4.377   2.870  13.775  1.00  0.00    -0.348 N 
HETATM    3  C5  UNL     1      -4.312   2.777  15.269  1.00  0.00     0.111 C 
HETATM    4  C7  UNL     1      -5.339   3.852  15.548  1.00  0.00     0.035 C 
HETATM    5  C8  UNL     1      -5.411   4.729  14.284  1.00  0.00     0.022 C 
HETATM    6  C11 UNL     1      -4.113   4.271  13.660  1.00  0.00     0.049 C 
HETATM    7  C12 UNL     1      -3.127   4.806  14.706  1.00  0.00     0.059 C 
HETATM    8  C13 UNL     1      -1.721   4.686  14.204  1.00  0.00     0.235 C 
HETATM    9  N2  UNL     1      -1.571   5.778  13.236  1.00  0.00    -0.074 N 
ATOM     10  H21 UNL     1      -0.939   5.514  12.479  1.00  0.00     0.277 HD
ATOM     11  H22 UNL     1      -1.038   6.550  13.633  1.00  0.00     0.277 HD
HETATM   12  C14 UNL     1      -2.817   6.226  12.726  1.00  0.00     0.244 C 
HETATM   13  C15 UNL     1      -3.674   4.951  12.454  1.00  0.00     0.009 A 
HETATM   14  C16 UNL     1      -4.279   4.904  11.109  1.00  0.00     0.014 A 
HETATM   15  C17 UNL     1      -2.997   4.258  11.258  1.00  0.00     0.014 A 
ENDROOT
BRANCH   5  16
HETATM   16  C9  UNL     1      -5.593   6.109  14.715  1.00  0.00     0.078 C 
BRANCH  16  17
HETATM   17  C10 UNL     1      -6.762   6.646  13.829  1.00  0.00     0.353 C 
HETATM   18  F1  UNL     1      -7.420   7.640  14.490  1.00  0.00    -0.214 F 
HETATM   19  F2  UNL     1      -6.206   7.045  12.648  1.00  0.00    -0.214 F 
ENDBRANCH  16  17
ENDBRANCH   5  16
BRANCH   1  20
HETATM   20  O1  UNL     1      -4.692   0.563  13.729  1.00  0.00    -0.349 OA
ATOM     21  H1  UNL     1      -4.664   0.814  14.644  1.00  0.00     0.219 HD
ENDBRANCH   1  20
BRANCH   1  22
HETATM   22  C2  UNL     1      -4.950   1.367  11.666  1.00  0.00     0.060 A 
HETATM   23  C3  UNL     1      -3.884   1.015  10.705  1.00  0.00     0.013 A 
HETATM   24  C4  UNL     1      -4.551  -0.121  11.328  1.00  0.00     0.013 A 
ENDBRANCH   1  22
BRANCH   3  25
HETATM   25  C6  UNL     1      -4.759   1.550  15.938  1.00  0.00     0.189 C 
BRANCH  25  26
HETATM   26  O2  UNL     1      -3.604   0.832  16.441  1.00  0.00    -0.399 OA
ATOM     27  H2  UNL     1      -3.879  -0.018  16.764  1.00  0.00     0.209 HD
ENDBRANCH  25  26
ENDBRANCH   3  25
TORSDOF 6
ENDMDL
MODEL 2
REMARK VINA RESULT: -6.971145474      0.929      1.135
REMARK  6 active torsions:
REMARK  status: ('A' for Active; 'I' for Inactive)
REMARK    1  A    between atoms: O1_1  and  C1_3 
REMARK    2  A    between atoms: C1_3  and  C2_4 
REMARK    3  A    between atoms: C5_8  and  C6_9 
REMARK    4  A    between atoms: C6_9  and  O2_10 
REMARK    5  A    between atoms: C8_13  and  C9_14 
REMARK    6  A    between atoms: C9_14  and  C10_15 
ROOT
HETATM    1  C1  UNL     1      -4.535   1.691  13.176  1.00  0.00     0.118 C 
HETATM    2  N1  UNL     1      -4.182   2.926  13.633  1.00  0.00    -0.348 N 
HETATM    3  C5  UNL     1      -4.073   3.127  15.114  1.00  0.00     0.111 C 
HETATM    4  C7  UNL     1      -5.034   4.293  15.195  1.00  0.00     0.035 C 
HETATM    5  C8  UNL     1      -5.103   4.904  13.784  1.00  0.00     0.022 C 
HETATM    6  C11 UNL     1      -3.852   4.259  13.234  1.00  0.00     0.049 C 
HETATM    7  C12 UNL     1      -2.805   4.934  14.131  1.00  0.00     0.059 C 
HETATM    8  C13 UNL     1      -1.424   4.638  13.632  1.00  0.00     0.235 C 
HETATM    9  N2  UNL     1      -1.251   5.505  12.462  1.00  0.00    -0.074 N 
ATOM     10  H21 UNL     1      -0.658   5.062  11.760  1.00  0.00     0.277 HD
ATOM     11  H22 UNL     1      -0.667   6.310  12.685  1.00  0.00     0.277 HD
HETATM   12  C14 UNL     1      -2.489   5.914  11.901  1.00  0.00     0.244 C 
HETATM   13  C15 UNL     1      -3.418   4.660  11.907  1.00  0.00     0.009 A 
HETATM   14  C16 UNL     1      -4.069   4.382  10.613  1.00  0.00     0.014 A 
HETATM   15  C17 UNL     1      -2.817   3.706  10.859  1.00  0.00     0.014 A 
ENDROOT
BRANCH   5  16
HETATM   16  C9  UNL     1      -5.200   6.350  13.934  1.00  0.00     0.078 C 
BRANCH  16  17
HETATM   17  C10 UNL     1      -5.624   6.562  15.423  1.00  0.00     0.353 C 
HETATM   18  F1  UNL     1      -4.662   7.273  16.077  1.00  0.00    -0.214 F 
HETATM   19  F2  UNL     1      -6.842   7.176  15.400  1.00  0.00    -0.214 F 
ENDBRANCH  16  17
ENDBRANCH   5  16
BRANCH   1  20
HETATM   20  O1  UNL     1      -4.616   0.676  14.056  1.00  0.00    -0.349 OA
ATOM     21  H1  UNL     1      -5.525   0.685  14.331  1.00  0.00     0.219 HD
ENDBRANCH   1  20
BRANCH   1  22
HETATM   22  C2  UNL     1      -4.900   1.069  11.880  1.00  0.00     0.060 A 
HETATM   23  C3  UNL     1      -3.878   0.658  10.895  1.00  0.00     0.013 A 
HETATM   24  C4  UNL     1      -4.377  -0.413  11.747  1.00  0.00     0.013 A 
ENDBRANCH   1  22
BRANCH   3  25
HETATM   25  C6  UNL     1      -4.559   2.084  16.024  1.00  0.00     0.189 C 
BRANCH  25  26
HETATM   26  O2  UNL     1      -3.433   1.315  16.516  1.00  0.00    -0.399 OA
ATOM     27  H2  UNL     1      -3.734   0.457  16.789  1.00  0.00     0.209 HD
ENDBRANCH  25  26
ENDBRANCH   3  25
TORSDOF 6
ENDMDL
MODEL 3
REMARK VINA RESULT: -6.821211415      3.135      4.728
REMARK  6 active torsions:
REMARK  status: ('A' for Active; 'I' for Inactive)
REMARK    1  A    between atoms: O1_1  and  C1_3 
REMARK    2  A    between atoms: C1_3  and  C2_4 
REMARK    3  A    between atoms: C5_8  and  C6_9 
REMARK    4  A    between atoms: C6_9  and  O2_10 
REMARK    5  A    between atoms: C8_13  and  C9_14 
REMARK    6  A    between atoms: C9_14  and  C10_15 
ROOT
HETATM    1  C1  UNL     1      -5.022   4.513  14.080  1.00  0.00     0.118 C 
HETATM    2  N1  UNL     1      -4.378   5.660  13.722  1.00  0.00    -0.348 N 
HETATM    3  C5  UNL     1      -2.972   5.553  13.215  1.00  0.00     0.111 C 
HETATM    4  C7  UNL     1      -2.362   6.513  14.213  1.00  0.00     0.035 C 
HETATM    5  C8  UNL     1      -3.511   7.395  14.733  1.00  0.00     0.022 C 
HETATM    6  C11 UNL     1      -4.504   7.082  13.638  1.00  0.00     0.049 C 
HETATM    7  C12 UNL     1      -3.766   7.701  12.443  1.00  0.00     0.059 C 
HETATM    8  C13 UNL     1      -4.658   7.733  11.241  1.00  0.00     0.235 C 
HETATM    9  N2  UNL     1      -5.580   8.848  11.484  1.00  0.00    -0.074 N 
ATOM     10  H21 UNL     1      -6.498   8.661  11.079  1.00  0.00     0.277 HD
ATOM     11  H22 UNL     1      -5.321   9.666  10.934  1.00  0.00     0.277 HD
HETATM   12  C14 UNL     1      -5.687   9.173  12.862  1.00  0.00     0.244 C 
HETATM   13  C15 UNL     1      -5.755   7.820  13.636  1.00  0.00     0.009 A 
HETATM   14  C16 UNL     1      -6.867   7.730  14.601  1.00  0.00     0.014 A 
HETATM   15  C17 UNL     1      -7.125   7.217  13.276  1.00  0.00     0.014 A 
ENDROOT
BRANCH   5  16
HETATM   16  C9  UNL     1      -2.987   8.742  14.910  1.00  0.00     0.078 C 
BRANCH  16  17
HETATM   17  C10 UNL     1      -1.548   8.531  15.481  1.00  0.00     0.353 C 
HETATM   18  F1  UNL     1      -0.669   9.336  14.818  1.00  0.00    -0.214 F 
HETATM   19  F2  UNL     1      -1.617   8.780  16.821  1.00  0.00    -0.214 F 
ENDBRANCH  16  17
ENDBRANCH   5  16
BRANCH   1  20
HETATM   20  O1  UNL     1      -4.431   3.333  13.818  1.00  0.00    -0.349 OA
ATOM     21  H1  UNL     1      -5.147   2.777  13.534  1.00  0.00     0.219 HD
ENDBRANCH   1  20
BRANCH   1  22
HETATM   22  C2  UNL     1      -6.294   4.135  14.743  1.00  0.00     0.060 A 
HETATM   23  C3  UNL     1      -6.339   3.148  15.841  1.00  0.00     0.013 A 
HETATM   24  C4  UNL     1      -6.333   4.543  16.265  1.00  0.00     0.013 A 
ENDBRANCH   1  22
BRANCH   3  25
HETATM   25  C6  UNL     1      -2.256   4.277  13.329  1.00  0.00     0.189 C 
BRANCH  25  26
HETATM   26  O2  UNL     1      -1.515   4.253  14.576  1.00  0.00    -0.399 OA
ATOM     27  H2  UNL     1      -1.319   3.353  14.806  1.00  0.00     0.209 HD
ENDBRANCH  25  26
ENDBRANCH   3  25
TORSDOF 6
ENDMDL
MODEL 4
REMARK VINA RESULT: -6.615219249      2.902      4.762
REMARK  6 active torsions:
REMARK  status: ('A' for Active; 'I' for Inactive)
REMARK    1  A    between atoms: O1_1  and  C1_3 
REMARK    2  A    between atoms: C1_3  and  C2_4 
REMARK    3  A    between atoms: C5_8  and  C6_9 
REMARK    4  A    between atoms: C6_9  and  O2_10 
REMARK    5  A    between atoms: C8_13  and  C9_14 
REMARK    6  A    between atoms: C9_14  and  C10_15 
ROOT
HETATM    1  C1  UNL     1      -4.559   2.195  13.386  1.00  0.00     0.118 C 
HETATM    2  N1  UNL     1      -3.860   3.037  12.574  1.00  0.00    -0.348 N 
HETATM    3  C5  UNL     1      -3.386   2.515  11.252  1.00  0.00     0.111 C 
HETATM    4  C7  UNL     1      -1.925   2.848  11.455  1.00  0.00     0.035 C 
HETATM    5  C8  UNL     1      -1.871   3.946  12.534  1.00  0.00     0.022 C 
HETATM    6  C11 UNL     1      -3.322   4.358  12.461  1.00  0.00     0.049 C 
HETATM    7  C12 UNL     1      -3.353   4.921  11.034  1.00  0.00     0.059 C 
HETATM    8  C13 UNL     1      -4.651   5.625  10.780  1.00  0.00     0.235 C 
HETATM    9  N2  UNL     1      -4.527   6.908  11.482  1.00  0.00    -0.074 N 
ATOM     10  H21 UNL     1      -5.431   7.219  11.840  1.00  0.00     0.277 HD
ATOM     11  H22 UNL     1      -4.341   7.667  10.828  1.00  0.00     0.277 HD
HETATM   12  C14 UNL     1      -3.554   6.871  12.514  1.00  0.00     0.244 C 
HETATM   13  C15 UNL     1      -3.733   5.507  13.249  1.00  0.00     0.009 A 
HETATM   14  C16 UNL     1      -3.828   5.618  14.717  1.00  0.00     0.014 A 
HETATM   15  C17 UNL     1      -5.077   5.622  13.991  1.00  0.00     0.014 A 
ENDROOT
BRANCH   5  16
HETATM   16  C9  UNL     1      -0.806   4.870  12.169  1.00  0.00     0.078 C 
BRANCH  16  17
HETATM   17  C10 UNL     1       0.062   4.082  11.136  1.00  0.00     0.353 C 
HETATM   18  F1  UNL     1       0.129   4.781   9.967  1.00  0.00    -0.214 F 
HETATM   19  F2  UNL     1       1.276   3.873  11.722  1.00  0.00    -0.214 F 
ENDBRANCH  16  17
ENDBRANCH   5  16
BRANCH   1  20
HETATM   20  O1  UNL     1      -4.924   0.992  12.906  1.00  0.00    -0.349 OA
ATOM     21  H1  UNL     1      -5.647   1.190  12.322  1.00  0.00     0.219 HD
ENDBRANCH   1  20
BRANCH   1  22
HETATM   22  C2  UNL     1      -5.080   2.197  14.775  1.00  0.00     0.060 A 
HETATM   23  C3  UNL     1      -4.793   1.098  15.719  1.00  0.00     0.013 A 
HETATM   24  C4  UNL     1      -3.934   2.267  15.855  1.00  0.00     0.013 A 
ENDBRANCH   1  22
BRANCH   3  25
HETATM   25  C6  UNL     1      -3.480   1.079  10.965  1.00  0.00     0.189 C 
BRANCH  25  26
HETATM   26  O2  UNL     1      -4.457   0.863   9.915  1.00  0.00    -0.399 OA
ATOM     27  H2  UNL     1      -4.123   0.217   9.304  1.00  0.00     0.209 HD
ENDBRANCH  25  26
ENDBRANCH   3  25
TORSDOF 6
ENDMDL
MODEL 5
REMARK VINA RESULT: -6.487974929      2.854      4.546
REMARK  6 active torsions:
REMARK  status: ('A' for Active; 'I' for Inactive)
REMARK    1  A    between atoms: O1_1  and  C1_3 
REMARK    2  A    between atoms: C1_3  and  C2_4 
REMARK    3  A    between atoms: C5_8  and  C6_9 
REMARK    4  A    between atoms: C6_9  and  O2_10 
REMARK    5  A    between atoms: C8_13  and  C9_14 
REMARK    6  A    between atoms: C9_14  and  C10_15 
ROOT
HETATM    1  C1  UNL     1      -4.585   2.666  11.361  1.00  0.00     0.118 C 
HETATM    2  N1  UNL     1      -4.147   3.867  11.832  1.00  0.00    -0.348 N 
HETATM    3  C5  UNL     1      -3.672   4.886  10.841  1.00  0.00     0.111 C 
HETATM    4  C7  UNL     1      -2.305   5.092  11.456  1.00  0.00     0.035 C 
HETATM    5  C8  UNL     1      -2.409   4.627  12.920  1.00  0.00     0.022 C 
HETATM    6  C11 UNL     1      -3.916   4.634  13.018  1.00  0.00     0.049 C 
HETATM    7  C12 UNL     1      -4.174   6.137  12.846  1.00  0.00     0.059 C 
HETATM    8  C13 UNL     1      -5.608   6.455  13.139  1.00  0.00     0.235 C 
HETATM    9  N2  UNL     1      -5.711   6.417  14.602  1.00  0.00    -0.074 N 
ATOM     10  H21 UNL     1      -6.631   6.088  14.896  1.00  0.00     0.277 HD
ATOM     11  H22 UNL     1      -5.742   7.358  14.993  1.00  0.00     0.277 HD
HETATM   12  C14 UNL     1      -4.679   5.649  15.200  1.00  0.00     0.244 C 
HETATM   13  C15 UNL     1      -4.505   4.372  14.320  1.00  0.00     0.009 A 
HETATM   14  C16 UNL     1      -4.512   3.108  15.079  1.00  0.00     0.014 A 
HETATM   15  C17 UNL     1      -5.782   3.545  14.551  1.00  0.00     0.014 A 
ENDROOT
BRANCH   5  16
HETATM   16  C9  UNL     1      -1.598   5.529  13.727  1.00  0.00     0.078 C 
BRANCH  16  17
HETATM   17  C10 UNL     1      -0.687   6.268  12.695  1.00  0.00     0.353 C 
HETATM   18  F1  UNL     1      -0.598   7.588  13.024  1.00  0.00    -0.214 F 
HETATM   19  F2  UNL     1       0.513   5.619  12.696  1.00  0.00    -0.214 F 
ENDBRANCH  16  17
ENDBRANCH   5  16
BRANCH   1  20
HETATM   20  O1  UNL     1      -4.718   2.504  10.032  1.00  0.00    -0.349 OA
ATOM     21  H1  UNL     1      -5.034   3.347   9.730  1.00  0.00     0.219 HD
ENDBRANCH   1  20
BRANCH   1  22
HETATM   22  C2  UNL     1      -4.990   1.354  11.922  1.00  0.00     0.060 A 
HETATM   23  C3  UNL     1      -4.626   0.080  11.269  1.00  0.00     0.013 A 
HETATM   24  C4  UNL     1      -3.758   0.477  12.370  1.00  0.00     0.013 A 
ENDBRANCH   1  22
BRANCH   3  25
HETATM   25  C6  UNL     1      -3.476   4.495   9.440  1.00  0.00     0.189 C 
BRANCH  25  26
HETATM   26  O2  UNL     1      -4.505   5.109   8.623  1.00  0.00    -0.399 OA
ATOM     27  H2  UNL     1      -4.544   4.667   7.784  1.00  0.00     0.209 HD
ENDBRANCH  25  26
ENDBRANCH   3  25
TORSDOF 6
ENDMDL
