MODEL 1
REMARK VINA RESULT: -6.063754883      0.000      0.000
REMARK  6 active torsions:
REMARK  status: ('A' for Active; 'I' for Inactive)
REMARK    1  A    between atoms: C4_6  and  O2_7 
REMARK    2  A    between atoms: C4_6  and  C5_9 
REMARK    3  A    between atoms: C5_9  and  C6_10 
REMARK    4  A    between atoms: C6_10  and  C7_11 
REMARK    5  A    between atoms: C7_11  and  C8_12 
REMARK    6  A    between atoms: C8_12  and  O3_13 
ROOT
HETATM    1  O1  UNL     1      -3.397  -0.072   9.296  1.00  0.00    -0.295 OA
HETATM    2  C1  UNL     1      -3.768   0.335  10.376  1.00  0.00     0.158 C 
HETATM    3  C2  UNL     1      -4.361  -0.525  11.434  1.00  0.00     0.131 C 
HETATM    4 BR1  UNL     1      -3.355  -2.153  11.674  1.00  0.00    -0.083 Br
HETATM    5  C3  UNL     1      -4.211   0.394  12.653  1.00  0.00     0.063 C 
HETATM    6  C4  UNL     1      -4.597   1.722  12.038  1.00  0.00     0.079 C 
HETATM    7  C9  UNL     1      -3.694   1.752  10.823  1.00  0.00     0.162 C 
HETATM    8 BR2  UNL     1      -1.860   2.105  11.341  1.00  0.00    -0.080 Br
ENDROOT
BRANCH   6   9
HETATM    9  O2  UNL     1      -5.905   1.665  11.590  1.00  0.00    -0.388 OA
ATOM     10  H2  UNL     1      -6.043   2.324  10.920  1.00  0.00     0.210 HD
ENDBRANCH   6   9
BRANCH   6  11
HETATM   11  C5  UNL     1      -4.353   2.874  12.969  1.00  0.00     0.039 C 
BRANCH  11  12
HETATM   12  C6  UNL     1      -5.142   2.794  14.232  1.00  0.00     0.005 C 
BRANCH  12  13
HETATM   13  C7  UNL     1      -4.253   2.897  15.452  1.00  0.00     0.026 C 
BRANCH  13  14
HETATM   14  C8  UNL     1      -4.610   1.746  16.369  1.00  0.00     0.164 C 
BRANCH  14  15
HETATM   15  O3  UNL     1      -3.599   0.784  16.368  1.00  0.00    -0.401 OA
ATOM     16  H3  UNL     1      -3.647   0.247  17.151  1.00  0.00     0.209 HD
ENDBRANCH  14  15
ENDBRANCH  13  14
ENDBRANCH  12  13
ENDBRANCH  11  12
ENDBRANCH   6  11
TORSDOF 6
ENDMDL
MODEL 2
REMARK VINA RESULT: -5.530204591      1.377      1.599
REMARK  6 active torsions:
REMARK  status: ('A' for Active; 'I' for Inactive)
REMARK    1  A    between atoms: C4_6  and  O2_7 
REMARK    2  A    between atoms: C4_6  and  C5_9 
REMARK    3  A    between atoms: C5_9  and  C6_10 
REMARK    4  A    between atoms: C6_10  and  C7_11 
REMARK    5  A    between atoms: C7_11  and  C8_12 
REMARK    6  A    between atoms: C8_12  and  O3_13 
ROOT
HETATM    1  O1  UNL     1      -3.384  -0.140   9.275  1.00  0.00    -0.295 OA
HETATM    2  C1  UNL     1      -3.760   0.332  10.326  1.00  0.00     0.158 C 
HETATM    3  C2  UNL     1      -4.373  -0.460  11.426  1.00  0.00     0.131 C 
HETATM    4 BR1  UNL     1      -3.386  -2.081  11.770  1.00  0.00    -0.083 Br
HETATM    5  C3  UNL     1      -4.224   0.527  12.591  1.00  0.00     0.063 C 
HETATM    6  C4  UNL     1      -4.590   1.821  11.897  1.00  0.00     0.079 C 
HETATM    7  C9  UNL     1      -3.675   1.772  10.692  1.00  0.00     0.162 C 
HETATM    8 BR2  UNL     1      -1.843   2.135  11.207  1.00  0.00    -0.080 Br
ENDROOT
BRANCH   6   9
HETATM    9  O2  UNL     1      -5.894   1.752  11.440  1.00  0.00    -0.388 OA
ATOM     10  H2  UNL     1      -6.235   2.629  11.310  1.00  0.00     0.210 HD
ENDBRANCH   6   9
BRANCH   6  11
HETATM   11  C5  UNL     1      -4.342   3.022  12.762  1.00  0.00     0.039 C 
BRANCH  11  12
HETATM   12  C6  UNL     1      -4.561   2.762  14.215  1.00  0.00     0.005 C 
BRANCH  12  13
HETATM   13  C7  UNL     1      -3.801   3.747  15.077  1.00  0.00     0.026 C 
BRANCH  13  14
HETATM   14  C8  UNL     1      -2.793   4.442  14.186  1.00  0.00     0.164 C 
BRANCH  14  15
HETATM   15  O3  UNL     1      -1.491   4.125  14.576  1.00  0.00    -0.401 OA
ATOM     16  H3  UNL     1      -1.068   4.875  14.976  1.00  0.00     0.209 HD
ENDBRANCH  14  15
ENDBRANCH  13  14
ENDBRANCH  12  13
ENDBRANCH  11  12
ENDBRANCH   6  11
TORSDOF 6
ENDMDL
MODEL 3
REMARK VINA RESULT: -5.527324877      3.969      4.701
REMARK  6 active torsions:
REMARK  status: ('A' for Active; 'I' for Inactive)
REMARK    1  A    between atoms: C4_6  and  O2_7 
REMARK    2  A    between atoms: C4_6  and  C5_9 
REMARK    3  A    between atoms: C5_9  and  C6_10 
REMARK    4  A    between atoms: C6_10  and  C7_11 
REMARK    5  A    between atoms: C7_11  and  C8_12 
REMARK    6  A    between atoms: C8_12  and  O3_13 
ROOT
HETATM    1  O1  UNL     1      -4.770   4.984  12.344  1.00  0.00    -0.295 OA
HETATM    2  C1  UNL     1      -4.627   4.395  13.394  1.00  0.00     0.158 C 
HETATM    3  C2  UNL     1      -3.325   3.878  13.892  1.00  0.00     0.131 C 
HETATM    4 BR1  UNL     1      -1.920   5.185  13.695  1.00  0.00    -0.083 Br
HETATM    5  C3  UNL     1      -3.663   3.660  15.373  1.00  0.00     0.063 C 
HETATM    6  C4  UNL     1      -5.050   3.069  15.248  1.00  0.00     0.079 C 
HETATM    7  C9  UNL     1      -5.721   4.091  14.355  1.00  0.00     0.162 C 
HETATM    8 BR2  UNL     1      -6.101   5.716  15.340  1.00  0.00    -0.080 Br
ENDROOT
BRANCH   6   9
HETATM    9  O2  UNL     1      -4.987   1.876  14.549  1.00  0.00    -0.388 OA
ATOM     10  H2  UNL     1      -4.421   1.266  15.008  1.00  0.00     0.210 HD
ENDBRANCH   6   9
BRANCH   6  11
HETATM   11  C5  UNL     1      -5.731   2.926  16.578  1.00  0.00     0.039 C 
BRANCH  11  12
HETATM   12  C6  UNL     1      -7.052   2.237  16.497  1.00  0.00     0.005 C 
BRANCH  12  13
HETATM   13  C7  UNL     1      -7.173   1.142  17.534  1.00  0.00     0.026 C 
BRANCH  13  14
HETATM   14  C8  UNL     1      -5.834   0.436  17.603  1.00  0.00     0.164 C 
BRANCH  14  15
HETATM   15  O3  UNL     1      -5.668  -0.412  16.507  1.00  0.00    -0.401 OA
ATOM     16  H3  UNL     1      -4.749  -0.615  16.377  1.00  0.00     0.209 HD
ENDBRANCH  14  15
ENDBRANCH  13  14
ENDBRANCH  12  13
ENDBRANCH  11  12
ENDBRANCH   6  11
TORSDOF 6
ENDMDL
MODEL 4
REMARK VINA RESULT: -5.434369312      2.716      4.711
REMARK  6 active torsions:
REMARK  status: ('A' for Active; 'I' for Inactive)
REMARK    1  A    between atoms: C4_6  and  O2_7 
REMARK    2  A    between atoms: C4_6  and  C5_9 
REMARK    3  A    between atoms: C5_9  and  C6_10 
REMARK    4  A    between atoms: C6_10  and  C7_11 
REMARK    5  A    between atoms: C7_11  and  C8_12 
REMARK    6  A    between atoms: C8_12  and  O3_13 
ROOT
HETATM    1  O1  UNL     1      -4.133   4.806  13.056  1.00  0.00    -0.295 OA
HETATM    2  C1  UNL     1      -3.951   3.788  12.423  1.00  0.00     0.158 C 
HETATM    3  C2  UNL     1      -2.780   3.553  11.537  1.00  0.00     0.131 C 
HETATM    4 BR1  UNL     1      -1.130   4.084  12.384  1.00  0.00    -0.083 Br
HETATM    5  C3  UNL     1      -2.850   2.028  11.387  1.00  0.00     0.063 C 
HETATM    6  C4  UNL     1      -4.343   1.841  11.227  1.00  0.00     0.079 C 
HETATM    7  C9  UNL     1      -4.861   2.611  12.424  1.00  0.00     0.162 C 
HETATM    8 BR2  UNL     1      -4.539   1.627  14.063  1.00  0.00    -0.080 Br
ENDROOT
BRANCH   6   9
HETATM    9  O2  UNL     1      -4.775   2.495  10.087  1.00  0.00    -0.388 OA
ATOM     10  H2  UNL     1      -4.027   2.751   9.562  1.00  0.00     0.210 HD
ENDBRANCH   6   9
BRANCH   6  11
HETATM   11  C5  UNL     1      -4.743   0.395  11.253  1.00  0.00     0.039 C 
BRANCH  11  12
HETATM   12  C6  UNL     1      -3.593  -0.541  11.086  1.00  0.00     0.005 C 
BRANCH  12  13
HETATM   13  C7  UNL     1      -3.773  -1.796  11.914  1.00  0.00     0.026 C 
BRANCH  13  14
HETATM   14  C8  UNL     1      -2.683  -2.765  11.505  1.00  0.00     0.164 C 
BRANCH  14  15
HETATM   15  O3  UNL     1      -3.144  -4.080  11.569  1.00  0.00    -0.401 OA
ATOM     16  H3  UNL     1      -2.417  -4.690  11.587  1.00  0.00     0.209 HD
ENDBRANCH  14  15
ENDBRANCH  13  14
ENDBRANCH  12  13
ENDBRANCH  11  12
ENDBRANCH   6  11
TORSDOF 6
ENDMDL
MODEL 5
REMARK VINA RESULT: -5.400550237      2.154      2.903
REMARK  6 active torsions:
REMARK  status: ('A' for Active; 'I' for Inactive)
REMARK    1  A    between atoms: C4_6  and  O2_7 
REMARK    2  A    between atoms: C4_6  and  C5_9 
REMARK    3  A    between atoms: C5_9  and  C6_10 
REMARK    4  A    between atoms: C6_10  and  C7_11 
REMARK    5  A    between atoms: C7_11  and  C8_12 
REMARK    6  A    between atoms: C8_12  and  O3_13 
ROOT
HETATM    1  O1  UNL     1      -4.108   3.404  10.994  1.00  0.00    -0.295 OA
HETATM    2  C1  UNL     1      -4.414   3.033  12.106  1.00  0.00     0.158 C 
HETATM    3  C2  UNL     1      -4.680   1.616  12.471  1.00  0.00     0.131 C 
HETATM    4 BR1  UNL     1      -3.339   0.434  11.749  1.00  0.00    -0.083 Br
HETATM    5  C3  UNL     1      -4.568   1.700  13.999  1.00  0.00     0.063 C 
HETATM    6  C4  UNL     1      -5.293   3.004  14.251  1.00  0.00     0.079 C 
HETATM    7  C9  UNL     1      -4.576   3.925  13.286  1.00  0.00     0.162 C 
HETATM    8 BR2  UNL     1      -2.803   4.357  13.939  1.00  0.00    -0.080 Br
ENDROOT
BRANCH   6   9
HETATM    9  O2  UNL     1      -6.607   2.895  13.833  1.00  0.00    -0.388 OA
ATOM     10  H2  UNL     1      -7.175   3.360  14.437  1.00  0.00     0.210 HD
ENDBRANCH   6   9
BRANCH   6  11
HETATM   11  C5  UNL     1      -5.174   3.456  15.678  1.00  0.00     0.039 C 
BRANCH  11  12
HETATM   12  C6  UNL     1      -6.400   3.194  16.487  1.00  0.00     0.005 C 
BRANCH  12  13
HETATM   13  C7  UNL     1      -6.149   2.153  17.556  1.00  0.00     0.026 C 
BRANCH  13  14
HETATM   14  C8  UNL     1      -6.918   0.908  17.162  1.00  0.00     0.164 C 
BRANCH  14  15
HETATM   15  O3  UNL     1      -6.043  -0.115  16.794  1.00  0.00    -0.401 OA
ATOM     16  H3  UNL     1      -6.244  -0.914  17.268  1.00  0.00     0.209 HD
ENDBRANCH  14  15
ENDBRANCH  13  14
ENDBRANCH  12  13
ENDBRANCH  11  12
ENDBRANCH   6  11
TORSDOF 6
ENDMDL
