MODEL 1
REMARK VINA RESULT: -6.099862826      0.000      0.000
REMARK  5 active torsions:
REMARK  status: ('A' for Active; 'I' for Inactive)
REMARK    1  A    between atoms: C2_2  and  C3_3 
REMARK    2  A    between atoms: C3_3  and  N1_4 
REMARK    3  A    between atoms: N1_4  and  C4_6 
REMARK    4  A    between atoms: C5_11  and  C6_12 
REMARK    5  A    between atoms: C6_12  and  N4_13 
ROOT
HETATM    1  C4  UNL     1      -4.700   0.995  15.311  1.00  0.00     0.139 A 
HETATM    2  N2  UNL     1      -4.186   0.094  14.454  1.00  0.00    -0.284 N 
ATOM      3  H2  UNL     1      -3.896  -0.853  14.700  1.00  0.00     0.188 HD
HETATM    4  N3  UNL     1      -4.114   0.624  13.244  1.00  0.00    -0.300 N 
ATOM      5  H3  UNL     1      -3.758   0.133  12.424  1.00  0.00     0.186 HD
HETATM    6  C5  UNL     1      -4.568   1.889  13.228  1.00  0.00     0.075 A 
HETATM    7  C11 UNL     1      -4.943   2.115  14.568  1.00  0.00     0.082 A 
HETATM    8 BR1  UNL     1      -5.672   3.795  15.118  1.00  0.00    -0.045 Br
ENDROOT
BRANCH   6   9
HETATM    9  C6  UNL     1      -4.689   2.852  12.113  1.00  0.00     0.332 C 
BRANCH   9  10
HETATM   10  N4  UNL     1      -3.425   3.423  11.786  1.00  0.00     0.098 N 
HETATM   11  C7  UNL     1      -2.705   2.690  10.779  1.00  0.00     0.299 C 
HETATM   12  C8  UNL     1      -1.547   1.956  11.403  1.00  0.00     0.198 C 
HETATM   13  O1  UNL     1      -0.643   2.833  11.949  1.00  0.00    -0.388 OA
HETATM   14  C9  UNL     1      -1.174   3.989  12.455  1.00  0.00     0.198 C 
HETATM   15  C10 UNL     1      -2.627   3.806  12.914  1.00  0.00     0.299 C 
ENDBRANCH   9  10
ENDBRANCH   6   9
BRANCH   1  16
HETATM   16  N1  UNL     1      -4.895   0.803  16.525  1.00  0.00    -0.354 N 
ATOM     17  H1  UNL     1      -4.092   1.074  17.093  1.00  0.00     0.166 HD
BRANCH  16  18
HETATM   18  C3  UNL     1      -5.948   0.307  17.297  1.00  0.00     0.062 C 
BRANCH  18  19
HETATM   19  C2  UNL     1      -7.028   1.297  17.643  1.00  0.00     0.040 C 
HETATM   20  C1  UNL     1      -6.502   2.346  18.598  1.00  0.00     0.010 C 
ENDBRANCH  18  19
ENDBRANCH  16  18
ENDBRANCH   1  16
TORSDOF 5
ENDMDL
MODEL 2
REMARK VINA RESULT: -6.077557966      1.054      1.521
REMARK  5 active torsions:
REMARK  status: ('A' for Active; 'I' for Inactive)
REMARK    1  A    between atoms: C2_2  and  C3_3 
REMARK    2  A    between atoms: C3_3  and  N1_4 
REMARK    3  A    between atoms: N1_4  and  C4_6 
REMARK    4  A    between atoms: C5_11  and  C6_12 
REMARK    5  A    between atoms: C6_12  and  N4_13 
ROOT
HETATM    1  C4  UNL     1      -4.689   0.890  15.420  1.00  0.00     0.139 A 
HETATM    2  N2  UNL     1      -4.241  -0.068  14.588  1.00  0.00    -0.284 N 
ATOM      3  H2  UNL     1      -4.037  -1.031  14.856  1.00  0.00     0.188 HD
HETATM    4  N3  UNL     1      -4.104   0.431  13.371  1.00  0.00    -0.300 N 
ATOM      5  H3  UNL     1      -3.778  -0.104  12.566  1.00  0.00     0.186 HD
HETATM    6  C5  UNL     1      -4.447   1.730  13.324  1.00  0.00     0.075 A 
HETATM    7  C11 UNL     1      -4.823   2.013  14.653  1.00  0.00     0.082 A 
HETATM    8 BR1  UNL     1      -5.414   3.759  15.161  1.00  0.00    -0.045 Br
ENDROOT
BRANCH   6   9
HETATM    9  C6  UNL     1      -4.467   2.679  12.191  1.00  0.00     0.332 C 
BRANCH   9  10
HETATM   10  N4  UNL     1      -3.148   2.949  11.723  1.00  0.00     0.098 N 
HETATM   11  C7  UNL     1      -2.901   4.343  11.471  1.00  0.00     0.299 C 
HETATM   12  C8  UNL     1      -2.842   4.598   9.988  1.00  0.00     0.198 C 
HETATM   13  O1  UNL     1      -1.796   3.920   9.411  1.00  0.00    -0.388 OA
HETATM   14  C9  UNL     1      -1.479   2.722   9.992  1.00  0.00     0.198 C 
HETATM   15  C10 UNL     1      -2.686   2.075  10.683  1.00  0.00     0.299 C 
ENDBRANCH   9  10
ENDBRANCH   6   9
BRANCH   1  16
HETATM   16  N1  UNL     1      -4.920   0.738  16.633  1.00  0.00    -0.354 N 
ATOM     17  H1  UNL     1      -4.116   0.979  17.213  1.00  0.00     0.166 HD
BRANCH  16  18
HETATM   18  C3  UNL     1      -6.014   0.318  17.394  1.00  0.00     0.062 C 
BRANCH  18  19
HETATM   19  C2  UNL     1      -7.051   1.370  17.684  1.00  0.00     0.040 C 
HETATM   20  C1  UNL     1      -6.492   2.426  18.611  1.00  0.00     0.010 C 
ENDBRANCH  18  19
ENDBRANCH  16  18
ENDBRANCH   1  16
TORSDOF 5
ENDMDL
MODEL 3
REMARK VINA RESULT: -5.823030673      2.646      5.931
REMARK  5 active torsions:
REMARK  status: ('A' for Active; 'I' for Inactive)
REMARK    1  A    between atoms: C2_2  and  C3_3 
REMARK    2  A    between atoms: C3_3  and  N1_4 
REMARK    3  A    between atoms: N1_4  and  C4_6 
REMARK    4  A    between atoms: C5_11  and  C6_12 
REMARK    5  A    between atoms: C6_12  and  N4_13 
ROOT
HETATM    1  C4  UNL     1      -2.726   3.869  12.982  1.00  0.00     0.139 A 
HETATM    2  N2  UNL     1      -2.445   4.652  14.039  1.00  0.00    -0.284 N 
ATOM      3  H2  UNL     1      -1.596   5.206  14.152  1.00  0.00     0.188 HD
HETATM    4  N3  UNL     1      -3.439   4.593  14.910  1.00  0.00    -0.300 N 
ATOM      5  H3  UNL     1      -3.458   5.102  15.793  1.00  0.00     0.186 HD
HETATM    6  C5  UNL     1      -4.422   3.779  14.487  1.00  0.00     0.075 A 
HETATM    7  C11 UNL     1      -3.949   3.319  13.242  1.00  0.00     0.082 A 
HETATM    8 BR1  UNL     1      -4.977   2.105  12.181  1.00  0.00    -0.045 Br
ENDROOT
BRANCH   6   9
HETATM    9  C6  UNL     1      -5.713   3.425  15.115  1.00  0.00     0.332 C 
BRANCH   9  10
HETATM   10  N4  UNL     1      -5.524   2.544  16.219  1.00  0.00     0.098 N 
HETATM   11  C7  UNL     1      -4.379   1.686  16.082  1.00  0.00     0.299 C 
HETATM   12  C8  UNL     1      -4.822   0.275  15.795  1.00  0.00     0.198 C 
HETATM   13  O1  UNL     1      -5.552  -0.236  16.840  1.00  0.00    -0.388 OA
HETATM   14  C9  UNL     1      -6.305   0.673  17.532  1.00  0.00     0.198 C 
HETATM   15  C10 UNL     1      -6.710   1.872  16.664  1.00  0.00     0.299 C 
ENDBRANCH   9  10
ENDBRANCH   6   9
BRANCH   1  16
HETATM   16  N1  UNL     1      -1.990   3.709  11.991  1.00  0.00    -0.354 N 
ATOM     17  H1  UNL     1      -2.111   4.446  11.296  1.00  0.00     0.166 HD
BRANCH  16  18
HETATM   18  C3  UNL     1      -1.038   2.764  11.599  1.00  0.00     0.062 C 
BRANCH  18  19
HETATM   19  C2  UNL     1      -1.491   1.774  10.559  1.00  0.00     0.040 C 
HETATM   20  C1  UNL     1      -1.854   0.455  11.202  1.00  0.00     0.010 C 
ENDBRANCH  18  19
ENDBRANCH  16  18
ENDBRANCH   1  16
TORSDOF 5
ENDMDL
MODEL 4
REMARK VINA RESULT: -5.800470762      1.003      1.177
REMARK  5 active torsions:
REMARK  status: ('A' for Active; 'I' for Inactive)
REMARK    1  A    between atoms: C2_2  and  C3_3 
REMARK    2  A    between atoms: C3_3  and  N1_4 
REMARK    3  A    between atoms: N1_4  and  C4_6 
REMARK    4  A    between atoms: C5_11  and  C6_12 
REMARK    5  A    between atoms: C6_12  and  N4_13 
ROOT
HETATM    1  C4  UNL     1      -4.579   1.607  15.549  1.00  0.00     0.139 A 
HETATM    2  N2  UNL     1      -4.141   0.435  15.054  1.00  0.00    -0.284 N 
ATOM      3  H2  UNL     1      -3.795  -0.346  15.611  1.00  0.00     0.188 HD
HETATM    4  N3  UNL     1      -4.230   0.452  13.734  1.00  0.00    -0.300 N 
ATOM      5  H3  UNL     1      -3.957  -0.326  13.132  1.00  0.00     0.186 HD
HETATM    6  C5  UNL     1      -4.723   1.618  13.284  1.00  0.00     0.075 A 
HETATM    7  C11 UNL     1      -4.944   2.354  14.465  1.00  0.00     0.082 A 
HETATM    8 BR1  UNL     1      -5.657   4.127  14.405  1.00  0.00    -0.045 Br
ENDROOT
BRANCH   6   9
HETATM    9  C6  UNL     1      -5.005   2.074  11.906  1.00  0.00     0.332 C 
BRANCH   9  10
HETATM   10  N4  UNL     1      -3.803   2.412  11.219  1.00  0.00     0.098 N 
HETATM   11  C7  UNL     1      -3.233   1.316  10.483  1.00  0.00     0.299 C 
HETATM   12  C8  UNL     1      -1.995   0.815  11.179  1.00  0.00     0.198 C 
HETATM   13  O1  UNL     1      -1.024   1.786  11.220  1.00  0.00    -0.388 OA
HETATM   14  C9  UNL     1      -1.482   3.072  11.312  1.00  0.00     0.198 C 
HETATM   15  C10 UNL     1      -2.853   3.153  11.996  1.00  0.00     0.299 C 
ENDBRANCH   9  10
ENDBRANCH   6   9
BRANCH   1  16
HETATM   16  N1  UNL     1      -4.624   1.905  16.757  1.00  0.00    -0.354 N 
ATOM     17  H1  UNL     1      -3.734   2.269  17.099  1.00  0.00     0.166 HD
BRANCH  16  18
HETATM   18  C3  UNL     1      -5.598   1.863  17.758  1.00  0.00     0.062 C 
BRANCH  18  19
HETATM   19  C2  UNL     1      -6.626   0.772  17.622  1.00  0.00     0.040 C 
HETATM   20  C1  UNL     1      -7.882   1.303  16.968  1.00  0.00     0.010 C 
ENDBRANCH  18  19
ENDBRANCH  16  18
ENDBRANCH   1  16
TORSDOF 5
ENDMDL
MODEL 5
REMARK VINA RESULT: -5.669540712      1.461      1.992
REMARK  5 active torsions:
REMARK  status: ('A' for Active; 'I' for Inactive)
REMARK    1  A    between atoms: C2_2  and  C3_3 
REMARK    2  A    between atoms: C3_3  and  N1_4 
REMARK    3  A    between atoms: N1_4  and  C4_6 
REMARK    4  A    between atoms: C5_11  and  C6_12 
REMARK    5  A    between atoms: C6_12  and  N4_13 
ROOT
HETATM    1  C4  UNL     1      -4.737   1.733  14.476  1.00  0.00     0.139 A 
HETATM    2  N2  UNL     1      -4.231   0.656  13.850  1.00  0.00    -0.284 N 
ATOM      3  H2  UNL     1      -4.291  -0.304  14.190  1.00  0.00     0.188 HD
HETATM    4  N3  UNL     1      -3.644   1.032  12.726  1.00  0.00    -0.300 N 
ATOM      5  H3  UNL     1      -3.187   0.392  12.076  1.00  0.00     0.186 HD
HETATM    6  C5  UNL     1      -3.725   2.361  12.544  1.00  0.00     0.075 A 
HETATM    7  C11 UNL     1      -4.433   2.801  13.681  1.00  0.00     0.082 A 
HETATM    8 BR1  UNL     1      -4.836   4.652  13.937  1.00  0.00    -0.045 Br
ENDROOT
BRANCH   6   9
HETATM    9  C6  UNL     1      -3.231   3.212  11.440  1.00  0.00     0.332 C 
BRANCH   9  10
HETATM   10  N4  UNL     1      -1.821   3.082  11.281  1.00  0.00     0.098 N 
HETATM   11  C7  UNL     1      -1.062   3.844  12.236  1.00  0.00     0.299 C 
HETATM   12  C8  UNL     1      -0.432   5.035  11.563  1.00  0.00     0.198 C 
HETATM   13  O1  UNL     1       0.463   4.642  10.598  1.00  0.00    -0.388 OA
HETATM   14  C9  UNL     1       0.157   3.475   9.952  1.00  0.00     0.198 C 
HETATM   15  C10 UNL     1      -1.353   3.202   9.931  1.00  0.00     0.299 C 
ENDBRANCH   9  10
ENDBRANCH   6   9
BRANCH   1  16
HETATM   16  N1  UNL     1      -5.351   1.713  15.559  1.00  0.00    -0.354 N 
ATOM     17  H1  UNL     1      -6.311   1.384  15.454  1.00  0.00     0.166 HD
BRANCH  16  18
HETATM   18  C3  UNL     1      -5.043   2.033  16.884  1.00  0.00     0.062 C 
BRANCH  18  19
HETATM   19  C2  UNL     1      -6.128   1.758  17.891  1.00  0.00     0.040 C 
HETATM   20  C1  UNL     1      -7.337   1.148  17.218  1.00  0.00     0.010 C 
ENDBRANCH  18  19
ENDBRANCH  16  18
ENDBRANCH   1  16
TORSDOF 5
ENDMDL
