MODEL 1
REMARK VINA RESULT: -6.964303302      0.000      0.000
REMARK  5 active torsions:
REMARK  status: ('A' for Active; 'I' for Inactive)
REMARK    1  A    between atoms: C2_2  and  N1_4 
REMARK    2  A    between atoms: N1_4  and  C4_6 
REMARK    3  A    between atoms: C4_6  and  C5_7 
REMARK    4  A    between atoms: C5_7  and  N2_8 
REMARK    5  A    between atoms: N2_8  and  C6_10 
REMARK       I    between atoms: N3_16  and  C12_18 
REMARK       I    between atoms: C12_18  and  N6_23 
ROOT
HETATM    1  C4  UNL     1      -2.697   3.785  13.246  1.00  0.00     0.111 C 
HETATM    2  N3  UNL     1      -2.616   3.131  12.159  1.00  0.00    -0.178 N 
ATOM      3  H3  UNL     1      -1.715   3.218  11.690  1.00  0.00     0.185 HD
HETATM    4  C12 UNL     1      -3.516   2.327  11.496  1.00  0.00     0.690 C 
HETATM    5  N4  UNL     1      -4.495   2.804  10.827  1.00  0.00    -0.126 N 
ATOM      6  H4  UNL     1      -5.137   2.169  10.352  1.00  0.00     0.197 HD
HETATM    7  C13 UNL     1      -4.695   4.175  10.739  1.00  0.00     0.196 C 
HETATM    8  N5  UNL     1      -4.879   5.297  10.657  1.00  0.00    -0.171 NA
HETATM    9  N6  UNL     1      -3.393   0.920  11.515  1.00  0.00    -0.226 N 
HETATM   10  C14 UNL     1      -2.105   0.317  11.318  1.00  0.00     0.168 C 
HETATM   11  C15 UNL     1      -4.544   0.097  11.723  1.00  0.00     0.168 C 
ENDROOT
BRANCH   1  12
HETATM   12  N1  UNL     1      -1.579   4.531  13.672  1.00  0.00    -0.374 N 
ATOM     13  H1  UNL     1      -0.897   4.108  14.302  1.00  0.00     0.161 HD
BRANCH  12  14
HETATM   14  C2  UNL     1      -1.396   5.882  13.225  1.00  0.00     0.074 C 
HETATM   15  C1  UNL     1      -0.054   6.167  12.640  1.00  0.00     0.031 C 
HETATM   16  C3  UNL     1      -1.590   6.841  14.410  1.00  0.00     0.031 C 
ENDBRANCH  12  14
ENDBRANCH   1  12
BRANCH   1  17
HETATM   17  C5  UNL     1      -3.943   3.765  14.028  1.00  0.00     0.191 C 
BRANCH  17  18
HETATM   18  N2  UNL     1      -3.954   2.868  15.122  1.00  0.00    -0.410 N 
ATOM     19  H2  UNL     1      -3.105   2.691  15.659  1.00  0.00     0.154 HD
BRANCH  18  20
HETATM   20  C6  UNL     1      -5.168   2.221  15.456  1.00  0.00     0.077 C 
HETATM   21  C7  UNL     1      -6.315   3.173  15.577  1.00  0.00     0.024 C 
HETATM   22  C8  UNL     1      -7.017   3.004  16.925  1.00  0.00     0.002 C 
HETATM   23  C9  UNL     1      -7.409   1.522  16.995  1.00  0.00     0.000 C 
HETATM   24  C10 UNL     1      -6.124   0.745  17.256  1.00  0.00     0.002 C 
HETATM   25  C11 UNL     1      -4.921   1.487  16.782  1.00  0.00     0.024 C 
ENDBRANCH  18  20
ENDBRANCH  17  18
ENDBRANCH   1  17
TORSDOF 5
ENDMDL
MODEL 2
REMARK VINA RESULT: -6.953939799      1.445      4.366
REMARK  5 active torsions:
REMARK  status: ('A' for Active; 'I' for Inactive)
REMARK    1  A    between atoms: C2_2  and  N1_4 
REMARK    2  A    between atoms: N1_4  and  C4_6 
REMARK    3  A    between atoms: C4_6  and  C5_7 
REMARK    4  A    between atoms: C5_7  and  N2_8 
REMARK    5  A    between atoms: N2_8  and  C6_10 
REMARK       I    between atoms: N3_16  and  C12_18 
REMARK       I    between atoms: C12_18  and  N6_23 
ROOT
HETATM    1  C4  UNL     1      -3.650   2.348  12.521  1.00  0.00     0.111 C 
HETATM    2  N3  UNL     1      -3.209   3.455  12.080  1.00  0.00    -0.178 N 
ATOM      3  H3  UNL     1      -2.495   3.359  11.358  1.00  0.00     0.185 HD
HETATM    4  C12 UNL     1      -3.513   4.761  12.394  1.00  0.00     0.690 C 
HETATM    5  N4  UNL     1      -3.094   5.323  13.462  1.00  0.00    -0.126 N 
ATOM      6  H4  UNL     1      -3.345   6.294  13.653  1.00  0.00     0.197 HD
HETATM    7  C13 UNL     1      -2.301   4.629  14.366  1.00  0.00     0.196 C 
HETATM    8  N5  UNL     1      -1.652   4.076  15.122  1.00  0.00    -0.171 NA
HETATM    9  N6  UNL     1      -4.304   5.555  11.534  1.00  0.00    -0.226 N 
HETATM   10  C14 UNL     1      -4.055   5.537  10.120  1.00  0.00     0.168 C 
HETATM   11  C15 UNL     1      -5.345   6.379  12.066  1.00  0.00     0.168 C 
ENDROOT
BRANCH   1  12
HETATM   12  N1  UNL     1      -3.130   1.151  11.988  1.00  0.00    -0.374 N 
ATOM     13  H1  UNL     1      -2.122   0.992  11.989  1.00  0.00     0.161 HD
BRANCH  12  14
HETATM   14  C2  UNL     1      -4.009   0.157  11.444  1.00  0.00     0.074 C 
HETATM   15  C1  UNL     1      -3.655  -1.248  11.799  1.00  0.00     0.031 C 
HETATM   16  C3  UNL     1      -4.003   0.256   9.911  1.00  0.00     0.031 C 
ENDBRANCH  12  14
ENDBRANCH   1  12
BRANCH   1  17
HETATM   17  C5  UNL     1      -4.676   2.330  13.576  1.00  0.00     0.191 C 
BRANCH  17  18
HETATM   18  N2  UNL     1      -4.263   1.774  14.809  1.00  0.00    -0.410 N 
ATOM     19  H2  UNL     1      -3.485   1.115  14.848  1.00  0.00     0.154 HD
BRANCH  18  20
HETATM   20  C6  UNL     1      -4.952   2.149  15.987  1.00  0.00     0.077 C 
HETATM   21  C7  UNL     1      -5.386   0.973  16.802  1.00  0.00     0.024 C 
HETATM   22  C8  UNL     1      -6.884   1.047  17.101  1.00  0.00     0.002 C 
HETATM   23  C9  UNL     1      -7.095   2.406  17.782  1.00  0.00     0.000 C 
HETATM   24  C10 UNL     1      -6.982   3.461  16.688  1.00  0.00     0.002 C 
HETATM   25  C11 UNL     1      -6.161   2.983  15.539  1.00  0.00     0.024 C 
ENDBRANCH  18  20
ENDBRANCH  17  18
ENDBRANCH   1  17
TORSDOF 5
ENDMDL
MODEL 3
REMARK VINA RESULT: -6.906483190      1.859      3.075
REMARK  5 active torsions:
REMARK  status: ('A' for Active; 'I' for Inactive)
REMARK    1  A    between atoms: C2_2  and  N1_4 
REMARK    2  A    between atoms: N1_4  and  C4_6 
REMARK    3  A    between atoms: C4_6  and  C5_7 
REMARK    4  A    between atoms: C5_7  and  N2_8 
REMARK    5  A    between atoms: N2_8  and  C6_10 
REMARK       I    between atoms: N3_16  and  C12_18 
REMARK       I    between atoms: C12_18  and  N6_23 
ROOT
HETATM    1  C4  UNL     1      -4.106   4.682  13.033  1.00  0.00     0.111 C 
HETATM    2  N3  UNL     1      -3.788   4.692  11.802  1.00  0.00    -0.178 N 
ATOM      3  H3  UNL     1      -4.168   5.484  11.283  1.00  0.00     0.185 HD
HETATM    4  C12 UNL     1      -3.029   3.835  11.038  1.00  0.00     0.690 C 
HETATM    5  N4  UNL     1      -3.467   2.702  10.642  1.00  0.00    -0.126 N 
ATOM      6  H4  UNL     1      -2.868   2.100  10.076  1.00  0.00     0.197 HD
HETATM    7  C13 UNL     1      -4.747   2.280  10.972  1.00  0.00     0.196 C 
HETATM    8  N5  UNL     1      -5.794   1.914  11.235  1.00  0.00    -0.171 NA
HETATM    9  N6  UNL     1      -1.717   4.177  10.640  1.00  0.00    -0.226 N 
HETATM   10  C14 UNL     1      -1.447   5.496  10.141  1.00  0.00     0.168 C 
HETATM   11  C15 UNL     1      -0.663   3.215  10.726  1.00  0.00     0.168 C 
ENDROOT
BRANCH   1  12
HETATM   12  N1  UNL     1      -4.915   5.723  13.532  1.00  0.00    -0.374 N 
ATOM     13  H1  UNL     1      -5.633   6.137  12.938  1.00  0.00     0.161 HD
BRANCH  12  14
HETATM   14  C2  UNL     1      -4.733   6.204  14.872  1.00  0.00     0.074 C 
HETATM   15  C1  UNL     1      -5.977   6.696  15.531  1.00  0.00     0.031 C 
HETATM   16  C3  UNL     1      -3.730   7.367  14.864  1.00  0.00     0.031 C 
ENDBRANCH  12  14
ENDBRANCH   1  12
BRANCH   1  17
HETATM   17  C5  UNL     1      -3.642   3.592  13.905  1.00  0.00     0.191 C 
BRANCH  17  18
HETATM   18  N2  UNL     1      -4.641   2.677  14.311  1.00  0.00    -0.410 N 
ATOM     19  H2  UNL     1      -5.086   2.058  13.634  1.00  0.00     0.154 HD
BRANCH  18  20
HETATM   20  C6  UNL     1      -5.011   2.639  15.678  1.00  0.00     0.077 C 
HETATM   21  C7  UNL     1      -4.738   1.313  16.313  1.00  0.00     0.024 C 
HETATM   22  C8  UNL     1      -5.996   0.771  16.991  1.00  0.00     0.002 C 
HETATM   23  C9  UNL     1      -6.435   1.868  17.970  1.00  0.00     0.000 C 
HETATM   24  C10 UNL     1      -7.038   2.985  17.128  1.00  0.00     0.002 C 
HETATM   25  C11 UNL     1      -6.507   2.978  15.735  1.00  0.00     0.024 C 
ENDBRANCH  18  20
ENDBRANCH  17  18
ENDBRANCH   1  17
TORSDOF 5
ENDMDL
MODEL 4
REMARK VINA RESULT: -6.880753710      2.624      5.279
REMARK  5 active torsions:
REMARK  status: ('A' for Active; 'I' for Inactive)
REMARK    1  A    between atoms: C2_2  and  N1_4 
REMARK    2  A    between atoms: N1_4  and  C4_6 
REMARK    3  A    between atoms: C4_6  and  C5_7 
REMARK    4  A    between atoms: C5_7  and  N2_8 
REMARK    5  A    between atoms: N2_8  and  C6_10 
REMARK       I    between atoms: N3_16  and  C12_18 
REMARK       I    between atoms: C12_18  and  N6_23 
ROOT
HETATM    1  C4  UNL     1      -5.328   2.708  15.077  1.00  0.00     0.111 C 
HETATM    2  N3  UNL     1      -4.420   2.077  14.449  1.00  0.00    -0.178 N 
ATOM      3  H3  UNL     1      -3.931   1.383  15.015  1.00  0.00     0.185 HD
HETATM    4  C12 UNL     1      -3.971   2.154  13.150  1.00  0.00     0.690 C 
HETATM    5  N4  UNL     1      -3.223   3.106  12.740  1.00  0.00    -0.126 N 
ATOM      6  H4  UNL     1      -2.915   3.121  11.767  1.00  0.00     0.197 HD
HETATM    7  C13 UNL     1      -2.824   4.117  13.602  1.00  0.00     0.196 C 
HETATM    8  N5  UNL     1      -2.488   4.960  14.293  1.00  0.00    -0.171 NA
HETATM    9  N6  UNL     1      -4.312   1.168  12.198  1.00  0.00    -0.226 N 
HETATM   10  C14 UNL     1      -4.243  -0.221  12.558  1.00  0.00     0.168 C 
HETATM   11  C15 UNL     1      -4.719   1.546  10.880  1.00  0.00     0.168 C 
ENDROOT
BRANCH   1  12
HETATM   12  N1  UNL     1      -5.556   2.396  16.432  1.00  0.00    -0.374 N 
ATOM     13  H1  UNL     1      -5.172   2.995  17.162  1.00  0.00     0.161 HD
BRANCH  12  14
HETATM   14  C2  UNL     1      -6.325   1.239  16.790  1.00  0.00     0.074 C 
HETATM   15  C1  UNL     1      -7.791   1.483  16.924  1.00  0.00     0.031 C 
HETATM   16  C3  UNL     1      -5.828   0.693  18.137  1.00  0.00     0.031 C 
ENDBRANCH  12  14
ENDBRANCH   1  12
BRANCH   1  17
HETATM   17  C5  UNL     1      -6.109   3.750  14.392  1.00  0.00     0.191 C 
BRANCH  17  18
HETATM   18  N2  UNL     1      -6.314   4.936  15.135  1.00  0.00    -0.410 N 
ATOM     19  H2  UNL     1      -6.760   4.905  16.052  1.00  0.00     0.154 HD
BRANCH  18  20
HETATM   20  C6  UNL     1      -5.888   6.167  14.581  1.00  0.00     0.077 C 
HETATM   21  C7  UNL     1      -5.441   7.144  15.620  1.00  0.00     0.024 C 
HETATM   22  C8  UNL     1      -6.178   8.475  15.460  1.00  0.00     0.002 C 
HETATM   23  C9  UNL     1      -5.911   8.916  14.015  1.00  0.00     0.000 C 
HETATM   24  C10 UNL     1      -6.765   8.022  13.124  1.00  0.00     0.002 C 
HETATM   25  C11 UNL     1      -7.075   6.719  13.780  1.00  0.00     0.024 C 
ENDBRANCH  18  20
ENDBRANCH  17  18
ENDBRANCH   1  17
TORSDOF 5
ENDMDL
MODEL 5
REMARK VINA RESULT: -6.877958282      2.670      5.186
REMARK  5 active torsions:
REMARK  status: ('A' for Active; 'I' for Inactive)
REMARK    1  A    between atoms: C2_2  and  N1_4 
REMARK    2  A    between atoms: N1_4  and  C4_6 
REMARK    3  A    between atoms: C4_6  and  C5_7 
REMARK    4  A    between atoms: C5_7  and  N2_8 
REMARK    5  A    between atoms: N2_8  and  C6_10 
REMARK       I    between atoms: N3_16  and  C12_18 
REMARK       I    between atoms: C12_18  and  N6_23 
ROOT
HETATM    1  C4  UNL     1      -5.201   2.467  15.364  1.00  0.00     0.111 C 
HETATM    2  N3  UNL     1      -4.359   1.906  14.594  1.00  0.00    -0.178 N 
ATOM      3  H3  UNL     1      -3.832   1.152  15.035  1.00  0.00     0.185 HD
HETATM    4  C12 UNL     1      -4.026   2.124  13.276  1.00  0.00     0.690 C 
HETATM    5  N4  UNL     1      -3.303   3.112  12.907  1.00  0.00    -0.126 N 
ATOM      6  H4  UNL     1      -3.082   3.233  11.919  1.00  0.00     0.197 HD
HETATM    7  C13 UNL     1      -2.818   4.021  13.836  1.00  0.00     0.196 C 
HETATM    8  N5  UNL     1      -2.412   4.782  14.582  1.00  0.00    -0.171 NA
HETATM    9  N6  UNL     1      -4.461   1.249  12.256  1.00  0.00    -0.226 N 
HETATM   10  C14 UNL     1      -4.379  -0.171  12.455  1.00  0.00     0.168 C 
HETATM   11  C15 UNL     1      -4.977   1.770  11.028  1.00  0.00     0.168 C 
ENDROOT
BRANCH   1  12
HETATM   12  N1  UNL     1      -5.313   2.009  16.692  1.00  0.00    -0.374 N 
ATOM     13  H1  UNL     1      -4.527   1.531  17.133  1.00  0.00     0.161 HD
BRANCH  12  14
HETATM   14  C2  UNL     1      -6.529   2.209  17.427  1.00  0.00     0.074 C 
HETATM   15  C1  UNL     1      -6.377   2.143  18.910  1.00  0.00     0.031 C 
HETATM   16  C3  UNL     1      -7.551   1.136  17.025  1.00  0.00     0.031 C 
ENDBRANCH  12  14
ENDBRANCH   1  12
BRANCH   1  17
HETATM   17  C5  UNL     1      -6.025   3.580  14.869  1.00  0.00     0.191 C 
BRANCH  17  18
HETATM   18  N2  UNL     1      -5.537   4.873  15.171  1.00  0.00    -0.410 N 
ATOM     19  H2  UNL     1      -4.565   5.011  15.447  1.00  0.00     0.154 HD
BRANCH  18  20
HETATM   20  C6  UNL     1      -6.427   5.971  15.083  1.00  0.00     0.077 C 
HETATM   21  C7  UNL     1      -6.966   6.168  13.702  1.00  0.00     0.024 C 
HETATM   22  C8  UNL     1      -6.733   7.604  13.232  1.00  0.00     0.002 C 
HETATM   23  C9  UNL     1      -7.384   8.492  14.301  1.00  0.00     0.000 C 
HETATM   24  C10 UNL     1      -6.465   8.450  15.517  1.00  0.00     0.002 C 
HETATM   25  C11 UNL     1      -5.643   7.206  15.548  1.00  0.00     0.024 C 
ENDBRANCH  18  20
ENDBRANCH  17  18
ENDBRANCH   1  17
TORSDOF 5
ENDMDL
