MODEL 1
REMARK VINA RESULT: -6.379244657      0.000      0.000
REMARK  7 active torsions:
REMARK  status: ('A' for Active; 'I' for Inactive)
REMARK    1  A    between atoms: C2_2  and  N1_3 
REMARK    2  A    between atoms: N1_3  and  C3_4 
REMARK    3  A    between atoms: N1_3  and  C9_16 
REMARK    4  A    between atoms: C3_4  and  C4_5 
REMARK    5  A    between atoms: C4_5  and  O1_6 
REMARK    6  A    between atoms: C4_5  and  C5_8 
REMARK    7  A    between atoms: C9_16  and  N4_18 
ROOT
HETATM    1  C3  UNL     1      -2.425   4.897  13.255  1.00  0.00     0.164 C 
ENDROOT
BRANCH   1   2
HETATM    2  N1  UNL     1      -1.956   3.889  12.337  1.00  0.00    -0.356 N 
BRANCH   2   3
HETATM    3  C2  UNL     1      -0.580   3.785  11.949  1.00  0.00     0.120 C 
HETATM    4  C1  UNL     1      -0.292   3.643  10.486  1.00  0.00     0.026 C 
ENDBRANCH   2   3
BRANCH   2   5
HETATM    5  C9  UNL     1      -2.934   3.046  11.767  1.00  0.00     0.172 C 
HETATM    6  S1  UNL     1      -4.172   3.893  10.976  1.00  0.00    -0.041 SA
BRANCH   5   7
HETATM    7  N4  UNL     1      -3.073   1.660  11.734  1.00  0.00    -0.358 N 
HETATM    8  C10 UNL     1      -4.127   1.109  12.663  1.00  0.00     0.125 C 
HETATM    9  C11 UNL     1      -4.340  -0.345  12.417  1.00  0.00     0.020 C 
HETATM   10  C12 UNL     1      -4.508  -0.725  10.973  1.00  0.00     0.003 C 
HETATM   11  C13 UNL     1      -3.568   0.039  10.084  1.00  0.00     0.020 C 
HETATM   12  C14 UNL     1      -2.469   0.630  10.988  1.00  0.00     0.125 C 
ENDBRANCH   5   7
ENDBRANCH   2   5
ENDBRANCH   1   2
BRANCH   1  13
HETATM   13  C4  UNL     1      -2.476   4.654  14.694  1.00  0.00     0.203 C 
BRANCH  13  14
HETATM   14  O1  UNL     1      -1.387   3.973  15.175  1.00  0.00    -0.386 OA
ATOM     15  H1  UNL     1      -0.810   4.505  15.709  1.00  0.00     0.210 HD
ENDBRANCH  13  14
BRANCH  13  16
HETATM   16  C5  UNL     1      -3.674   3.824  15.086  1.00  0.00     0.103 C 
HETATM   17  N2  UNL     1      -3.571   2.769  15.806  1.00  0.00    -0.378 N 
HETATM   18  C6  UNL     1      -4.699   1.953  16.198  1.00  0.00     0.122 C 
ATOM     19  H2  UNL     1      -2.642   2.489  16.120  1.00  0.00     0.160 HD
HETATM   20  C7  UNL     1      -5.991   2.736  16.193  1.00  0.00     0.039 C 
HETATM   21  C8  UNL     1      -6.147   3.478  14.882  1.00  0.00     0.122 C 
HETATM   22  N3  UNL     1      -4.955   4.228  14.642  1.00  0.00    -0.378 N 
ATOM     23  H3  UNL     1      -5.032   5.101  14.121  1.00  0.00     0.160 HD
ENDBRANCH  13  16
ENDBRANCH   1  13
TORSDOF 7
ENDMDL
MODEL 2
REMARK VINA RESULT: -6.271846962      2.039      3.012
REMARK  7 active torsions:
REMARK  status: ('A' for Active; 'I' for Inactive)
REMARK    1  A    between atoms: C2_2  and  N1_3 
REMARK    2  A    between atoms: N1_3  and  C3_4 
REMARK    3  A    between atoms: N1_3  and  C9_16 
REMARK    4  A    between atoms: C3_4  and  C4_5 
REMARK    5  A    between atoms: C4_5  and  O1_6 
REMARK    6  A    between atoms: C4_5  and  C5_8 
REMARK    7  A    between atoms: C9_16  and  N4_18 
ROOT
HETATM    1  C3  UNL     1      -4.692   2.446  13.574  1.00  0.00     0.164 C 
ENDROOT
BRANCH   1   2
HETATM    2  N1  UNL     1      -3.648   3.206  12.934  1.00  0.00    -0.356 N 
BRANCH   2   3
HETATM    3  C2  UNL     1      -3.116   4.409  13.503  1.00  0.00     0.120 C 
HETATM    4  C1  UNL     1      -3.944   5.098  14.543  1.00  0.00     0.026 C 
ENDBRANCH   2   3
BRANCH   2   5
HETATM    5  C9  UNL     1      -3.219   2.754  11.669  1.00  0.00     0.172 C 
HETATM    6  S1  UNL     1      -2.530   3.977  10.716  1.00  0.00    -0.041 SA
BRANCH   5   7
HETATM    7  N4  UNL     1      -3.254   1.502  11.058  1.00  0.00    -0.358 N 
HETATM    8  C10 UNL     1      -2.180   0.546  11.518  1.00  0.00     0.125 C 
HETATM    9  C11 UNL     1      -2.414  -0.818  10.963  1.00  0.00     0.020 C 
HETATM   10  C12 UNL     1      -3.820  -1.327  11.107  1.00  0.00     0.003 C 
HETATM   11  C13 UNL     1      -4.833  -0.247  10.850  1.00  0.00     0.020 C 
HETATM   12  C14 UNL     1      -4.101   0.892  10.114  1.00  0.00     0.125 C 
ENDBRANCH   5   7
ENDBRANCH   2   5
ENDBRANCH   1   2
BRANCH   1  13
HETATM   13  C4  UNL     1      -4.393   1.450  14.599  1.00  0.00     0.203 C 
BRANCH  13  14
HETATM   14  O1  UNL     1      -4.470   0.157  14.149  1.00  0.00    -0.386 OA
ATOM     15  H1  UNL     1      -4.011  -0.467  14.700  1.00  0.00     0.210 HD
ENDBRANCH  13  14
BRANCH  13  16
HETATM   16  C5  UNL     1      -5.352   1.528  15.762  1.00  0.00     0.103 C 
HETATM   17  N2  UNL     1      -6.147   2.520  15.927  1.00  0.00    -0.378 N 
HETATM   18  C6  UNL     1      -7.077   2.625  17.031  1.00  0.00     0.122 C 
ATOM     19  H2  UNL     1      -6.122   3.277  15.245  1.00  0.00     0.160 HD
HETATM   20  C7  UNL     1      -7.435   1.271  17.598  1.00  0.00     0.039 C 
HETATM   21  C8  UNL     1      -6.179   0.474  17.878  1.00  0.00     0.122 C 
HETATM   22  N3  UNL     1      -5.373   0.469  16.699  1.00  0.00    -0.378 N 
ATOM     23  H3  UNL     1      -4.780  -0.342  16.523  1.00  0.00     0.160 HD
ENDBRANCH  13  16
ENDBRANCH   1  13
TORSDOF 7
ENDMDL
MODEL 3
REMARK VINA RESULT: -5.999542512      2.396      5.261
REMARK  7 active torsions:
REMARK  status: ('A' for Active; 'I' for Inactive)
REMARK    1  A    between atoms: C2_2  and  N1_3 
REMARK    2  A    between atoms: N1_3  and  C3_4 
REMARK    3  A    between atoms: N1_3  and  C9_16 
REMARK    4  A    between atoms: C3_4  and  C4_5 
REMARK    5  A    between atoms: C4_5  and  O1_6 
REMARK    6  A    between atoms: C4_5  and  C5_8 
REMARK    7  A    between atoms: C9_16  and  N4_18 
ROOT
HETATM    1  C3  UNL     1      -4.955   2.763  12.284  1.00  0.00     0.164 C 
ENDROOT
BRANCH   1   2
HETATM    2  N1  UNL     1      -4.448   3.661  13.291  1.00  0.00    -0.356 N 
BRANCH   2   3
HETATM    3  C2  UNL     1      -3.193   4.340  13.151  1.00  0.00     0.120 C 
HETATM    4  C1  UNL     1      -2.441   4.652  14.409  1.00  0.00     0.026 C 
ENDBRANCH   2   3
BRANCH   2   5
HETATM    5  C9  UNL     1      -5.211   3.788  14.471  1.00  0.00     0.172 C 
HETATM    6  S1  UNL     1      -6.211   5.158  14.479  1.00  0.00    -0.041 SA
BRANCH   5   7
HETATM    7  N4  UNL     1      -5.297   3.007  15.621  1.00  0.00    -0.358 N 
HETATM    8  C10 UNL     1      -6.632   3.063  16.323  1.00  0.00     0.125 C 
HETATM    9  C11 UNL     1      -6.695   2.055  17.419  1.00  0.00     0.020 C 
HETATM   10  C12 UNL     1      -6.237   0.675  17.037  1.00  0.00     0.003 C 
HETATM   11  C13 UNL     1      -5.027   0.717  16.147  1.00  0.00     0.020 C 
HETATM   12  C14 UNL     1      -4.417   2.126  16.279  1.00  0.00     0.125 C 
ENDBRANCH   5   7
ENDBRANCH   2   5
ENDBRANCH   1   2
BRANCH   1  13
HETATM   13  C4  UNL     1      -4.099   2.247  11.219  1.00  0.00     0.203 C 
BRANCH  13  14
HETATM   14  O1  UNL     1      -4.658   2.341   9.970  1.00  0.00    -0.386 OA
ATOM     15  H1  UNL     1      -5.228   3.093   9.863  1.00  0.00     0.210 HD
ENDBRANCH  13  14
BRANCH  13  16
HETATM   16  C5  UNL     1      -3.781   0.784  11.408  1.00  0.00     0.103 C 
HETATM   17  N2  UNL     1      -4.688  -0.087  11.657  1.00  0.00    -0.378 N 
HETATM   18  C6  UNL     1      -4.416  -1.496  11.843  1.00  0.00     0.122 C 
ATOM     19  H2  UNL     1      -5.654   0.230  11.729  1.00  0.00     0.160 HD
HETATM   20  C7  UNL     1      -3.134  -1.917  11.163  1.00  0.00     0.039 C 
HETATM   21  C8  UNL     1      -2.007  -0.980  11.544  1.00  0.00     0.122 C 
HETATM   22  N3  UNL     1      -2.435   0.362  11.305  1.00  0.00    -0.378 N 
ATOM     23  H3  UNL     1      -1.732   1.053  11.046  1.00  0.00     0.160 HD
ENDBRANCH  13  16
ENDBRANCH   1  13
TORSDOF 7
ENDMDL
MODEL 4
REMARK VINA RESULT: -5.935216197      1.962      2.352
REMARK  7 active torsions:
REMARK  status: ('A' for Active; 'I' for Inactive)
REMARK    1  A    between atoms: C2_2  and  N1_3 
REMARK    2  A    between atoms: N1_3  and  C3_4 
REMARK    3  A    between atoms: N1_3  and  C9_16 
REMARK    4  A    between atoms: C3_4  and  C4_5 
REMARK    5  A    between atoms: C4_5  and  O1_6 
REMARK    6  A    between atoms: C4_5  and  C5_8 
REMARK    7  A    between atoms: C9_16  and  N4_18 
ROOT
HETATM    1  C3  UNL     1      -3.479   3.881  12.958  1.00  0.00     0.164 C 
ENDROOT
BRANCH   1   2
HETATM    2  N1  UNL     1      -2.968   4.027  11.618  1.00  0.00    -0.356 N 
BRANCH   2   3
HETATM    3  C2  UNL     1      -3.066   5.257  10.889  1.00  0.00     0.120 C 
HETATM    4  C1  UNL     1      -4.039   5.302   9.751  1.00  0.00     0.026 C 
ENDBRANCH   2   3
BRANCH   2   5
HETATM    5  C9  UNL     1      -2.428   2.871  11.016  1.00  0.00     0.172 C 
HETATM    6  S1  UNL     1      -0.847   3.090  10.440  1.00  0.00    -0.041 SA
BRANCH   5   7
HETATM    7  N4  UNL     1      -2.944   1.594  10.805  1.00  0.00    -0.358 N 
HETATM    8  C10 UNL     1      -2.116   0.476  11.391  1.00  0.00     0.125 C 
HETATM    9  C11 UNL     1      -2.839  -0.824  11.290  1.00  0.00     0.020 C 
HETATM   10  C12 UNL     1      -4.270  -0.790  11.745  1.00  0.00     0.003 C 
HETATM   11  C13 UNL     1      -4.963   0.470  11.309  1.00  0.00     0.020 C 
HETATM   12  C14 UNL     1      -4.106   1.093  10.190  1.00  0.00     0.125 C 
ENDBRANCH   5   7
ENDBRANCH   2   5
ENDBRANCH   1   2
BRANCH   1  13
HETATM   13  C4  UNL     1      -4.893   3.620  13.211  1.00  0.00     0.203 C 
BRANCH  13  14
HETATM   14  O1  UNL     1      -5.627   4.754  13.451  1.00  0.00    -0.386 OA
ATOM     15  H1  UNL     1      -6.424   4.595  13.943  1.00  0.00     0.210 HD
ENDBRANCH  13  14
BRANCH  13  16
HETATM   16  C5  UNL     1      -5.099   2.745  14.423  1.00  0.00     0.103 C 
HETATM   17  N2  UNL     1      -4.395   1.695  14.637  1.00  0.00    -0.378 N 
HETATM   18  C6  UNL     1      -4.568   0.835  15.788  1.00  0.00     0.122 C 
ATOM     19  H2  UNL     1      -3.674   1.451  13.958  1.00  0.00     0.160 HD
HETATM   20  C7  UNL     1      -5.198   1.568  16.949  1.00  0.00     0.039 C 
HETATM   21  C8  UNL     1      -6.440   2.303  16.493  1.00  0.00     0.122 C 
HETATM   22  N3  UNL     1      -6.103   3.098  15.354  1.00  0.00    -0.378 N 
ATOM     23  H3  UNL     1      -6.615   3.967  15.206  1.00  0.00     0.160 HD
ENDBRANCH  13  16
ENDBRANCH   1  13
TORSDOF 7
ENDMDL
MODEL 5
REMARK VINA RESULT: -5.929206122      2.789      6.172
REMARK  7 active torsions:
REMARK  status: ('A' for Active; 'I' for Inactive)
REMARK    1  A    between atoms: C2_2  and  N1_3 
REMARK    2  A    between atoms: N1_3  and  C3_4 
REMARK    3  A    between atoms: N1_3  and  C9_16 
REMARK    4  A    between atoms: C3_4  and  C4_5 
REMARK    5  A    between atoms: C4_5  and  O1_6 
REMARK    6  A    between atoms: C4_5  and  C5_8 
REMARK    7  A    between atoms: C9_16  and  N4_18 
ROOT
HETATM    1  C3  UNL     1      -4.146   2.881  15.499  1.00  0.00     0.164 C 
ENDROOT
BRANCH   1   2
HETATM    2  N1  UNL     1      -5.069   3.951  15.211  1.00  0.00    -0.356 N 
BRANCH   2   3
HETATM    3  C2  UNL     1      -6.489   3.790  15.321  1.00  0.00     0.120 C 
HETATM    4  C1  UNL     1      -7.047   3.572  16.694  1.00  0.00     0.026 C 
ENDBRANCH   2   3
BRANCH   2   5
HETATM    5  C9  UNL     1      -4.513   5.157  14.735  1.00  0.00     0.172 C 
HETATM    6  S1  UNL     1      -2.852   5.048  14.409  1.00  0.00    -0.041 SA
BRANCH   5   7
HETATM    7  N4  UNL     1      -5.066   6.411  14.485  1.00  0.00    -0.358 N 
HETATM    8  C10 UNL     1      -5.651   6.578  13.103  1.00  0.00     0.125 C 
HETATM    9  C11 UNL     1      -6.388   7.869  12.995  1.00  0.00     0.020 C 
HETATM   10  C12 UNL     1      -7.339   8.152  14.123  1.00  0.00     0.003 C 
HETATM   11  C13 UNL     1      -6.763   7.746  15.451  1.00  0.00     0.020 C 
HETATM   12  C14 UNL     1      -5.245   7.577  15.253  1.00  0.00     0.125 C 
ENDBRANCH   5   7
ENDBRANCH   2   5
ENDBRANCH   1   2
BRANCH   1  13
HETATM   13  C4  UNL     1      -4.487   1.486  15.235  1.00  0.00     0.203 C 
BRANCH  13  14
HETATM   14  O1  UNL     1      -3.827   0.596  16.043  1.00  0.00    -0.386 OA
ATOM     15  H1  UNL     1      -4.073  -0.309  15.894  1.00  0.00     0.210 HD
ENDBRANCH  13  14
BRANCH  13  16
HETATM   16  C5  UNL     1      -4.145   1.078  13.823  1.00  0.00     0.103 C 
HETATM   17  N2  UNL     1      -3.626   1.893  12.981  1.00  0.00    -0.378 N 
HETATM   18  C6  UNL     1      -3.287   1.533  11.621  1.00  0.00     0.122 C 
ATOM     19  H2  UNL     1      -3.443   2.849  13.286  1.00  0.00     0.160 HD
HETATM   20  C7  UNL     1      -3.050   0.048  11.474  1.00  0.00     0.039 C 
HETATM   21  C8  UNL     1      -4.197  -0.727  12.087  1.00  0.00     0.122 C 
HETATM   22  N3  UNL     1      -4.405  -0.252  13.418  1.00  0.00    -0.378 N 
ATOM     23  H3  UNL     1      -4.760  -0.907  14.114  1.00  0.00     0.160 HD
ENDBRANCH  13  16
ENDBRANCH   1  13
TORSDOF 7
ENDMDL
