MODEL 1
REMARK VINA RESULT: -6.559273460      0.000      0.000
REMARK  5 active torsions:
REMARK  status: ('A' for Active; 'I' for Inactive)
REMARK    1  A    between atoms: N2_8  and  C5_9 
REMARK    2  A    between atoms: C5_9  and  C6_10 
REMARK    3  A    between atoms: C6_10  and  C7_11 
REMARK    4  A    between atoms: C7_11  and  N3_12 
REMARK    5  A    between atoms: C10_15  and  O2_16 
ROOT
HETATM    1  C6  UNL     1      -3.572   4.055  13.766  1.00  0.00     0.050 C 
ENDROOT
BRANCH   1   2
HETATM    2  C5  UNL     1      -4.929   3.365  13.736  1.00  0.00     0.138 C 
BRANCH   2   3
HETATM    3  N2  UNL     1      -4.814   2.021  13.209  1.00  0.00    -0.268 N 
HETATM    4  C4  UNL     1      -4.399   0.863  13.963  1.00  0.00     0.326 C 
HETATM    5  N1  UNL     1      -4.419  -0.251  13.079  1.00  0.00    -0.325 N 
HETATM    6  O1  UNL     1      -4.082   0.856  15.181  1.00  0.00    -0.247 OA
HETATM    7  C2  UNL     1      -4.212   0.335  11.750  1.00  0.00     0.108 C 
ATOM      8  H1  UNL     1      -4.547  -1.235  13.316  1.00  0.00     0.165 HD
HETATM    9  C1  UNL     1      -2.780   0.803  11.648  1.00  0.00     0.049 C 
HETATM   10  C3  UNL     1      -4.633  -0.603  10.673  1.00  0.00     0.049 C 
HETATM   11  C15 UNL     1      -5.071   1.545  11.877  1.00  0.00     0.255 C 
HETATM   12  O3  UNL     1      -5.856   2.094  11.082  1.00  0.00    -0.270 OA
ENDBRANCH   2   3
ENDBRANCH   1   2
BRANCH   1  13
HETATM   13  C7  UNL     1      -3.367   4.907  12.532  1.00  0.00     0.274 C 
BRANCH  13  14
HETATM   14  N3  UNL     1      -2.346   4.315  11.740  1.00  0.00     0.096 N 
HETATM   15  C8  UNL     1      -1.113   5.068  11.672  1.00  0.00     0.276 C 
HETATM   16  C9  UNL     1      -0.312   4.155  10.728  1.00  0.00     0.073 C 
HETATM   17  C10 UNL     1      -1.374   3.933   9.644  1.00  0.00     0.121 C 
HETATM   18  C11 UNL     1      -1.351   5.083   8.682  1.00  0.00     0.206 C 
HETATM   19  C14 UNL     1      -2.711   3.995  10.385  1.00  0.00     0.260 C 
HETATM   20  F1  UNL     1      -0.625   4.800   7.528  1.00  0.00    -0.246 F 
HETATM   21  C12 UNL     1      -2.791   5.326   8.383  1.00  0.00     0.042 C 
HETATM   22  C13 UNL     1      -3.532   5.017   9.681  1.00  0.00     0.042 C 
BRANCH  17  23
HETATM   23  O2  UNL     1      -1.256   2.705   9.038  1.00  0.00    -0.385 OA
ATOM     24  H2  UNL     1      -1.469   2.734   8.113  1.00  0.00     0.210 HD
ENDBRANCH  17  23
ENDBRANCH  13  14
ENDBRANCH   1  13
TORSDOF 5
ENDMDL
MODEL 2
REMARK VINA RESULT: -6.521221185      1.957      2.550
REMARK  5 active torsions:
REMARK  status: ('A' for Active; 'I' for Inactive)
REMARK    1  A    between atoms: N2_8  and  C5_9 
REMARK    2  A    between atoms: C5_9  and  C6_10 
REMARK    3  A    between atoms: C6_10  and  C7_11 
REMARK    4  A    between atoms: C7_11  and  N3_12 
REMARK    5  A    between atoms: C10_15  and  O2_16 
ROOT
HETATM    1  C6  UNL     1      -3.753   3.810  14.303  1.00  0.00     0.050 C 
ENDROOT
BRANCH   1   2
HETATM    2  C5  UNL     1      -5.079   3.160  13.934  1.00  0.00     0.138 C 
BRANCH   2   3
HETATM    3  N2  UNL     1      -4.866   1.903  13.246  1.00  0.00    -0.268 N 
HETATM    4  C4  UNL     1      -4.391   0.688  13.860  1.00  0.00     0.326 C 
HETATM    5  N1  UNL     1      -4.320  -0.304  12.843  1.00  0.00    -0.325 N 
HETATM    6  O1  UNL     1      -4.098   0.545  15.076  1.00  0.00    -0.247 OA
HETATM    7  C2  UNL     1      -4.125   0.458  11.605  1.00  0.00     0.108 C 
ATOM      8  H1  UNL     1      -4.388  -1.317  12.951  1.00  0.00     0.165 HD
HETATM    9  C1  UNL     1      -2.725   1.024  11.602  1.00  0.00     0.049 C 
HETATM   10  C3  UNL     1      -4.462  -0.361  10.407  1.00  0.00     0.049 C 
HETATM   11  C15 UNL     1      -5.064   1.586  11.858  1.00  0.00     0.255 C 
HETATM   12  O3  UNL     1      -5.867   2.181  11.117  1.00  0.00    -0.270 OA
ENDBRANCH   2   3
ENDBRANCH   1   2
BRANCH   1  13
HETATM   13  C7  UNL     1      -3.584   5.139  13.599  1.00  0.00     0.274 C 
BRANCH  13  14
HETATM   14  N3  UNL     1      -4.003   4.991  12.250  1.00  0.00     0.096 N 
HETATM   15  C8  UNL     1      -2.933   4.807  11.295  1.00  0.00     0.276 C 
HETATM   16  C9  UNL     1      -3.760   4.732  10.000  1.00  0.00     0.073 C 
HETATM   17  C10 UNL     1      -4.667   5.950  10.218  1.00  0.00     0.121 C 
HETATM   18  C11 UNL     1      -3.946   7.190   9.781  1.00  0.00     0.206 C 
HETATM   19  C14 UNL     1      -4.840   6.044  11.736  1.00  0.00     0.260 C 
HETATM   20  F1  UNL     1      -4.309   7.595   8.500  1.00  0.00    -0.246 F 
HETATM   21  C12 UNL     1      -4.324   8.202  10.809  1.00  0.00     0.042 C 
HETATM   22  C13 UNL     1      -4.444   7.426  12.117  1.00  0.00     0.042 C 
BRANCH  17  23
HETATM   23  O2  UNL     1      -5.902   5.795   9.636  1.00  0.00    -0.385 OA
ATOM     24  H2  UNL     1      -6.579   6.285  10.087  1.00  0.00     0.210 HD
ENDBRANCH  17  23
ENDBRANCH  13  14
ENDBRANCH   1  13
TORSDOF 5
ENDMDL
MODEL 3
REMARK VINA RESULT: -6.511156645      2.923      4.009
REMARK  5 active torsions:
REMARK  status: ('A' for Active; 'I' for Inactive)
REMARK    1  A    between atoms: N2_8  and  C5_9 
REMARK    2  A    between atoms: C5_9  and  C6_10 
REMARK    3  A    between atoms: C6_10  and  C7_11 
REMARK    4  A    between atoms: C7_11  and  N3_12 
REMARK    5  A    between atoms: C10_15  and  O2_16 
ROOT
HETATM    1  C6  UNL     1      -4.297   3.083  14.668  1.00  0.00     0.050 C 
ENDROOT
BRANCH   1   2
HETATM    2  C5  UNL     1      -4.967   2.661  13.367  1.00  0.00     0.138 C 
BRANCH   2   3
HETATM    3  N2  UNL     1      -4.203   1.624  12.704  1.00  0.00    -0.268 N 
HETATM    4  C4  UNL     1      -3.162   1.849  11.732  1.00  0.00     0.326 C 
HETATM    5  N1  UNL     1      -2.671   0.576  11.329  1.00  0.00    -0.325 N 
HETATM    6  O1  UNL     1      -2.770   2.973  11.323  1.00  0.00    -0.247 OA
HETATM    7  C2  UNL     1      -3.800  -0.335  11.550  1.00  0.00     0.108 C 
ATOM      8  H1  UNL     1      -1.745   0.348  10.968  1.00  0.00     0.165 HD
HETATM    9  C1  UNL     1      -4.858  -0.053  10.509  1.00  0.00     0.049 C 
HETATM   10  C3  UNL     1      -3.349  -1.753  11.603  1.00  0.00     0.049 C 
HETATM   11  C15 UNL     1      -4.297   0.197  12.849  1.00  0.00     0.255 C 
HETATM   12  O3  UNL     1      -4.715  -0.371  13.875  1.00  0.00    -0.270 OA
ENDBRANCH   2   3
ENDBRANCH   1   2
BRANCH   1  13
HETATM   13  C7  UNL     1      -4.299   4.589  14.818  1.00  0.00     0.274 C 
BRANCH  13  14
HETATM   14  N3  UNL     1      -3.338   5.133  13.924  1.00  0.00     0.096 N 
HETATM   15  C8  UNL     1      -1.968   4.760  14.200  1.00  0.00     0.276 C 
HETATM   16  C9  UNL     1      -1.263   5.550  13.085  1.00  0.00     0.073 C 
HETATM   17  C10 UNL     1      -1.955   6.906  13.271  1.00  0.00     0.121 C 
HETATM   18  C11 UNL     1      -1.265   7.671  14.361  1.00  0.00     0.206 C 
HETATM   19  C14 UNL     1      -3.356   6.565  13.781  1.00  0.00     0.260 C 
HETATM   20  F1  UNL     1      -0.357   8.604  13.867  1.00  0.00    -0.246 F 
HETATM   21  C12 UNL     1      -2.383   8.326  15.098  1.00  0.00     0.042 C 
HETATM   22  C13 UNL     1      -3.543   7.336  15.040  1.00  0.00     0.042 C 
BRANCH  17  23
HETATM   23  O2  UNL     1      -2.066   7.604  12.092  1.00  0.00    -0.385 OA
ATOM     24  H2  UNL     1      -2.963   7.653  11.783  1.00  0.00     0.210 HD
ENDBRANCH  17  23
ENDBRANCH  13  14
ENDBRANCH   1  13
TORSDOF 5
ENDMDL
MODEL 4
REMARK VINA RESULT: -6.474346193      2.639      4.310
REMARK  5 active torsions:
REMARK  status: ('A' for Active; 'I' for Inactive)
REMARK    1  A    between atoms: N2_8  and  C5_9 
REMARK    2  A    between atoms: C5_9  and  C6_10 
REMARK    3  A    between atoms: C6_10  and  C7_11 
REMARK    4  A    between atoms: C7_11  and  N3_12 
REMARK    5  A    between atoms: C10_15  and  O2_16 
ROOT
HETATM    1  C6  UNL     1      -2.790   4.209  14.072  1.00  0.00     0.050 C 
ENDROOT
BRANCH   1   2
HETATM    2  C5  UNL     1      -3.868   4.630  15.063  1.00  0.00     0.138 C 
BRANCH   2   3
HETATM    3  N2  UNL     1      -4.786   3.540  15.322  1.00  0.00    -0.268 N 
HETATM    4  C4  UNL     1      -6.159   3.486  14.882  1.00  0.00     0.326 C 
HETATM    5  N1  UNL     1      -6.706   2.257  15.342  1.00  0.00    -0.325 N 
HETATM    6  O1  UNL     1      -6.750   4.372  14.212  1.00  0.00    -0.247 OA
HETATM    7  C2  UNL     1      -5.913   1.929  16.532  1.00  0.00     0.108 C 
ATOM      8  H1  UNL     1      -7.477   1.724  14.937  1.00  0.00     0.165 HD
HETATM    9  C1  UNL     1      -6.288   2.884  17.639  1.00  0.00     0.049 C 
HETATM   10  C3  UNL     1      -6.043   0.488  16.889  1.00  0.00     0.049 C 
HETATM   11  C15 UNL     1      -4.561   2.317  16.043  1.00  0.00     0.255 C 
HETATM   12  O3  UNL     1      -3.444   1.782  16.173  1.00  0.00    -0.270 OA
ENDBRANCH   2   3
ENDBRANCH   1   2
BRANCH   1  13
HETATM   13  C7  UNL     1      -3.352   4.100  12.671  1.00  0.00     0.274 C 
BRANCH  13  14
HETATM   14  N3  UNL     1      -2.661   3.064  11.988  1.00  0.00     0.096 N 
HETATM   15  C8  UNL     1      -2.527   3.257  10.561  1.00  0.00     0.276 C 
HETATM   16  C9  UNL     1      -1.791   1.957  10.198  1.00  0.00     0.073 C 
HETATM   17  C10 UNL     1      -2.667   0.957  10.963  1.00  0.00     0.121 C 
HETATM   18  C11 UNL     1      -3.864   0.607  10.131  1.00  0.00     0.206 C 
HETATM   19  C14 UNL     1      -3.178   1.735  12.178  1.00  0.00     0.260 C 
HETATM   20  F1  UNL     1      -3.707  -0.597   9.450  1.00  0.00    -0.246 F 
HETATM   21  C12 UNL     1      -4.978   0.541  11.120  1.00  0.00     0.042 C 
HETATM   22  C13 UNL     1      -4.661   1.612  12.160  1.00  0.00     0.042 C 
BRANCH  17  23
HETATM   23  O2  UNL     1      -1.958  -0.136  11.398  1.00  0.00    -0.385 OA
ATOM     24  H2  UNL     1      -2.288  -0.950  11.036  1.00  0.00     0.210 HD
ENDBRANCH  17  23
ENDBRANCH  13  14
ENDBRANCH   1  13
TORSDOF 5
ENDMDL
MODEL 5
REMARK VINA RESULT: -6.442758235      2.479      3.696
REMARK  5 active torsions:
REMARK  status: ('A' for Active; 'I' for Inactive)
REMARK    1  A    between atoms: N2_8  and  C5_9 
REMARK    2  A    between atoms: C5_9  and  C6_10 
REMARK    3  A    between atoms: C6_10  and  C7_11 
REMARK    4  A    between atoms: C7_11  and  N3_12 
REMARK    5  A    between atoms: C10_15  and  O2_16 
ROOT
HETATM    1  C6  UNL     1      -4.139   2.959  13.310  1.00  0.00     0.050 C 
ENDROOT
BRANCH   1   2
HETATM    2  C5  UNL     1      -5.413   2.202  13.659  1.00  0.00     0.138 C 
BRANCH   2   3
HETATM    3  N2  UNL     1      -5.470   1.910  15.076  1.00  0.00    -0.268 N 
HETATM    4  C4  UNL     1      -5.064   0.669  15.689  1.00  0.00     0.326 C 
HETATM    5  N1  UNL     1      -5.281   0.793  17.089  1.00  0.00    -0.325 N 
HETATM    6  O1  UNL     1      -4.601  -0.332  15.082  1.00  0.00    -0.247 OA
HETATM    7  C2  UNL     1      -6.360   1.781  17.203  1.00  0.00     0.108 C 
ATOM      8  H1  UNL     1      -4.797   0.304  17.843  1.00  0.00     0.165 HD
HETATM    9  C1  UNL     1      -7.646   1.146  16.731  1.00  0.00     0.049 C 
HETATM   10  C3  UNL     1      -6.423   2.357  18.575  1.00  0.00     0.049 C 
HETATM   11  C15 UNL     1      -5.925   2.745  16.155  1.00  0.00     0.255 C 
HETATM   12  O3  UNL     1      -5.916   3.989  16.122  1.00  0.00    -0.270 OA
ENDBRANCH   2   3
ENDBRANCH   1   2
BRANCH   1  13
HETATM   13  C7  UNL     1      -4.256   3.628  11.958  1.00  0.00     0.274 C 
BRANCH  13  14
HETATM   14  N3  UNL     1      -3.321   3.025  11.074  1.00  0.00     0.096 N 
HETATM   15  C8  UNL     1      -2.436   2.060  11.688  1.00  0.00     0.276 C 
HETATM   16  C9  UNL     1      -1.586   1.682  10.463  1.00  0.00     0.073 C 
HETATM   17  C10 UNL     1      -1.272   3.090   9.940  1.00  0.00     0.121 C 
HETATM   18  C11 UNL     1      -0.097   3.647  10.686  1.00  0.00     0.206 C 
HETATM   19  C14 UNL     1      -2.490   3.932  10.328  1.00  0.00     0.260 C 
HETATM   20  F1  UNL     1       1.097   3.506   9.983  1.00  0.00    -0.246 F 
HETATM   21  C12 UNL     1      -0.453   5.080  10.891  1.00  0.00     0.042 C 
HETATM   22  C13 UNL     1      -1.965   5.099  11.089  1.00  0.00     0.042 C 
BRANCH  17  23
HETATM   23  O2  UNL     1      -1.125   3.121   8.574  1.00  0.00    -0.385 OA
ATOM     24  H2  UNL     1      -1.860   3.535   8.139  1.00  0.00     0.210 HD
ENDBRANCH  17  23
ENDBRANCH  13  14
ENDBRANCH   1  13
TORSDOF 5
ENDMDL
