MODEL 1
REMARK VINA RESULT: -6.392590554      0.000      0.000
REMARK  6 active torsions:
REMARK  status: ('A' for Active; 'I' for Inactive)
REMARK    1  A    between atoms: C2_4  and  C3_5 
REMARK    2  A    between atoms: C2_4  and  N3_16 
REMARK    3  A    between atoms: C3_5  and  N2_6 
REMARK    4  A    between atoms: N2_6  and  C4_9 
REMARK    5  A    between atoms: C12_19  and  O1_20 
REMARK    6  A    between atoms: C12_19  and  C13_22 
ROOT
HETATM    1  C1  UNL     1      -1.711   4.648   8.625  1.00  0.00     0.147 C 
HETATM    2  N1  UNL     1      -1.603   4.891  10.003  1.00  0.00    -0.383 N 
ATOM      3  H1  UNL     1      -1.171   5.789  10.214  1.00  0.00     0.160 HD
HETATM    4  C2  UNL     1      -1.921   4.247  11.034  1.00  0.00     0.100 C 
ENDROOT
BRANCH   4   5
HETATM    5  C3  UNL     1      -1.655   4.811  12.408  1.00  0.00     0.308 C 
BRANCH   5   6
HETATM    6  N2  UNL     1      -2.417   6.009  12.547  1.00  0.00    -0.060 N 
ATOM      7  H22 UNL     1      -1.810   6.802  12.752  1.00  0.00     0.278 HD
ATOM      8  H21 UNL     1      -2.788   6.308  11.646  1.00  0.00     0.278 HD
BRANCH   6   9
HETATM    9  C4  UNL     1      -3.467   5.904  13.525  1.00  0.00     0.125 C 
HETATM   10  C5  UNL     1      -3.288   7.027  14.522  1.00  0.00     0.046 C 
HETATM   11  C6  UNL     1      -3.415   4.608  14.304  1.00  0.00     0.041 C 
HETATM   12  C7  UNL     1      -4.812   4.574  14.943  1.00  0.00     0.040 C 
HETATM   13  C8  UNL     1      -5.721   5.193  13.899  1.00  0.00     0.172 C 
HETATM   14  F1  UNL     1      -6.657   6.027  14.475  1.00  0.00    -0.249 F 
HETATM   15  C9  UNL     1      -4.815   5.902  12.916  1.00  0.00     0.075 C 
ENDBRANCH   6   9
ENDBRANCH   5   6
ENDBRANCH   4   5
BRANCH   4  16
HETATM   16  N3  UNL     1      -2.512   2.972  10.964  1.00  0.00    -0.369 N 
HETATM   17  C10 UNL     1      -3.955   2.903  11.005  1.00  0.00     0.127 C 
HETATM   18  C11 UNL     1      -4.465   1.499  10.825  1.00  0.00     0.059 C 
HETATM   19  C12 UNL     1      -3.671   0.599  11.737  1.00  0.00     0.073 C 
HETATM   20  C14 UNL     1      -2.286   0.517  11.198  1.00  0.00     0.059 C 
HETATM   21  C15 UNL     1      -1.663   1.821  10.834  1.00  0.00     0.127 C 
BRANCH  19  22
HETATM   22  O1  UNL     1      -3.742   1.082  13.046  1.00  0.00    -0.389 OA
ATOM     23  H1  UNL     1      -4.238   0.474  13.581  1.00  0.00     0.210 HD
ENDBRANCH  19  22
BRANCH  19  24
HETATM   24  C13 UNL     1      -4.271  -0.788  11.768  1.00  0.00     0.152 C 
HETATM   25 CL1  UNL     1      -3.065  -2.019  11.363  1.00  0.00    -0.127 Cl
ENDBRANCH  19  24
ENDBRANCH   4  16
TORSDOF 6
ENDMDL
MODEL 2
REMARK VINA RESULT: -6.305209436      1.539      1.808
REMARK  6 active torsions:
REMARK  status: ('A' for Active; 'I' for Inactive)
REMARK    1  A    between atoms: C2_4  and  C3_5 
REMARK    2  A    between atoms: C2_4  and  N3_16 
REMARK    3  A    between atoms: C3_5  and  N2_6 
REMARK    4  A    between atoms: N2_6  and  C4_9 
REMARK    5  A    between atoms: C12_19  and  O1_20 
REMARK    6  A    between atoms: C12_19  and  C13_22 
ROOT
HETATM    1  C1  UNL     1      -3.140   4.663   8.899  1.00  0.00     0.147 C 
HETATM    2  N1  UNL     1      -3.158   4.867  10.288  1.00  0.00    -0.383 N 
ATOM      3  H1  UNL     1      -3.004   5.841  10.547  1.00  0.00     0.160 HD
HETATM    4  C2  UNL     1      -3.321   4.118  11.282  1.00  0.00     0.100 C 
ENDROOT
BRANCH   4   5
HETATM    5  C3  UNL     1      -3.277   4.675  12.684  1.00  0.00     0.308 C 
BRANCH   5   6
HETATM    6  N2  UNL     1      -4.609   5.011  13.066  1.00  0.00    -0.060 N 
ATOM      7  H22 UNL     1      -4.752   6.020  13.035  1.00  0.00     0.278 HD
ATOM      8  H21 UNL     1      -5.275   4.724  12.348  1.00  0.00     0.278 HD
BRANCH   6   9
HETATM    9  C4  UNL     1      -4.983   4.481  14.351  1.00  0.00     0.125 C 
HETATM   10  C5  UNL     1      -5.074   5.637  15.321  1.00  0.00     0.046 C 
HETATM   11  C6  UNL     1      -3.959   3.516  14.906  1.00  0.00     0.041 C 
HETATM   12  C7  UNL     1      -4.759   2.821  16.019  1.00  0.00     0.040 C 
HETATM   13  C8  UNL     1      -6.170   2.732  15.471  1.00  0.00     0.172 C 
HETATM   14  F1  UNL     1      -7.109   3.002  16.444  1.00  0.00    -0.249 F 
HETATM   15  C9  UNL     1      -6.232   3.690  14.301  1.00  0.00     0.075 C 
ENDBRANCH   6   9
ENDBRANCH   5   6
ENDBRANCH   4   5
BRANCH   4  16
HETATM   16  N3  UNL     1      -3.527   2.732  11.145  1.00  0.00    -0.369 N 
HETATM   17  C10 UNL     1      -4.891   2.268  11.032  1.00  0.00     0.127 C 
HETATM   18  C11 UNL     1      -4.972   0.786  10.794  1.00  0.00     0.059 C 
HETATM   19  C12 UNL     1      -4.057   0.109  11.783  1.00  0.00     0.073 C 
HETATM   20  C14 UNL     1      -2.657   0.427  11.393  1.00  0.00     0.059 C 
HETATM   21  C15 UNL     1      -2.384   1.864  11.102  1.00  0.00     0.127 C 
BRANCH  19  22
HETATM   22  O1  UNL     1      -4.391   0.510  13.078  1.00  0.00    -0.389 OA
ATOM     23  H1  UNL     1      -4.993  -0.118  13.459  1.00  0.00     0.210 HD
ENDBRANCH  19  22
BRANCH  19  24
HETATM   24  C13 UNL     1      -4.251  -1.390  11.744  1.00  0.00     0.152 C 
HETATM   25 CL1  UNL     1      -2.749  -2.221  11.312  1.00  0.00    -0.127 Cl
ENDBRANCH  19  24
ENDBRANCH   4  16
TORSDOF 6
ENDMDL
MODEL 3
REMARK VINA RESULT: -6.261657991      3.606      5.140
REMARK  6 active torsions:
REMARK  status: ('A' for Active; 'I' for Inactive)
REMARK    1  A    between atoms: C2_4  and  C3_5 
REMARK    2  A    between atoms: C2_4  and  N3_16 
REMARK    3  A    between atoms: C3_5  and  N2_6 
REMARK    4  A    between atoms: N2_6  and  C4_9 
REMARK    5  A    between atoms: C12_19  and  O1_20 
REMARK    6  A    between atoms: C12_19  and  C13_22 
ROOT
HETATM    1  C1  UNL     1      -1.273   2.736  11.355  1.00  0.00     0.147 C 
HETATM    2  N1  UNL     1      -2.511   2.346  11.888  1.00  0.00    -0.383 N 
ATOM      3  H1  UNL     1      -2.531   1.366  12.168  1.00  0.00     0.160 HD
HETATM    4  C2  UNL     1      -3.600   2.936  12.099  1.00  0.00     0.100 C 
ENDROOT
BRANCH   4   5
HETATM    5  C3  UNL     1      -4.772   2.201  12.703  1.00  0.00     0.308 C 
BRANCH   5   6
HETATM    6  N2  UNL     1      -4.310   1.519  13.866  1.00  0.00    -0.060 N 
ATOM      7  H22 UNL     1      -4.517   0.522  13.808  1.00  0.00     0.278 HD
ATOM      8  H21 UNL     1      -3.291   1.480  13.883  1.00  0.00     0.278 HD
BRANCH   6   9
HETATM    9  C4  UNL     1      -4.821   2.075  15.092  1.00  0.00     0.125 C 
HETATM   10  C5  UNL     1      -3.791   3.046  15.625  1.00  0.00     0.046 C 
HETATM   11  C6  UNL     1      -5.039   1.030  16.162  1.00  0.00     0.041 C 
HETATM   12  C7  UNL     1      -5.932   1.787  17.158  1.00  0.00     0.040 C 
HETATM   13  C8  UNL     1      -6.805   2.670  16.287  1.00  0.00     0.172 C 
HETATM   14  F1  UNL     1      -6.970   3.922  16.841  1.00  0.00    -0.249 F 
HETATM   15  C9  UNL     1      -6.150   2.701  14.924  1.00  0.00     0.075 C 
ENDBRANCH   6   9
ENDBRANCH   5   6
ENDBRANCH   4   5
BRANCH   4  16
HETATM   16  N3  UNL     1      -3.792   4.289  11.763  1.00  0.00    -0.369 N 
HETATM   17  C10 UNL     1      -3.476   5.277  12.770  1.00  0.00     0.127 C 
HETATM   18  C11 UNL     1      -3.629   6.682  12.259  1.00  0.00     0.059 C 
HETATM   19  C12 UNL     1      -4.955   6.773  11.547  1.00  0.00     0.073 C 
HETATM   20  C14 UNL     1      -4.850   5.978  10.294  1.00  0.00     0.059 C 
HETATM   21  C15 UNL     1      -4.263   4.616  10.447  1.00  0.00     0.127 C 
BRANCH  19  22
HETATM   22  O1  UNL     1      -5.974   6.350  12.404  1.00  0.00    -0.389 OA
ATOM     23  H1  UNL     1      -6.763   6.850  12.230  1.00  0.00     0.210 HD
ENDBRANCH  19  22
BRANCH  19  24
HETATM   24  C13 UNL     1      -5.272   8.209  11.196  1.00  0.00     0.152 C 
HETATM   25 CL1  UNL     1      -7.012   8.522  11.280  1.00  0.00    -0.127 Cl
ENDBRANCH  19  24
ENDBRANCH   4  16
TORSDOF 6
ENDMDL
MODEL 4
REMARK VINA RESULT: -6.193724598      2.828      3.864
REMARK  6 active torsions:
REMARK  status: ('A' for Active; 'I' for Inactive)
REMARK    1  A    between atoms: C2_4  and  C3_5 
REMARK    2  A    between atoms: C2_4  and  N3_16 
REMARK    3  A    between atoms: C3_5  and  N2_6 
REMARK    4  A    between atoms: N2_6  and  C4_9 
REMARK    5  A    between atoms: C12_19  and  O1_20 
REMARK    6  A    between atoms: C12_19  and  C13_22 
ROOT
HETATM    1  C1  UNL     1      -1.709   5.234  14.023  1.00  0.00     0.147 C 
HETATM    2  N1  UNL     1      -2.971   5.702  13.623  1.00  0.00    -0.383 N 
ATOM      3  H1  UNL     1      -3.133   6.674  13.885  1.00  0.00     0.160 HD
HETATM    4  C2  UNL     1      -3.944   5.191  13.016  1.00  0.00     0.100 C 
ENDROOT
BRANCH   4   5
HETATM    5  C3  UNL     1      -5.191   5.995  12.741  1.00  0.00     0.308 C 
BRANCH   5   6
HETATM    6  N2  UNL     1      -4.793   7.252  12.199  1.00  0.00    -0.060 N 
ATOM      7  H22 UNL     1      -4.755   7.965  12.927  1.00  0.00     0.278 HD
ATOM      8  H21 UNL     1      -3.810   7.234  11.928  1.00  0.00     0.278 HD
BRANCH   6   9
HETATM    9  C4  UNL     1      -5.618   7.685  11.102  1.00  0.00     0.125 C 
HETATM   10  C5  UNL     1      -5.137   9.052  10.670  1.00  0.00     0.046 C 
HETATM   11  C6  UNL     1      -7.074   7.828  11.486  1.00  0.00     0.041 C 
HETATM   12  C7  UNL     1      -7.753   7.887  10.109  1.00  0.00     0.040 C 
HETATM   13  C8  UNL     1      -6.932   6.954   9.241  1.00  0.00     0.172 C 
HETATM   14  F1  UNL     1      -6.747   7.471   7.976  1.00  0.00    -0.249 F 
HETATM   15  C9  UNL     1      -5.635   6.717   9.984  1.00  0.00     0.075 C 
ENDBRANCH   6   9
ENDBRANCH   5   6
ENDBRANCH   4   5
BRANCH   4  16
HETATM   16  N3  UNL     1      -3.933   3.850  12.585  1.00  0.00    -0.369 N 
HETATM   17  C10 UNL     1      -3.602   3.597  11.202  1.00  0.00     0.127 C 
HETATM   18  C11 UNL     1      -3.530   2.127  10.893  1.00  0.00     0.059 C 
HETATM   19  C12 UNL     1      -4.756   1.471  11.475  1.00  0.00     0.073 C 
HETATM   20  C14 UNL     1      -4.623   1.502  12.957  1.00  0.00     0.059 C 
HETATM   21  C15 UNL     1      -4.225   2.816  13.538  1.00  0.00     0.127 C 
BRANCH  19  22
HETATM   22  O1  UNL     1      -5.900   2.112  10.995  1.00  0.00    -0.389 OA
ATOM     23  H1  UNL     1      -6.489   2.292  11.719  1.00  0.00     0.210 HD
ENDBRANCH  19  22
BRANCH  19  24
HETATM   24  C13 UNL     1      -4.857   0.034  11.018  1.00  0.00     0.152 C 
HETATM   25 CL1  UNL     1      -3.273  -0.756  11.028  1.00  0.00    -0.127 Cl
ENDBRANCH  19  24
ENDBRANCH   4  16
TORSDOF 6
ENDMDL
MODEL 5
REMARK VINA RESULT: -6.169405418      2.970      4.506
REMARK  6 active torsions:
REMARK  status: ('A' for Active; 'I' for Inactive)
REMARK    1  A    between atoms: C2_4  and  C3_5 
REMARK    2  A    between atoms: C2_4  and  N3_16 
REMARK    3  A    between atoms: C3_5  and  N2_6 
REMARK    4  A    between atoms: N2_6  and  C4_9 
REMARK    5  A    between atoms: C12_19  and  O1_20 
REMARK    6  A    between atoms: C12_19  and  C13_22 
ROOT
HETATM    1  C1  UNL     1      -3.913  -0.279   9.986  1.00  0.00     0.147 C 
HETATM    2  N1  UNL     1      -4.470   0.413  11.073  1.00  0.00    -0.383 N 
ATOM      3  H1  UNL     1      -5.279  -0.062  11.472  1.00  0.00     0.160 HD
HETATM    4  C2  UNL     1      -4.195   1.488  11.662  1.00  0.00     0.100 C 
ENDROOT
BRANCH   4   5
HETATM    5  C3  UNL     1      -5.023   1.960  12.832  1.00  0.00     0.308 C 
BRANCH   5   6
HETATM    6  N2  UNL     1      -4.465   1.404  14.020  1.00  0.00    -0.060 N 
ATOM      7  H22 UNL     1      -4.617   0.396  14.054  1.00  0.00     0.278 HD
ATOM      8  H21 UNL     1      -3.446   1.420  13.983  1.00  0.00     0.278 HD
BRANCH   6   9
HETATM    9  C4  UNL     1      -4.943   2.035  15.222  1.00  0.00     0.125 C 
HETATM   10  C5  UNL     1      -3.926   3.073  15.638  1.00  0.00     0.046 C 
HETATM   11  C6  UNL     1      -5.082   1.065  16.375  1.00  0.00     0.041 C 
HETATM   12  C7  UNL     1      -5.958   1.867  17.350  1.00  0.00     0.040 C 
HETATM   13  C8  UNL     1      -6.896   2.655  16.456  1.00  0.00     0.172 C 
HETATM   14  F1  UNL     1      -7.080   3.940  16.923  1.00  0.00    -0.249 F 
HETATM   15  C9  UNL     1      -6.298   2.606  15.067  1.00  0.00     0.075 C 
ENDBRANCH   6   9
ENDBRANCH   5   6
ENDBRANCH   4   5
BRANCH   4  16
HETATM   16  N3  UNL     1      -3.128   2.309  11.254  1.00  0.00    -0.369 N 
HETATM   17  C10 UNL     1      -1.814   1.711  11.184  1.00  0.00     0.127 C 
HETATM   18  C11 UNL     1      -0.782   2.662  10.644  1.00  0.00     0.059 C 
HETATM   19  C12 UNL     1      -0.942   3.976  11.366  1.00  0.00     0.073 C 
HETATM   20  C14 UNL     1      -2.220   4.588  10.912  1.00  0.00     0.059 C 
HETATM   21  C15 UNL     1      -3.400   3.677  10.909  1.00  0.00     0.127 C 
BRANCH  19  22
HETATM   22  O1  UNL     1      -0.873   3.763  12.744  1.00  0.00    -0.389 OA
ATOM     23  H1  UNL     1      -1.116   4.560  13.200  1.00  0.00     0.210 HD
ENDBRANCH  19  22
BRANCH  19  24
HETATM   24  C13 UNL     1       0.199   4.909  11.028  1.00  0.00     0.152 C 
HETATM   25 CL1  UNL     1       1.484   4.062  10.153  1.00  0.00    -0.127 Cl
ENDBRANCH  19  24
ENDBRANCH   4  16
TORSDOF 6
ENDMDL
