MODEL 1
REMARK VINA RESULT: -4.788885617      0.000      0.000
REMARK  3 active torsions:
REMARK  status: ('A' for Active; 'I' for Inactive)
REMARK    1  A    between atoms: N1_2  and  C3_4 
REMARK    2  A    between atoms: C3_4  and  C4_5 
REMARK    3  A    between atoms: C4_5  and  N2_6 
ROOT
HETATM    1  N2  UNL     1      -4.845   1.889  14.665  1.00  0.00    -0.170 N 
HETATM    2  C5  UNL     1      -5.577   2.620  15.522  1.00  0.00     0.133 A 
HETATM    3 BR1  UNL     1      -6.166   4.431  15.319  1.00  0.00    -0.027 Br
HETATM    4  C6  UNL     1      -5.867   1.846  16.629  1.00  0.00     0.130 A 
HETATM    5 BR2  UNL     1      -6.874   2.349  18.172  1.00  0.00    -0.028 Br
HETATM    6  N3  UNL     1      -5.302   0.649  16.430  1.00  0.00    -0.182 N 
ATOM      7  H3  UNL     1      -5.336  -0.145  17.070  1.00  0.00     0.185 HD
HETATM    8  C7  UNL     1      -4.674   0.677  15.221  1.00  0.00     0.680 A 
HETATM    9  N4  UNL     1      -4.029  -0.344  14.740  1.00  0.00    -0.234 N 
ATOM     10  H41 UNL     1      -3.900  -1.263  15.162  1.00  0.00     0.174 HD
ATOM     11  H42 UNL     1      -3.559  -0.322  13.835  1.00  0.00     0.174 HD
ENDROOT
BRANCH   1  12
HETATM   12  C4  UNL     1      -4.365   2.370  13.406  1.00  0.00     0.192 C 
BRANCH  12  13
HETATM   13  C3  UNL     1      -5.110   1.757  12.244  1.00  0.00     0.078 C 
BRANCH  13  14
HETATM   14  N1  UNL     1      -4.278   0.967  11.454  1.00  0.00    -0.400 N 
HETATM   15  C1  UNL     1      -4.754  -0.136  10.746  1.00  0.00     0.148 C 
HETATM   16  C2  UNL     1      -2.897   1.176  11.409  1.00  0.00     0.148 C 
ENDBRANCH  13  14
ENDBRANCH  12  13
ENDBRANCH   1  12
TORSDOF 3
ENDMDL
MODEL 2
REMARK VINA RESULT: -4.753689524      2.115      2.911
REMARK  3 active torsions:
REMARK  status: ('A' for Active; 'I' for Inactive)
REMARK    1  A    between atoms: N1_2  and  C3_4 
REMARK    2  A    between atoms: C3_4  and  C4_5 
REMARK    3  A    between atoms: C4_5  and  N2_6 
ROOT
HETATM    1  N2  UNL     1      -4.946   3.423  14.620  1.00  0.00    -0.170 N 
HETATM    2  C5  UNL     1      -5.293   2.278  15.233  1.00  0.00     0.133 A 
HETATM    3 BR1  UNL     1      -4.455   0.563  15.086  1.00  0.00    -0.027 Br
HETATM    4  C6  UNL     1      -6.395   2.520  16.030  1.00  0.00     0.130 A 
HETATM    5 BR2  UNL     1      -7.330   1.275  17.135  1.00  0.00    -0.028 Br
HETATM    6  N3  UNL     1      -6.706   3.814  15.888  1.00  0.00    -0.182 N 
ATOM      7  H3  UNL     1      -7.476   4.301  16.349  1.00  0.00     0.185 HD
HETATM    8  C7  UNL     1      -5.812   4.368  15.020  1.00  0.00     0.680 A 
HETATM    9  N4  UNL     1      -5.850   5.621  14.677  1.00  0.00    -0.234 N 
ATOM     10  H41 UNL     1      -6.508   6.338  14.981  1.00  0.00     0.174 HD
ATOM     11  H42 UNL     1      -5.182   6.035  14.028  1.00  0.00     0.174 HD
ENDROOT
BRANCH   1  12
HETATM   12  C4  UNL     1      -3.843   3.546  13.716  1.00  0.00     0.192 C 
BRANCH  12  13
HETATM   13  C3  UNL     1      -4.283   3.474  12.273  1.00  0.00     0.078 C 
BRANCH  13  14
HETATM   14  N1  UNL     1      -4.064   2.211  11.728  1.00  0.00    -0.400 N 
HETATM   15  C1  UNL     1      -2.785   1.738  11.438  1.00  0.00     0.148 C 
HETATM   16  C2  UNL     1      -5.124   1.387  11.342  1.00  0.00     0.148 C 
ENDBRANCH  13  14
ENDBRANCH  12  13
ENDBRANCH   1  12
TORSDOF 3
ENDMDL
MODEL 3
REMARK VINA RESULT: -4.734397484      2.301      4.738
REMARK  3 active torsions:
REMARK  status: ('A' for Active; 'I' for Inactive)
REMARK    1  A    between atoms: N1_2  and  C3_4 
REMARK    2  A    between atoms: C3_4  and  C4_5 
REMARK    3  A    between atoms: C4_5  and  N2_6 
ROOT
HETATM    1  N2  UNL     1      -4.629   1.972  14.655  1.00  0.00    -0.170 N 
HETATM    2  C5  UNL     1      -4.458   2.371  13.383  1.00  0.00     0.133 A 
HETATM    3 BR1  UNL     1      -4.518   4.156  12.692  1.00  0.00    -0.027 Br
HETATM    4  C6  UNL     1      -4.217   1.260  12.599  1.00  0.00     0.130 A 
HETATM    5 BR2  UNL     1      -3.901   1.208  10.716  1.00  0.00    -0.028 Br
HETATM    6  N3  UNL     1      -4.247   0.194  13.408  1.00  0.00    -0.182 N 
ATOM      7  H3  UNL     1      -4.105  -0.777  13.128  1.00  0.00     0.185 HD
HETATM    8  C7  UNL     1      -4.501   0.635  14.673  1.00  0.00     0.680 A 
HETATM    9  N4  UNL     1      -4.591  -0.168  15.692  1.00  0.00    -0.234 N 
ATOM     10  H41 UNL     1      -4.493  -1.183  15.705  1.00  0.00     0.174 HD
ATOM     11  H42 UNL     1      -4.780   0.162  16.638  1.00  0.00     0.174 HD
ENDROOT
BRANCH   1  12
HETATM   12  C4  UNL     1      -4.897   2.859  15.746  1.00  0.00     0.192 C 
BRANCH  12  13
HETATM   13  C3  UNL     1      -6.377   2.997  16.013  1.00  0.00     0.078 C 
BRANCH  13  14
HETATM   14  N1  UNL     1      -6.803   2.140  17.024  1.00  0.00    -0.400 N 
HETATM   15  C1  UNL     1      -6.200   2.117  18.282  1.00  0.00     0.148 C 
HETATM   16  C2  UNL     1      -7.793   1.179  16.801  1.00  0.00     0.148 C 
ENDBRANCH  13  14
ENDBRANCH  12  13
ENDBRANCH   1  12
TORSDOF 3
ENDMDL
MODEL 4
REMARK VINA RESULT: -4.674791149      3.319      4.912
REMARK  3 active torsions:
REMARK  status: ('A' for Active; 'I' for Inactive)
REMARK    1  A    between atoms: N1_2  and  C3_4 
REMARK    2  A    between atoms: C3_4  and  C4_5 
REMARK    3  A    between atoms: C4_5  and  N2_6 
ROOT
HETATM    1  N2  UNL     1      -5.140   3.447  15.101  1.00  0.00    -0.170 N 
HETATM    2  C5  UNL     1      -4.832   4.642  14.570  1.00  0.00     0.133 A 
HETATM    3 BR1  UNL     1      -6.033   6.013  13.982  1.00  0.00    -0.027 Br
HETATM    4  C6  UNL     1      -3.457   4.756  14.503  1.00  0.00     0.130 A 
HETATM    5 BR2  UNL     1      -2.441   6.230  13.838  1.00  0.00    -0.028 Br
HETATM    6  N3  UNL     1      -2.945   3.623  14.996  1.00  0.00    -0.182 N 
ATOM      7  H3  UNL     1      -1.953   3.399  15.081  1.00  0.00     0.185 HD
HETATM    8  C7  UNL     1      -3.982   2.819  15.364  1.00  0.00     0.680 A 
HETATM    9  N4  UNL     1      -3.807   1.639  15.881  1.00  0.00    -0.234 N 
ATOM     10  H41 UNL     1      -2.928   1.162  16.081  1.00  0.00     0.174 HD
ATOM     11  H42 UNL     1      -4.583   1.038  16.157  1.00  0.00     0.174 HD
ENDROOT
BRANCH   1  12
HETATM   12  C4  UNL     1      -6.477   2.987  15.322  1.00  0.00     0.192 C 
BRANCH  12  13
HETATM   13  C3  UNL     1      -6.938   3.245  16.737  1.00  0.00     0.078 C 
BRANCH  13  14
HETATM   14  N1  UNL     1      -6.847   2.103  17.528  1.00  0.00    -0.400 N 
HETATM   15  C1  UNL     1      -6.278   2.124  18.801  1.00  0.00     0.148 C 
HETATM   16  C2  UNL     1      -7.227   0.847  17.047  1.00  0.00     0.148 C 
ENDBRANCH  13  14
ENDBRANCH  12  13
ENDBRANCH   1  12
TORSDOF 3
ENDMDL
MODEL 5
REMARK VINA RESULT: -4.672710804      3.124      4.159
REMARK  3 active torsions:
REMARK  status: ('A' for Active; 'I' for Inactive)
REMARK    1  A    between atoms: N1_2  and  C3_4 
REMARK    2  A    between atoms: C3_4  and  C4_5 
REMARK    3  A    between atoms: C4_5  and  N2_6 
ROOT
HETATM    1  N2  UNL     1      -4.713   2.299  13.992  1.00  0.00    -0.170 N 
HETATM    2  C5  UNL     1      -4.509   1.730  12.792  1.00  0.00     0.133 A 
HETATM    3 BR1  UNL     1      -4.464   2.583  11.078  1.00  0.00    -0.027 Br
HETATM    4  C6  UNL     1      -4.322   0.373  12.971  1.00  0.00     0.130 A 
HETATM    5 BR2  UNL     1      -3.992  -0.945  11.629  1.00  0.00    -0.028 Br
HETATM    6  N3  UNL     1      -4.418   0.133  14.284  1.00  0.00    -0.182 N 
ATOM      7  H3  UNL     1      -4.328  -0.777  14.736  1.00  0.00     0.185 HD
HETATM    8  C7  UNL     1      -4.659   1.320  14.910  1.00  0.00     0.680 A 
HETATM    9  N4  UNL     1      -4.803   1.417  16.199  1.00  0.00    -0.234 N 
ATOM     10  H41 UNL     1      -4.761   0.674  16.896  1.00  0.00     0.174 HD
ATOM     11  H42 UNL     1      -4.983   2.305  16.668  1.00  0.00     0.174 HD
ENDROOT
BRANCH   1  12
HETATM   12  C4  UNL     1      -4.942   3.697  14.189  1.00  0.00     0.192 C 
BRANCH  12  13
HETATM   13  C3  UNL     1      -3.690   4.419  14.627  1.00  0.00     0.078 C 
BRANCH  13  14
HETATM   14  N1  UNL     1      -3.035   5.017  13.552  1.00  0.00    -0.400 N 
HETATM   15  C1  UNL     1      -3.641   5.993  12.762  1.00  0.00     0.148 C 
HETATM   16  C2  UNL     1      -1.767   4.597  13.142  1.00  0.00     0.148 C 
ENDBRANCH  13  14
ENDBRANCH  12  13
ENDBRANCH   1  12
TORSDOF 3
ENDMDL
