MODEL 1
REMARK VINA RESULT: -6.877373452      0.000      0.000
REMARK  6 active torsions:
REMARK  status: ('A' for Active; 'I' for Inactive)
REMARK       I    between atoms: N1_2  and  C2_4 
REMARK    1  A    between atoms: C2_4  and  C3_6 
REMARK    2  A    between atoms: N2_10  and  C7_11 
REMARK    3  A    between atoms: C7_11  and  C8_15 
REMARK    4  A    between atoms: C8_15  and  O2_16 
REMARK    5  A    between atoms: C8_15  and  C9_18 
REMARK    6  A    between atoms: C8_15  and  C10_20 
ROOT
HETATM    1  C7  UNL     1      -4.232   3.693  12.223  1.00  0.00     0.141 C 
HETATM    2  N3  UNL     1      -4.289   4.686  11.409  1.00  0.00    -0.209 N 
ATOM      3  H3  UNL     1      -4.479   5.585  11.853  1.00  0.00     0.201 HD
HETATM    4  F1  UNL     1      -4.147   4.743  10.112  1.00  0.00    -0.100 F 
ENDROOT
BRANCH   1   5
HETATM    5  N2  UNL     1      -3.977   2.380  11.746  1.00  0.00    -0.353 N 
HETATM    6  C3  UNL     1      -2.736   1.664  11.684  1.00  0.00     0.177 C 
HETATM    7  C4  UNL     1      -3.052   0.248  11.302  1.00  0.00     0.037 C 
HETATM    8  C5  UNL     1      -4.473   0.096  11.758  1.00  0.00     0.022 C 
HETATM    9  C6  UNL     1      -5.003   1.450  11.225  1.00  0.00     0.125 C 
BRANCH   6  10
HETATM   10  C2  UNL     1      -1.713   2.247  10.783  1.00  0.00     0.240 C 
HETATM   11  N1  UNL     1      -0.817   3.189  11.343  1.00  0.00    -0.364 N 
HETATM   12  C1  UNL     1       0.219   3.815  10.551  1.00  0.00     0.149 C 
ATOM     13  H1  UNL     1      -0.903   3.432  12.330  1.00  0.00     0.161 HD
HETATM   14  O1  UNL     1      -1.640   1.927   9.592  1.00  0.00    -0.271 OA
ENDBRANCH   6  10
ENDBRANCH   1   5
BRANCH   1  15
HETATM   15  C8  UNL     1      -4.395   4.020  13.651  1.00  0.00     0.134 C 
BRANCH  15  16
HETATM   16  O2  UNL     1      -4.909   5.327  13.737  1.00  0.00    -0.380 OA
ATOM     17  H2  UNL     1      -5.550   5.342  14.437  1.00  0.00     0.211 HD
ENDBRANCH  15  16
BRANCH  15  18
HETATM   18  C9  UNL     1      -3.116   4.074  14.451  1.00  0.00     0.161 C 
HETATM   19 CL1  UNL     1      -2.028   5.378  14.013  1.00  0.00    -0.127 Cl
ENDBRANCH  15  18
BRANCH  15  20
HETATM   20  C10 UNL     1      -5.334   3.141  14.404  1.00  0.00     0.029 C 
HETATM   21  C11 UNL     1      -6.318   3.787  15.298  1.00  0.00     0.008 C 
HETATM   22  C12 UNL     1      -6.621   2.753  16.340  1.00  0.00     0.001 C 
HETATM   23  C13 UNL     1      -5.355   1.973  16.486  1.00  0.00     0.001 C 
HETATM   24  C14 UNL     1      -4.676   2.010  15.136  1.00  0.00     0.008 C 
ENDBRANCH  15  20
ENDBRANCH   1  15
TORSDOF 6
ENDMDL
MODEL 2
REMARK VINA RESULT: -6.821286674      2.344      3.495
REMARK  6 active torsions:
REMARK  status: ('A' for Active; 'I' for Inactive)
REMARK       I    between atoms: N1_2  and  C2_4 
REMARK    1  A    between atoms: C2_4  and  C3_6 
REMARK    2  A    between atoms: N2_10  and  C7_11 
REMARK    3  A    between atoms: C7_11  and  C8_15 
REMARK    4  A    between atoms: C8_15  and  O2_16 
REMARK    5  A    between atoms: C8_15  and  C9_18 
REMARK    6  A    between atoms: C8_15  and  C10_20 
ROOT
HETATM    1  C7  UNL     1      -4.176   3.847  14.221  1.00  0.00     0.141 C 
HETATM    2  N3  UNL     1      -3.199   3.890  15.055  1.00  0.00    -0.209 N 
ATOM      3  H3  UNL     1      -3.477   3.826  16.034  1.00  0.00     0.201 HD
HETATM    4  F1  UNL     1      -1.912   4.003  14.865  1.00  0.00    -0.100 F 
ENDROOT
BRANCH   1   5
HETATM    5  N2  UNL     1      -3.939   3.929  12.824  1.00  0.00    -0.353 N 
HETATM    6  C3  UNL     1      -4.327   3.020  11.785  1.00  0.00     0.177 C 
HETATM    7  C4  UNL     1      -4.021   3.680  10.473  1.00  0.00     0.037 C 
HETATM    8  C5  UNL     1      -4.044   5.138  10.825  1.00  0.00     0.022 C 
HETATM    9  C6  UNL     1      -3.237   5.040  12.144  1.00  0.00     0.125 C 
BRANCH   6  10
HETATM   10  C2  UNL     1      -3.717   1.671  11.862  1.00  0.00     0.240 C 
HETATM   11  N1  UNL     1      -4.596   0.561  11.850  1.00  0.00    -0.364 N 
HETATM   12  C1  UNL     1      -4.104  -0.797  11.920  1.00  0.00     0.149 C 
ATOM     13  H1  UNL     1      -5.601   0.722  11.789  1.00  0.00     0.161 HD
HETATM   14  O1  UNL     1      -2.494   1.516  11.934  1.00  0.00    -0.271 OA
ENDBRANCH   6  10
ENDBRANCH   1   5
BRANCH   1  15
HETATM   15  C8  UNL     1      -5.516   3.660  14.808  1.00  0.00     0.134 C 
BRANCH  15  16
HETATM   16  O2  UNL     1      -6.346   3.106  13.817  1.00  0.00    -0.380 OA
ATOM     17  H2  UNL     1      -7.172   2.876  14.225  1.00  0.00     0.211 HD
ENDBRANCH  15  16
BRANCH  15  18
HETATM   18  C9  UNL     1      -6.224   4.929  15.215  1.00  0.00     0.161 C 
HETATM   19 CL1  UNL     1      -6.560   6.040  13.899  1.00  0.00    -0.127 Cl
ENDBRANCH  15  18
BRANCH  15  20
HETATM   20  C10 UNL     1      -5.577   2.742  15.980  1.00  0.00     0.029 C 
HETATM   21  C11 UNL     1      -5.224   1.323  15.765  1.00  0.00     0.008 C 
HETATM   22  C12 UNL     1      -5.970   0.580  16.832  1.00  0.00     0.001 C 
HETATM   23  C13 UNL     1      -7.214   1.378  17.056  1.00  0.00     0.001 C 
HETATM   24  C14 UNL     1      -6.853   2.816  16.763  1.00  0.00     0.008 C 
ENDBRANCH  15  20
ENDBRANCH   1  15
TORSDOF 6
ENDMDL
MODEL 3
REMARK VINA RESULT: -6.668464136      1.475      1.931
REMARK  6 active torsions:
REMARK  status: ('A' for Active; 'I' for Inactive)
REMARK       I    between atoms: N1_2  and  C2_4 
REMARK    1  A    between atoms: C2_4  and  C3_6 
REMARK    2  A    between atoms: N2_10  and  C7_11 
REMARK    3  A    between atoms: C7_11  and  C8_15 
REMARK    4  A    between atoms: C8_15  and  O2_16 
REMARK    5  A    between atoms: C8_15  and  C9_18 
REMARK    6  A    between atoms: C8_15  and  C10_20 
ROOT
HETATM    1  C7  UNL     1      -4.268   3.009  12.280  1.00  0.00     0.141 C 
HETATM    2  N3  UNL     1      -4.410   4.051  11.541  1.00  0.00    -0.209 N 
ATOM      3  H3  UNL     1      -4.668   4.897  12.049  1.00  0.00     0.201 HD
HETATM    4  F1  UNL     1      -4.281   4.213  10.251  1.00  0.00    -0.100 F 
ENDROOT
BRANCH   1   5
HETATM    5  N2  UNL     1      -3.913   1.760  11.709  1.00  0.00    -0.353 N 
HETATM    6  C3  UNL     1      -2.615   1.168  11.561  1.00  0.00     0.177 C 
HETATM    7  C4  UNL     1      -2.814  -0.244  11.094  1.00  0.00     0.037 C 
HETATM    8  C5  UNL     1      -4.198  -0.558  11.581  1.00  0.00     0.022 C 
HETATM    9  C6  UNL     1      -4.868   0.773  11.157  1.00  0.00     0.125 C 
BRANCH   6  10
HETATM   10  C2  UNL     1      -1.682   1.900  10.672  1.00  0.00     0.240 C 
HETATM   11  N1  UNL     1      -0.850   2.878  11.268  1.00  0.00    -0.364 N 
HETATM   12  C1  UNL     1       0.096   3.647  10.491  1.00  0.00     0.149 C 
ATOM     13  H1  UNL     1      -0.919   3.044  12.272  1.00  0.00     0.161 HD
HETATM   14  O1  UNL     1      -1.627   1.670   9.459  1.00  0.00    -0.271 OA
ENDBRANCH   6  10
ENDBRANCH   1   5
BRANCH   1  15
HETATM   15  C8  UNL     1      -4.448   3.218  13.728  1.00  0.00     0.134 C 
BRANCH  15  16
HETATM   16  O2  UNL     1      -3.189   3.520  14.279  1.00  0.00    -0.380 OA
ATOM     17  H2  UNL     1      -3.321   3.771  15.185  1.00  0.00     0.211 HD
ENDBRANCH  15  16
BRANCH  15  18
HETATM   18  C9  UNL     1      -4.907   2.006  14.503  1.00  0.00     0.161 C 
HETATM   19 CL1  UNL     1      -4.144   1.800  16.069  1.00  0.00    -0.127 Cl
ENDBRANCH  15  18
BRANCH  15  20
HETATM   20  C10 UNL     1      -5.358   4.337  14.104  1.00  0.00     0.029 C 
HETATM   21  C11 UNL     1      -4.754   5.554  14.683  1.00  0.00     0.008 C 
HETATM   22  C12 UNL     1      -5.841   6.156  15.521  1.00  0.00     0.001 C 
HETATM   23  C13 UNL     1      -6.639   4.991  16.009  1.00  0.00     0.001 C 
HETATM   24  C14 UNL     1      -6.534   3.928  14.940  1.00  0.00     0.008 C 
ENDBRANCH  15  20
ENDBRANCH   1  15
TORSDOF 6
ENDMDL
MODEL 4
REMARK VINA RESULT: -6.568145862      1.691      2.593
REMARK  6 active torsions:
REMARK  status: ('A' for Active; 'I' for Inactive)
REMARK       I    between atoms: N1_2  and  C2_4 
REMARK    1  A    between atoms: C2_4  and  C3_6 
REMARK    2  A    between atoms: N2_10  and  C7_11 
REMARK    3  A    between atoms: C7_11  and  C8_15 
REMARK    4  A    between atoms: C8_15  and  O2_16 
REMARK    5  A    between atoms: C8_15  and  C9_18 
REMARK    6  A    between atoms: C8_15  and  C10_20 
ROOT
HETATM    1  C7  UNL     1      -4.259   3.207  12.452  1.00  0.00     0.141 C 
HETATM    2  N3  UNL     1      -4.321   4.276  11.741  1.00  0.00    -0.209 N 
ATOM      3  H3  UNL     1      -4.563   5.117  12.264  1.00  0.00     0.201 HD
HETATM    4  F1  UNL     1      -4.127   4.470  10.464  1.00  0.00    -0.100 F 
ENDROOT
BRANCH   1   5
HETATM    5  N2  UNL     1      -3.935   1.960  11.857  1.00  0.00    -0.353 N 
HETATM    6  C3  UNL     1      -2.650   1.353  11.670  1.00  0.00     0.177 C 
HETATM    7  C4  UNL     1      -2.880  -0.051  11.192  1.00  0.00     0.037 C 
HETATM    8  C5  UNL     1      -4.255  -0.351  11.710  1.00  0.00     0.022 C 
HETATM    9  C6  UNL     1      -4.917   0.993  11.318  1.00  0.00     0.125 C 
BRANCH   6  10
HETATM   10  C2  UNL     1      -1.729   2.083  10.765  1.00  0.00     0.240 C 
HETATM   11  N1  UNL     1      -0.847   3.019  11.356  1.00  0.00    -0.364 N 
HETATM   12  C1  UNL     1       0.091   3.783  10.564  1.00  0.00     0.149 C 
ATOM     13  H1  UNL     1      -0.873   3.159  12.366  1.00  0.00     0.161 HD
HETATM   14  O1  UNL     1      -1.727   1.887   9.546  1.00  0.00    -0.271 OA
ENDBRANCH   6  10
ENDBRANCH   1   5
BRANCH   1  15
HETATM   15  C8  UNL     1      -4.494   3.381  13.897  1.00  0.00     0.134 C 
BRANCH  15  16
HETATM   16  O2  UNL     1      -4.056   2.213  14.547  1.00  0.00    -0.380 OA
ATOM     17  H2  UNL     1      -3.765   2.457  15.418  1.00  0.00     0.211 HD
ENDBRANCH  15  16
BRANCH  15  18
HETATM   18  C9  UNL     1      -5.941   3.509  14.304  1.00  0.00     0.161 C 
HETATM   19 CL1  UNL     1      -6.291   3.008  15.949  1.00  0.00    -0.127 Cl
ENDBRANCH  15  18
BRANCH  15  20
HETATM   20  C10 UNL     1      -3.769   4.520  14.529  1.00  0.00     0.029 C 
HETATM   21  C11 UNL     1      -4.391   5.858  14.460  1.00  0.00     0.008 C 
HETATM   22  C12 UNL     1      -3.242   6.816  14.546  1.00  0.00     0.001 C 
HETATM   23  C13 UNL     1      -2.100   6.104  13.897  1.00  0.00     0.001 C 
HETATM   24  C14 UNL     1      -2.325   4.630  14.141  1.00  0.00     0.008 C 
ENDBRANCH  15  20
ENDBRANCH   1  15
TORSDOF 6
ENDMDL
MODEL 5
REMARK VINA RESULT: -6.505165694      2.355      3.193
REMARK  6 active torsions:
REMARK  status: ('A' for Active; 'I' for Inactive)
REMARK       I    between atoms: N1_2  and  C2_4 
REMARK    1  A    between atoms: C2_4  and  C3_6 
REMARK    2  A    between atoms: N2_10  and  C7_11 
REMARK    3  A    between atoms: C7_11  and  C8_15 
REMARK    4  A    between atoms: C8_15  and  O2_16 
REMARK    5  A    between atoms: C8_15  and  C9_18 
REMARK    6  A    between atoms: C8_15  and  C10_20 
ROOT
HETATM    1  C7  UNL     1      -4.104   3.551  14.250  1.00  0.00     0.141 C 
HETATM    2  N3  UNL     1      -3.163   3.995  15.005  1.00  0.00    -0.209 N 
ATOM      3  H3  UNL     1      -3.473   4.311  15.924  1.00  0.00     0.201 HD
HETATM    4  F1  UNL     1      -1.878   4.112  14.797  1.00  0.00    -0.100 F 
ENDROOT
BRANCH   1   5
HETATM    5  N2  UNL     1      -3.820   3.079  12.942  1.00  0.00    -0.353 N 
HETATM    6  C3  UNL     1      -3.193   3.764  11.849  1.00  0.00     0.177 C 
HETATM    7  C4  UNL     1      -2.940   2.752  10.770  1.00  0.00     0.037 C 
HETATM    8  C5  UNL     1      -2.882   1.464  11.536  1.00  0.00     0.022 C 
HETATM    9  C6  UNL     1      -4.109   1.715  12.447  1.00  0.00     0.125 C 
BRANCH   6  10
HETATM   10  C2  UNL     1      -3.935   4.934  11.323  1.00  0.00     0.240 C 
HETATM   11  N1  UNL     1      -3.438   6.218  11.651  1.00  0.00    -0.364 N 
HETATM   12  C1  UNL     1      -4.087   7.425  11.188  1.00  0.00     0.149 C 
ATOM     13  H1  UNL     1      -2.600   6.295  12.228  1.00  0.00     0.161 HD
HETATM   14  O1  UNL     1      -4.947   4.801  10.627  1.00  0.00    -0.271 OA
ENDBRANCH   6  10
ENDBRANCH   1   5
BRANCH   1  15
HETATM   15  C8  UNL     1      -5.450   3.522  14.850  1.00  0.00     0.134 C 
BRANCH  15  16
HETATM   16  O2  UNL     1      -6.341   3.019  13.884  1.00  0.00    -0.380 OA
ATOM     17  H2  UNL     1      -7.102   3.587  13.867  1.00  0.00     0.211 HD
ENDBRANCH  15  16
BRANCH  15  18
HETATM   18  C9  UNL     1      -6.024   4.871  15.212  1.00  0.00     0.161 C 
HETATM   19 CL1  UNL     1      -6.165   5.995  13.872  1.00  0.00    -0.127 Cl
ENDBRANCH  15  18
BRANCH  15  20
HETATM   20  C10 UNL     1      -5.594   2.659  16.056  1.00  0.00     0.029 C 
HETATM   21  C11 UNL     1      -5.172   1.247  15.949  1.00  0.00     0.008 C 
HETATM   22  C12 UNL     1      -5.993   0.526  16.975  1.00  0.00     0.001 C 
HETATM   23  C13 UNL     1      -7.280   1.282  17.037  1.00  0.00     0.001 C 
HETATM   24  C14 UNL     1      -6.944   2.718  16.706  1.00  0.00     0.008 C 
ENDBRANCH  15  20
ENDBRANCH   1  15
TORSDOF 6
ENDMDL
