MODEL 1
REMARK VINA RESULT: -6.052963958      0.000      0.000
REMARK  6 active torsions:
REMARK  status: ('A' for Active; 'I' for Inactive)
REMARK    1  A    between atoms: O1_1  and  C1_3 
REMARK    2  A    between atoms: C1_3  and  C2_4 
REMARK    3  A    between atoms: C2_4  and  C3_5 
REMARK    4  A    between atoms: C3_5  and  C4_6 
REMARK    5  A    between atoms: C4_6  and  N1_7 
REMARK    6  A    between atoms: N1_7  and  C5_9 
ROOT
HETATM    1  C5  UNL     1      -4.257   1.490  13.502  1.00  0.00     0.678 A 
HETATM    2  N2  UNL     1      -4.868   2.663  13.771  1.00  0.00    -0.184 N 
ATOM      3  H2  UNL     1      -4.839   3.394  13.060  1.00  0.00     0.185 HD
HETATM    4  C6  UNL     1      -5.509   2.922  14.915  1.00  0.00     0.114 A 
HETATM    5 BR1  UNL     1      -6.370   4.574  15.298  1.00  0.00    -0.029 Br
HETATM    6  C7  UNL     1      -5.541   1.926  15.866  1.00  0.00     0.061 A 
HETATM    7 BR2  UNL     1      -6.415   2.154  17.534  1.00  0.00    -0.047 Br
HETATM    8  C8  UNL     1      -4.923   0.693  15.632  1.00  0.00     0.128 A 
HETATM    9  N3  UNL     1      -4.308   0.538  14.451  1.00  0.00    -0.201 N 
ATOM     10  H3  UNL     1      -3.850  -0.353  14.261  1.00  0.00     0.183 HD
ENDROOT
BRANCH   1  11
HETATM   11  N1  UNL     1      -3.644   1.291  12.366  1.00  0.00    -0.226 N 
ATOM     12  H1  UNL     1      -2.676   1.584  12.232  1.00  0.00     0.177 HD
BRANCH  11  13
HETATM   13  C4  UNL     1      -4.382   0.642  11.306  1.00  0.00     0.138 C 
BRANCH  13  14
HETATM   14  C3  UNL     1      -3.618  -0.496  10.716  1.00  0.00     0.022 C 
BRANCH  14  15
HETATM   15  C2  UNL     1      -3.915  -1.793  11.463  1.00  0.00     0.028 C 
BRANCH  15  16
HETATM   16  C1  UNL     1      -2.726  -2.731  11.397  1.00  0.00     0.164 C 
BRANCH  16  17
HETATM   17  O1  UNL     1      -3.181  -4.039  11.382  1.00  0.00    -0.401 OA
ATOM     18  H1  UNL     1      -3.005  -4.420  10.530  1.00  0.00     0.209 HD
ENDBRANCH  16  17
ENDBRANCH  15  16
ENDBRANCH  14  15
ENDBRANCH  13  14
ENDBRANCH  11  13
ENDBRANCH   1  11
TORSDOF 6
ENDMDL
MODEL 2
REMARK VINA RESULT: -5.934700239      3.609      5.553
REMARK  6 active torsions:
REMARK  status: ('A' for Active; 'I' for Inactive)
REMARK    1  A    between atoms: O1_1  and  C1_3 
REMARK    2  A    between atoms: C1_3  and  C2_4 
REMARK    3  A    between atoms: C2_4  and  C3_5 
REMARK    4  A    between atoms: C3_5  and  C4_6 
REMARK    5  A    between atoms: C4_6  and  N1_7 
REMARK    6  A    between atoms: N1_7  and  C5_9 
ROOT
HETATM    1  C5  UNL     1      -4.317   2.717  14.298  1.00  0.00     0.678 A 
HETATM    2  N2  UNL     1      -4.507   1.482  13.788  1.00  0.00    -0.184 N 
ATOM      3  H2  UNL     1      -5.107   0.837  14.303  1.00  0.00     0.185 HD
HETATM    4  C6  UNL     1      -3.955   1.055  12.648  1.00  0.00     0.114 A 
HETATM    5 BR1  UNL     1      -4.220  -0.685  11.928  1.00  0.00    -0.029 Br
HETATM    6  C7  UNL     1      -3.148   1.936  11.963  1.00  0.00     0.061 A 
HETATM    7 BR2  UNL     1      -2.300   1.467  10.333  1.00  0.00    -0.047 Br
HETATM    8  C8  UNL     1      -2.922   3.228  12.452  1.00  0.00     0.128 A 
HETATM    9  N3  UNL     1      -3.524   3.553  13.604  1.00  0.00    -0.201 N 
ATOM     10  H3  UNL     1      -3.372   4.490  13.978  1.00  0.00     0.183 HD
ENDROOT
BRANCH   1  11
HETATM   11  N1  UNL     1      -4.882   3.082  15.417  1.00  0.00    -0.226 N 
ATOM     12  H1  UNL     1      -4.323   3.303  16.241  1.00  0.00     0.177 HD
BRANCH  11  13
HETATM   13  C4  UNL     1      -6.326   3.161  15.451  1.00  0.00     0.138 C 
BRANCH  13  14
HETATM   14  C3  UNL     1      -6.867   2.818  16.798  1.00  0.00     0.022 C 
BRANCH  14  15
HETATM   15  C2  UNL     1      -7.300   1.356  16.852  1.00  0.00     0.028 C 
BRANCH  15  16
HETATM   16  C1  UNL     1      -6.158   0.479  17.323  1.00  0.00     0.164 C 
BRANCH  16  17
HETATM   17  O1  UNL     1      -5.518  -0.064  16.220  1.00  0.00    -0.401 OA
ATOM     18  H1  UNL     1      -4.600   0.177  16.243  1.00  0.00     0.209 HD
ENDBRANCH  16  17
ENDBRANCH  15  16
ENDBRANCH  14  15
ENDBRANCH  13  14
ENDBRANCH  11  13
ENDBRANCH   1  11
TORSDOF 6
ENDMDL
MODEL 3
REMARK VINA RESULT: -5.930162488      3.580      5.346
REMARK  6 active torsions:
REMARK  status: ('A' for Active; 'I' for Inactive)
REMARK    1  A    between atoms: O1_1  and  C1_3 
REMARK    2  A    between atoms: C1_3  and  C2_4 
REMARK    3  A    between atoms: C2_4  and  C3_5 
REMARK    4  A    between atoms: C3_5  and  C4_6 
REMARK    5  A    between atoms: C4_6  and  N1_7 
REMARK    6  A    between atoms: N1_7  and  C5_9 
ROOT
HETATM    1  C5  UNL     1      -4.513   2.151  14.377  1.00  0.00     0.678 A 
HETATM    2  N2  UNL     1      -4.052   2.884  13.342  1.00  0.00    -0.184 N 
ATOM      3  H2  UNL     1      -3.996   3.896  13.457  1.00  0.00     0.185 HD
HETATM    4  C6  UNL     1      -3.663   2.361  12.175  1.00  0.00     0.114 A 
HETATM    5 BR1  UNL     1      -3.013   3.391  10.715  1.00  0.00    -0.029 Br
HETATM    6  C7  UNL     1      -3.742   0.993  12.033  1.00  0.00     0.061 A 
HETATM    7 BR2  UNL     1      -3.224   0.114  10.434  1.00  0.00    -0.047 Br
HETATM    8  C8  UNL     1      -4.213   0.191  13.079  1.00  0.00     0.128 A 
HETATM    9  N3  UNL     1      -4.577   0.819  14.206  1.00  0.00    -0.201 N 
ATOM     10  H3  UNL     1      -4.924   0.252  14.980  1.00  0.00     0.183 HD
ENDROOT
BRANCH   1  11
HETATM   11  N1  UNL     1      -4.880   2.716  15.496  1.00  0.00    -0.226 N 
ATOM     12  H1  UNL     1      -4.232   2.804  16.278  1.00  0.00     0.177 HD
BRANCH  11  13
HETATM   13  C4  UNL     1      -6.235   3.211  15.589  1.00  0.00     0.138 C 
BRANCH  13  14
HETATM   14  C3  UNL     1      -6.863   2.860  16.896  1.00  0.00     0.022 C 
BRANCH  14  15
HETATM   15  C2  UNL     1      -7.291   1.396  16.916  1.00  0.00     0.028 C 
BRANCH  15  16
HETATM   16  C1  UNL     1      -6.233   0.539  17.583  1.00  0.00     0.164 C 
BRANCH  16  17
HETATM   17  O1  UNL     1      -5.684  -0.317  16.642  1.00  0.00    -0.401 OA
ATOM     18  H1  UNL     1      -5.217  -1.013  17.089  1.00  0.00     0.209 HD
ENDBRANCH  16  17
ENDBRANCH  15  16
ENDBRANCH  14  15
ENDBRANCH  13  14
ENDBRANCH  11  13
ENDBRANCH   1  11
TORSDOF 6
ENDMDL
MODEL 4
REMARK VINA RESULT: -5.690149935      0.769      1.843
REMARK  6 active torsions:
REMARK  status: ('A' for Active; 'I' for Inactive)
REMARK    1  A    between atoms: O1_1  and  C1_3 
REMARK    2  A    between atoms: C1_3  and  C2_4 
REMARK    3  A    between atoms: C2_4  and  C3_5 
REMARK    4  A    between atoms: C3_5  and  C4_6 
REMARK    5  A    between atoms: C4_6  and  N1_7 
REMARK    6  A    between atoms: N1_7  and  C5_9 
ROOT
HETATM    1  C5  UNL     1      -4.423   1.548  13.655  1.00  0.00     0.678 A 
HETATM    2  N2  UNL     1      -4.720   0.973  14.840  1.00  0.00    -0.184 N 
ATOM      3  H2  UNL     1      -4.362   0.035  15.021  1.00  0.00     0.185 HD
HETATM    4  C6  UNL     1      -5.455   1.561  15.789  1.00  0.00     0.114 A 
HETATM    5 BR1  UNL     1      -5.876   0.754  17.458  1.00  0.00    -0.029 Br
HETATM    6  C7  UNL     1      -5.931   2.828  15.531  1.00  0.00     0.061 A 
HETATM    7 BR2  UNL     1      -6.986   3.783  16.785  1.00  0.00    -0.047 Br
HETATM    8  C8  UNL     1      -5.649   3.466  14.317  1.00  0.00     0.128 A 
HETATM    9  N3  UNL     1      -4.903   2.785  13.435  1.00  0.00    -0.201 N 
ATOM     10  H3  UNL     1      -4.686   3.232  12.544  1.00  0.00     0.183 HD
ENDROOT
BRANCH   1  11
HETATM   11  N1  UNL     1      -3.700   0.926  12.764  1.00  0.00    -0.226 N 
ATOM     12  H1  UNL     1      -2.749   0.624  12.975  1.00  0.00     0.177 HD
BRANCH  11  13
HETATM   13  C4  UNL     1      -4.291   0.680  11.467  1.00  0.00     0.138 C 
BRANCH  13  14
HETATM   14  C3  UNL     1      -3.617  -0.446  10.757  1.00  0.00     0.022 C 
BRANCH  14  15
HETATM   15  C2  UNL     1      -3.954  -1.781  11.415  1.00  0.00     0.028 C 
BRANCH  15  16
HETATM   16  C1  UNL     1      -2.746  -2.697  11.411  1.00  0.00     0.164 C 
BRANCH  16  17
HETATM   17  O1  UNL     1      -3.176  -4.013  11.374  1.00  0.00    -0.401 OA
ATOM     18  H1  UNL     1      -3.341  -4.262  10.472  1.00  0.00     0.209 HD
ENDBRANCH  16  17
ENDBRANCH  15  16
ENDBRANCH  14  15
ENDBRANCH  13  14
ENDBRANCH  11  13
ENDBRANCH   1  11
TORSDOF 6
ENDMDL
MODEL 5
REMARK VINA RESULT: -5.497323598      1.793      2.630
REMARK  6 active torsions:
REMARK  status: ('A' for Active; 'I' for Inactive)
REMARK    1  A    between atoms: O1_1  and  C1_3 
REMARK    2  A    between atoms: C1_3  and  C2_4 
REMARK    3  A    between atoms: C2_4  and  C3_5 
REMARK    4  A    between atoms: C3_5  and  C4_6 
REMARK    5  A    between atoms: C4_6  and  N1_7 
REMARK    6  A    between atoms: N1_7  and  C5_9 
ROOT
HETATM    1  C5  UNL     1      -4.279   2.138  12.858  1.00  0.00     0.678 A 
HETATM    2  N2  UNL     1      -5.154   2.884  13.565  1.00  0.00    -0.184 N 
ATOM      3  H2  UNL     1      -6.036   2.455  13.843  1.00  0.00     0.185 HD
HETATM    4  C6  UNL     1      -4.931   4.153  13.922  1.00  0.00     0.114 A 
HETATM    5 BR1  UNL     1      -6.161   5.206  14.917  1.00  0.00    -0.029 Br
HETATM    6  C7  UNL     1      -3.734   4.720  13.541  1.00  0.00     0.061 A 
HETATM    7 BR2  UNL     1      -3.283   6.509  13.978  1.00  0.00    -0.047 Br
HETATM    8  C8  UNL     1      -2.795   3.986  12.807  1.00  0.00     0.128 A 
HETATM    9  N3  UNL     1      -3.121   2.721  12.502  1.00  0.00    -0.201 N 
ATOM     10  H3  UNL     1      -2.450   2.169  11.967  1.00  0.00     0.183 HD
ENDROOT
BRANCH   1  11
HETATM   11  N1  UNL     1      -4.549   0.901  12.536  1.00  0.00    -0.226 N 
ATOM     12  H1  UNL     1      -4.657   0.183  13.252  1.00  0.00     0.177 HD
BRANCH  11  13
HETATM   13  C4  UNL     1      -4.692   0.585  11.133  1.00  0.00     0.138 C 
BRANCH  13  14
HETATM   14  C3  UNL     1      -3.743  -0.485  10.708  1.00  0.00     0.022 C 
BRANCH  14  15
HETATM   15  C2  UNL     1      -3.941  -1.747  11.542  1.00  0.00     0.028 C 
BRANCH  15  16
HETATM   16  C1  UNL     1      -2.755  -2.679  11.390  1.00  0.00     0.164 C 
BRANCH  16  17
HETATM   17  O1  UNL     1      -3.207  -3.989  11.378  1.00  0.00    -0.401 OA
ATOM     18  H1  UNL     1      -2.523  -4.557  11.712  1.00  0.00     0.209 HD
ENDBRANCH  16  17
ENDBRANCH  15  16
ENDBRANCH  14  15
ENDBRANCH  13  14
ENDBRANCH  11  13
ENDBRANCH   1  11
TORSDOF 6
ENDMDL
