MODEL 1
REMARK VINA RESULT: -6.798401503      0.000      0.000
REMARK  5 active torsions:
REMARK  status: ('A' for Active; 'I' for Inactive)
REMARK    1  A    between atoms: C2_2  and  C3_3 
REMARK       I    between atoms: C3_3  and  N1_5 
REMARK    2  A    between atoms: N1_5  and  C4_7 
REMARK    3  A    between atoms: C4_7  and  C8_13 
REMARK    4  A    between atoms: N2_8  and  C5_10 
REMARK    5  A    between atoms: C8_13  and  O2_14 
ROOT
HETATM    1  C4  UNL     1      -4.377   2.821  14.313  1.00  0.00     0.118 C 
HETATM    2  N2  UNL     1      -4.646   2.202  13.256  1.00  0.00    -0.373 N 
ATOM      3  H2  UNL     1      -5.315   1.472  13.503  1.00  0.00     0.161 HD
ENDROOT
BRANCH   1   4
HETATM    4  N1  UNL     1      -5.060   2.326  15.468  1.00  0.00    -0.314 N 
HETATM    5  C3  UNL     1      -4.788   1.339  16.380  1.00  0.00     0.222 C 
HETATM    6  O1  UNL     1      -3.801   0.610  16.372  1.00  0.00    -0.273 OA
ATOM      7  H1  UNL     1      -5.938   2.812  15.652  1.00  0.00     0.170 HD
BRANCH   5   8
HETATM    8  C2  UNL     1      -5.761   1.090  17.515  1.00  0.00     0.098 C 
HETATM    9  C1  UNL     1      -7.180   1.356  17.081  1.00  0.00     0.014 C 
ENDBRANCH   5   8
ENDBRANCH   1   4
BRANCH   1  10
HETATM   10  C8  UNL     1      -3.480   3.947  14.484  1.00  0.00     0.152 A 
HETATM   11  C9  UNL     1      -4.194   5.259  14.836  1.00  0.00     0.128 A 
HETATM   12 BR1  UNL     1      -6.075   5.442  14.426  1.00  0.00    -0.085 Br
HETATM   13  C10 UNL     1      -3.241   5.103  13.654  1.00  0.00     0.089 A 
HETATM   14  C11 UNL     1      -1.908   5.839  13.913  1.00  0.00     0.037 C 
HETATM   15 CL1  UNL     1      -3.969   5.582  12.155  1.00  0.00    -0.115 Cl
BRANCH  10  16
HETATM   16  O2  UNL     1      -2.430   3.634  15.392  1.00  0.00    -0.379 OA
ATOM     17  H2  UNL     1      -1.726   4.270  15.333  1.00  0.00     0.211 HD
ENDBRANCH  10  16
ENDBRANCH   1  10
BRANCH   2  18
HETATM   18  C5  UNL     1      -4.420   2.094  11.920  1.00  0.00     0.074 C 
HETATM   19  C6  UNL     1      -5.025   0.811  11.307  1.00  0.00     0.031 C 
HETATM   20  C7  UNL     1      -2.916   1.902  11.556  1.00  0.00     0.031 C 
ENDBRANCH   2  18
TORSDOF 5
ENDMDL
MODEL 2
REMARK VINA RESULT: -6.576374502      1.144      3.737
REMARK  5 active torsions:
REMARK  status: ('A' for Active; 'I' for Inactive)
REMARK    1  A    between atoms: C2_2  and  C3_3 
REMARK       I    between atoms: C3_3  and  N1_5 
REMARK    2  A    between atoms: N1_5  and  C4_7 
REMARK    3  A    between atoms: C4_7  and  C8_13 
REMARK    4  A    between atoms: N2_8  and  C5_10 
REMARK    5  A    between atoms: C8_13  and  O2_14 
ROOT
HETATM    1  C4  UNL     1      -4.473   2.710  14.401  1.00  0.00     0.118 C 
HETATM    2  N2  UNL     1      -5.179   2.167  15.283  1.00  0.00    -0.373 N 
ATOM      3  H2  UNL     1      -5.714   1.431  14.821  1.00  0.00     0.161 HD
ENDROOT
BRANCH   1   4
HETATM    4  N1  UNL     1      -4.639   2.151  13.095  1.00  0.00    -0.314 N 
HETATM    5  C3  UNL     1      -4.672   0.869  12.611  1.00  0.00     0.222 C 
HETATM    6  O1  UNL     1      -4.545  -0.152  13.279  1.00  0.00    -0.273 OA
ATOM      7  H1  UNL     1      -4.759   2.857  12.369  1.00  0.00     0.170 HD
BRANCH   5   8
HETATM    8  C2  UNL     1      -4.884   0.643  11.127  1.00  0.00     0.098 C 
HETATM    9  C1  UNL     1      -3.704  -0.067  10.512  1.00  0.00     0.014 C 
ENDBRANCH   5   8
ENDBRANCH   1   4
BRANCH   1  10
HETATM   10  C8  UNL     1      -3.535   3.806  14.558  1.00  0.00     0.152 A 
HETATM   11  C9  UNL     1      -4.206   5.160  14.818  1.00  0.00     0.128 A 
HETATM   12 BR1  UNL     1      -6.060   5.401  14.321  1.00  0.00    -0.085 Br
HETATM   13  C10 UNL     1      -3.214   4.909  13.686  1.00  0.00     0.089 A 
HETATM   14  C11 UNL     1      -1.862   5.601  13.968  1.00  0.00     0.037 C 
HETATM   15 CL1  UNL     1      -3.859   5.346  12.137  1.00  0.00    -0.115 Cl
BRANCH  10  16
HETATM   16  O2  UNL     1      -2.538   3.493  15.522  1.00  0.00    -0.379 OA
ATOM     17  H2  UNL     1      -1.739   3.981  15.359  1.00  0.00     0.211 HD
ENDBRANCH  10  16
ENDBRANCH   1  10
BRANCH   2  18
HETATM   18  C5  UNL     1      -5.532   2.147  16.596  1.00  0.00     0.074 C 
HETATM   19  C6  UNL     1      -5.810   0.721  17.124  1.00  0.00     0.031 C 
HETATM   20  C7  UNL     1      -6.904   2.830  16.883  1.00  0.00     0.031 C 
ENDBRANCH   2  18
TORSDOF 5
ENDMDL
MODEL 3
REMARK VINA RESULT: -6.448548446      2.181      2.392
REMARK  5 active torsions:
REMARK  status: ('A' for Active; 'I' for Inactive)
REMARK    1  A    between atoms: C2_2  and  C3_3 
REMARK       I    between atoms: C3_3  and  N1_5 
REMARK    2  A    between atoms: N1_5  and  C4_7 
REMARK    3  A    between atoms: C4_7  and  C8_13 
REMARK    4  A    between atoms: N2_8  and  C5_10 
REMARK    5  A    between atoms: C8_13  and  O2_14 
ROOT
HETATM    1  C4  UNL     1      -4.048   2.736  13.219  1.00  0.00     0.118 C 
HETATM    2  N2  UNL     1      -3.525   1.763  12.626  1.00  0.00    -0.373 N 
ATOM      3  H2  UNL     1      -3.482   0.996  13.296  1.00  0.00     0.161 HD
ENDROOT
BRANCH   1   4
HETATM    4  N1  UNL     1      -4.397   2.469  14.579  1.00  0.00    -0.314 N 
HETATM    5  C3  UNL     1      -4.721   1.328  15.269  1.00  0.00     0.222 C 
HETATM    6  O1  UNL     1      -4.785   0.199  14.793  1.00  0.00    -0.273 OA
ATOM      7  H1  UNL     1      -4.407   3.306  15.162  1.00  0.00     0.170 HD
BRANCH   5   8
HETATM    8  C2  UNL     1      -5.033   1.420  16.749  1.00  0.00     0.098 C 
HETATM    9  C1  UNL     1      -6.464   1.038  17.027  1.00  0.00     0.014 C 
ENDBRANCH   5   8
ENDBRANCH   1   4
BRANCH   1  10
HETATM   10  C8  UNL     1      -4.330   4.057  12.691  1.00  0.00     0.152 A 
HETATM   11  C9  UNL     1      -3.128   5.009  12.733  1.00  0.00     0.128 A 
HETATM   12 BR1  UNL     1      -1.675   4.632  13.952  1.00  0.00    -0.085 Br
HETATM   13  C10 UNL     1      -4.485   5.329  13.353  1.00  0.00     0.089 A 
HETATM   14  C11 UNL     1      -5.228   6.412  12.540  1.00  0.00     0.037 C 
HETATM   15 CL1  UNL     1      -4.359   5.747  15.032  1.00  0.00    -0.115 Cl
BRANCH  10  16
HETATM   16  O2  UNL     1      -4.922   3.978  11.400  1.00  0.00    -0.379 OA
ATOM     17  H2  UNL     1      -4.899   4.820  10.961  1.00  0.00     0.211 HD
ENDBRANCH  10  16
ENDBRANCH   1  10
BRANCH   2  18
HETATM   18  C5  UNL     1      -2.989   1.302  11.464  1.00  0.00     0.074 C 
HETATM   19  C6  UNL     1      -2.896  -0.240  11.413  1.00  0.00     0.031 C 
HETATM   20  C7  UNL     1      -1.490   1.684  11.274  1.00  0.00     0.031 C 
ENDBRANCH   2  18
TORSDOF 5
ENDMDL
MODEL 4
REMARK VINA RESULT: -6.447136179      2.654      3.241
REMARK  5 active torsions:
REMARK  status: ('A' for Active; 'I' for Inactive)
REMARK    1  A    between atoms: C2_2  and  C3_3 
REMARK       I    between atoms: C3_3  and  N1_5 
REMARK    2  A    between atoms: N1_5  and  C4_7 
REMARK    3  A    between atoms: C4_7  and  C8_13 
REMARK    4  A    between atoms: N2_8  and  C5_10 
REMARK    5  A    between atoms: C8_13  and  O2_14 
ROOT
HETATM    1  C4  UNL     1      -4.314   1.488  12.555  1.00  0.00     0.118 C 
HETATM    2  N2  UNL     1      -4.258   0.265  12.283  1.00  0.00    -0.373 N 
ATOM      3  H2  UNL     1      -4.226  -0.235  13.171  1.00  0.00     0.161 HD
ENDROOT
BRANCH   1   4
HETATM    4  N1  UNL     1      -4.311   1.773  13.956  1.00  0.00    -0.314 N 
HETATM    5  C3  UNL     1      -4.557   1.022  15.077  1.00  0.00     0.222 C 
HETATM    6  O1  UNL     1      -4.867  -0.165  15.088  1.00  0.00    -0.273 OA
ATOM      7  H1  UNL     1      -4.075   2.742  14.167  1.00  0.00     0.170 HD
BRANCH   5   8
HETATM    8  C2  UNL     1      -4.448   1.671  16.442  1.00  0.00     0.098 C 
HETATM    9  C1  UNL     1      -5.677   1.398  17.272  1.00  0.00     0.014 C 
ENDBRANCH   5   8
ENDBRANCH   1   4
BRANCH   1  10
HETATM   10  C8  UNL     1      -4.381   2.605  11.633  1.00  0.00     0.152 A 
HETATM   11  C9  UNL     1      -3.050   2.911  10.934  1.00  0.00     0.128 A 
HETATM   12 BR1  UNL     1      -1.405   2.278  11.730  1.00  0.00    -0.085 Br
HETATM   13  C10 UNL     1      -3.849   3.943  11.725  1.00  0.00     0.089 A 
HETATM   14  C11 UNL     1      -4.502   4.980  10.786  1.00  0.00     0.037 C 
HETATM   15 CL1  UNL     1      -2.902   4.695  12.968  1.00  0.00    -0.115 Cl
BRANCH  10  16
HETATM   16  O2  UNL     1      -5.459   2.451  10.717  1.00  0.00    -0.379 OA
ATOM     17  H2  UNL     1      -6.189   3.012  10.951  1.00  0.00     0.211 HD
ENDBRANCH  10  16
ENDBRANCH   1  10
BRANCH   2  18
HETATM   18  C5  UNL     1      -4.223  -0.674  11.300  1.00  0.00     0.074 C 
HETATM   19  C6  UNL     1      -3.462  -1.954  11.716  1.00  0.00     0.031 C 
HETATM   20  C7  UNL     1      -3.391  -0.242  10.054  1.00  0.00     0.031 C 
ENDBRANCH   2  18
TORSDOF 5
ENDMDL
MODEL 5
REMARK VINA RESULT: -6.293667040      2.512      4.217
REMARK  5 active torsions:
REMARK  status: ('A' for Active; 'I' for Inactive)
REMARK    1  A    between atoms: C2_2  and  C3_3 
REMARK       I    between atoms: C3_3  and  N1_5 
REMARK    2  A    between atoms: N1_5  and  C4_7 
REMARK    3  A    between atoms: C4_7  and  C8_13 
REMARK    4  A    between atoms: N2_8  and  C5_10 
REMARK    5  A    between atoms: C8_13  and  O2_14 
ROOT
HETATM    1  C4  UNL     1      -4.073   2.913  13.283  1.00  0.00     0.118 C 
HETATM    2  N2  UNL     1      -4.335   2.549  14.455  1.00  0.00    -0.373 N 
ATOM      3  H2  UNL     1      -4.039   1.576  14.535  1.00  0.00     0.161 HD
ENDROOT
BRANCH   1   4
HETATM    4  N1  UNL     1      -3.478   1.894  12.477  1.00  0.00    -0.314 N 
HETATM    5  C3  UNL     1      -3.731   0.558  12.297  1.00  0.00     0.222 C 
HETATM    6  O1  UNL     1      -4.609  -0.086  12.862  1.00  0.00    -0.273 OA
ATOM      7  H1  UNL     1      -2.697   2.233  11.915  1.00  0.00     0.170 HD
BRANCH   5   8
HETATM    8  C2  UNL     1      -2.879  -0.233  11.325  1.00  0.00     0.098 C 
HETATM    9  C1  UNL     1      -3.151  -1.711  11.444  1.00  0.00     0.014 C 
ENDBRANCH   5   8
ENDBRANCH   1   4
BRANCH   1  10
HETATM   10  C8  UNL     1      -4.301   4.212  12.680  1.00  0.00     0.152 A 
HETATM   11  C9  UNL     1      -3.060   5.113  12.666  1.00  0.00     0.128 A 
HETATM   12 BR1  UNL     1      -1.619   4.746  13.904  1.00  0.00    -0.085 Br
HETATM   13  C10 UNL     1      -4.401   5.525  13.268  1.00  0.00     0.089 A 
HETATM   14  C11 UNL     1      -5.099   6.590  12.395  1.00  0.00     0.037 C 
HETATM   15 CL1  UNL     1      -4.251   6.034  14.920  1.00  0.00    -0.115 Cl
BRANCH  10  16
HETATM   16  O2  UNL     1      -4.900   4.083  11.396  1.00  0.00    -0.379 OA
ATOM     17  H2  UNL     1      -4.269   4.253  10.706  1.00  0.00     0.211 HD
ENDBRANCH  10  16
ENDBRANCH   1  10
BRANCH   2  18
HETATM   18  C5  UNL     1      -4.846   2.908  15.663  1.00  0.00     0.074 C 
HETATM   19  C6  UNL     1      -4.881   1.739  16.674  1.00  0.00     0.031 C 
HETATM   20  C7  UNL     1      -6.358   3.286  15.612  1.00  0.00     0.031 C 
ENDBRANCH   2  18
TORSDOF 5
ENDMDL
