MODEL 1
REMARK VINA RESULT: -7.162517515      0.000      0.000
REMARK  4 active torsions:
REMARK  status: ('A' for Active; 'I' for Inactive)
REMARK    1  A    between atoms: C2_2  and  N1_3 
REMARK    2  A    between atoms: C2_2  and  C10_17 
REMARK       I    between atoms: N1_3  and  C3_5 
REMARK    3  A    between atoms: C3_5  and  C4_7 
REMARK       I    between atoms: N2_11  and  C8_12 
REMARK    4  A    between atoms: C8_12  and  C9_14 
ROOT
HETATM    1  N1  UNL     1      -3.149   2.412  12.899  1.00  0.00    -0.355 N 
ATOM      2  H1  UNL     1      -2.372   2.474  13.556  1.00  0.00     0.162 HD
HETATM    3  C3  UNL     1      -4.353   3.105  13.191  1.00  0.00     0.241 C 
HETATM    4  O1  UNL     1      -5.363   3.091  12.450  1.00  0.00    -0.271 OA
ENDROOT
BRANCH   3   5
HETATM    5  C4  UNL     1      -4.431   3.896  14.444  1.00  0.00     0.179 C 
HETATM    6  C5  UNL     1      -4.829   5.317  14.148  1.00  0.00     0.037 C 
HETATM    7  C6  UNL     1      -5.843   5.635  15.199  1.00  0.00     0.022 C 
HETATM    8  C7  UNL     1      -6.535   4.291  15.409  1.00  0.00     0.127 C 
HETATM    9  N2  UNL     1      -5.430   3.372  15.352  1.00  0.00    -0.336 N 
HETATM   10  C8  UNL     1      -5.320   2.151  16.048  1.00  0.00     0.253 C 
HETATM   11  O2  UNL     1      -4.282   1.442  15.869  1.00  0.00    -0.270 OA
BRANCH  10  12
HETATM   12  C9  UNL     1      -6.377   1.674  16.979  1.00  0.00     0.270 C 
HETATM   13 CL1  UNL     1      -5.987   0.053  17.564  1.00  0.00    -0.098 Cl
HETATM   14 CL2  UNL     1      -6.384   2.835  18.353  1.00  0.00    -0.098 Cl
ENDBRANCH  10  12
ENDBRANCH   3   5
BRANCH   1  15
HETATM   15  C2  UNL     1      -2.987   1.612  11.689  1.00  0.00     0.086 C 
HETATM   16  C1  UNL     1      -1.600   1.704  11.130  1.00  0.00     0.032 C 
BRANCH  15  17
HETATM   17  C10 UNL     1      -3.325   0.200  12.037  1.00  0.00     0.035 C 
HETATM   18  C11 UNL     1      -4.649  -0.201  11.400  1.00  0.00     0.036 C 
HETATM   19  C12 UNL     1      -4.525  -1.718  11.446  1.00  0.00     0.232 C 
HETATM   20  N3  UNL     1      -3.126  -2.025  11.406  1.00  0.00    -0.075 N 
HETATM   21  C13 UNL     1      -2.384  -0.803  11.404  1.00  0.00     0.239 C 
ATOM     22  H32 UNL     1      -2.844  -2.651  12.161  1.00  0.00     0.277 HD
ATOM     23  H31 UNL     1      -2.883  -2.629  10.621  1.00  0.00     0.277 HD
ENDBRANCH  15  17
ENDBRANCH   1  15
TORSDOF 4
ENDMDL
MODEL 2
REMARK VINA RESULT: -7.027677301      2.678      5.771
REMARK  4 active torsions:
REMARK  status: ('A' for Active; 'I' for Inactive)
REMARK    1  A    between atoms: C2_2  and  N1_3 
REMARK    2  A    between atoms: C2_2  and  C10_17 
REMARK       I    between atoms: N1_3  and  C3_5 
REMARK    3  A    between atoms: C3_5  and  C4_7 
REMARK       I    between atoms: N2_11  and  C8_12 
REMARK    4  A    between atoms: C8_12  and  C9_14 
ROOT
HETATM    1  N1  UNL     1      -4.826   3.910  13.674  1.00  0.00    -0.355 N 
ATOM      2  H1  UNL     1      -5.545   3.882  12.951  1.00  0.00     0.162 HD
HETATM    3  C3  UNL     1      -3.473   3.693  13.305  1.00  0.00     0.241 C 
HETATM    4  O1  UNL     1      -2.519   3.706  14.117  1.00  0.00    -0.271 OA
ENDROOT
BRANCH   3   5
HETATM    5  C4  UNL     1      -3.158   3.434  11.879  1.00  0.00     0.179 C 
HETATM    6  C5  UNL     1      -1.705   3.714  11.599  1.00  0.00     0.037 C 
HETATM    7  C6  UNL     1      -1.273   2.564  10.748  1.00  0.00     0.022 C 
HETATM    8  C7  UNL     1      -2.115   1.414  11.292  1.00  0.00     0.127 C 
HETATM    9  N2  UNL     1      -3.385   2.052  11.516  1.00  0.00    -0.336 N 
HETATM   10  C8  UNL     1      -4.655   1.447  11.418  1.00  0.00     0.253 C 
HETATM   11  O2  UNL     1      -5.682   2.148  11.671  1.00  0.00    -0.270 OA
BRANCH  10  12
HETATM   12  C9  UNL     1      -4.823   0.021  11.027  1.00  0.00     0.270 C 
HETATM   13 CL1  UNL     1      -3.792  -0.356   9.643  1.00  0.00    -0.098 Cl
HETATM   14 CL2  UNL     1      -4.307  -0.945  12.455  1.00  0.00    -0.098 Cl
ENDBRANCH  10  12
ENDBRANCH   3   5
BRANCH   1  15
HETATM   15  C2  UNL     1      -5.223   4.171  15.054  1.00  0.00     0.086 C 
HETATM   16  C1  UNL     1      -6.149   5.345  15.165  1.00  0.00     0.032 C 
BRANCH  15  17
HETATM   17  C10 UNL     1      -5.874   2.933  15.575  1.00  0.00     0.035 C 
HETATM   18  C11 UNL     1      -4.852   2.055  16.285  1.00  0.00     0.036 C 
HETATM   19  C12 UNL     1      -5.777   1.187  17.127  1.00  0.00     0.232 C 
HETATM   20  N3  UNL     1      -6.957   1.957  17.380  1.00  0.00    -0.075 N 
HETATM   21  C13 UNL     1      -6.849   3.209  16.699  1.00  0.00     0.239 C 
ATOM     22  H32 UNL     1      -7.810   1.454  17.135  1.00  0.00     0.277 HD
ATOM     23  H31 UNL     1      -7.141   2.071  18.377  1.00  0.00     0.277 HD
ENDBRANCH  15  17
ENDBRANCH   1  15
TORSDOF 4
ENDMDL
MODEL 3
REMARK VINA RESULT: -6.761960307      3.547      6.575
REMARK  4 active torsions:
REMARK  status: ('A' for Active; 'I' for Inactive)
REMARK    1  A    between atoms: C2_2  and  N1_3 
REMARK    2  A    between atoms: C2_2  and  C10_17 
REMARK       I    between atoms: N1_3  and  C3_5 
REMARK    3  A    between atoms: C3_5  and  C4_7 
REMARK       I    between atoms: N2_11  and  C8_12 
REMARK    4  A    between atoms: C8_12  and  C9_14 
ROOT
HETATM    1  N1  UNL     1      -4.766   2.846  14.134  1.00  0.00    -0.355 N 
ATOM      2  H1  UNL     1      -3.988   2.716  14.781  1.00  0.00     0.162 HD
HETATM    3  C3  UNL     1      -4.802   2.079  12.940  1.00  0.00     0.241 C 
HETATM    4  O1  UNL     1      -5.712   2.165  12.084  1.00  0.00    -0.271 OA
ENDROOT
BRANCH   3   5
HETATM    5  C4  UNL     1      -3.702   1.117  12.681  1.00  0.00     0.179 C 
HETATM    6  C5  UNL     1      -4.257  -0.230  12.303  1.00  0.00     0.037 C 
HETATM    7  C6  UNL     1      -3.407  -0.662  11.152  1.00  0.00     0.022 C 
HETATM    8  C7  UNL     1      -3.090   0.662  10.460  1.00  0.00     0.127 C 
HETATM    9  N2  UNL     1      -2.864   1.538  11.578  1.00  0.00    -0.336 N 
HETATM   10  C8  UNL     1      -1.985   2.640  11.614  1.00  0.00     0.253 C 
HETATM   11  O2  UNL     1      -1.919   3.329  12.678  1.00  0.00    -0.270 OA
BRANCH  10  12
HETATM   12  C9  UNL     1      -1.139   3.014  10.450  1.00  0.00     0.270 C 
HETATM   13 CL1  UNL     1      -1.882   4.348   9.562  1.00  0.00    -0.098 Cl
HETATM   14 CL2  UNL     1       0.439   3.539  11.135  1.00  0.00    -0.098 Cl
ENDBRANCH  10  12
ENDBRANCH   3   5
BRANCH   1  15
HETATM   15  C2  UNL     1      -5.806   3.814  14.468  1.00  0.00     0.086 C 
HETATM   16  C1  UNL     1      -6.481   3.496  15.767  1.00  0.00     0.032 C 
BRANCH  15  17
HETATM   17  C10 UNL     1      -5.165   5.160  14.520  1.00  0.00     0.035 C 
HETATM   18  C11 UNL     1      -3.695   5.033  14.900  1.00  0.00     0.036 C 
HETATM   19  C12 UNL     1      -3.169   6.373  14.402  1.00  0.00     0.232 C 
HETATM   20  N3  UNL     1      -4.013   6.777  13.319  1.00  0.00    -0.075 N 
HETATM   21  C13 UNL     1      -5.056   5.814  13.159  1.00  0.00     0.239 C 
ATOM     22  H32 UNL     1      -4.373   7.725  13.439  1.00  0.00     0.277 HD
ATOM     23  H31 UNL     1      -3.491   6.932  12.456  1.00  0.00     0.277 HD
ENDBRANCH  15  17
ENDBRANCH   1  15
TORSDOF 4
ENDMDL
MODEL 4
REMARK VINA RESULT: -6.718024211      2.743      5.335
REMARK  4 active torsions:
REMARK  status: ('A' for Active; 'I' for Inactive)
REMARK    1  A    between atoms: C2_2  and  N1_3 
REMARK    2  A    between atoms: C2_2  and  C10_17 
REMARK       I    between atoms: N1_3  and  C3_5 
REMARK    3  A    between atoms: C3_5  and  C4_7 
REMARK       I    between atoms: N2_11  and  C8_12 
REMARK    4  A    between atoms: C8_12  and  C9_14 
ROOT
HETATM    1  N1  UNL     1      -4.427   3.112  13.763  1.00  0.00    -0.355 N 
ATOM      2  H1  UNL     1      -4.379   2.121  13.524  1.00  0.00     0.162 HD
HETATM    3  C3  UNL     1      -3.975   4.069  12.818  1.00  0.00     0.241 C 
HETATM    4  O1  UNL     1      -3.991   5.305  13.016  1.00  0.00    -0.271 OA
ENDROOT
BRANCH   3   5
HETATM    5  C4  UNL     1      -3.449   3.588  11.516  1.00  0.00     0.179 C 
HETATM    6  C5  UNL     1      -1.983   3.907  11.388  1.00  0.00     0.037 C 
HETATM    7  C6  UNL     1      -1.389   2.657  10.823  1.00  0.00     0.022 C 
HETATM    8  C7  UNL     1      -2.256   1.567  11.447  1.00  0.00     0.127 C 
HETATM    9  N2  UNL     1      -3.569   2.152  11.381  1.00  0.00    -0.336 N 
HETATM   10  C8  UNL     1      -4.787   1.460  11.223  1.00  0.00     0.253 C 
HETATM   11  O2  UNL     1      -5.866   2.128  11.207  1.00  0.00    -0.270 OA
BRANCH  10  12
HETATM   12  C9  UNL     1      -4.842  -0.019  11.077  1.00  0.00     0.270 C 
HETATM   13 CL1  UNL     1      -3.749  -0.544   9.793  1.00  0.00    -0.098 Cl
HETATM   14 CL2  UNL     1      -4.300  -0.692  12.655  1.00  0.00    -0.098 Cl
ENDBRANCH  10  12
ENDBRANCH   3   5
BRANCH   1  15
HETATM   15  C2  UNL     1      -4.959   3.498  15.066  1.00  0.00     0.086 C 
HETATM   16  C1  UNL     1      -6.412   3.859  15.002  1.00  0.00     0.032 C 
BRANCH  15  17
HETATM   17  C10 UNL     1      -4.740   2.352  15.997  1.00  0.00     0.035 C 
HETATM   18  C11 UNL     1      -5.981   2.114  16.847  1.00  0.00     0.036 C 
HETATM   19  C12 UNL     1      -5.733   0.680  17.296  1.00  0.00     0.232 C 
HETATM   20  N3  UNL     1      -4.935   0.057  16.283  1.00  0.00    -0.075 N 
HETATM   21  C13 UNL     1      -4.622   1.024  15.279  1.00  0.00     0.239 C 
ATOM     22  H32 UNL     1      -4.101  -0.390  16.666  1.00  0.00     0.277 HD
ATOM     23  H31 UNL     1      -5.378  -0.776  15.897  1.00  0.00     0.277 HD
ENDBRANCH  15  17
ENDBRANCH   1  15
TORSDOF 4
ENDMDL
MODEL 5
REMARK VINA RESULT: -6.660221181      1.098      1.157
REMARK  4 active torsions:
REMARK  status: ('A' for Active; 'I' for Inactive)
REMARK    1  A    between atoms: C2_2  and  N1_3 
REMARK    2  A    between atoms: C2_2  and  C10_17 
REMARK       I    between atoms: N1_3  and  C3_5 
REMARK    3  A    between atoms: C3_5  and  C4_7 
REMARK       I    between atoms: N2_11  and  C8_12 
REMARK    4  A    between atoms: C8_12  and  C9_14 
ROOT
HETATM    1  N1  UNL     1      -4.737   2.872  12.806  1.00  0.00    -0.355 N 
ATOM      2  H1  UNL     1      -5.721   2.998  13.046  1.00  0.00     0.162 HD
HETATM    3  C3  UNL     1      -3.747   3.417  13.665  1.00  0.00     0.241 C 
HETATM    4  O1  UNL     1      -2.515   3.318  13.459  1.00  0.00    -0.271 OA
ENDROOT
BRANCH   3   5
HETATM    5  C4  UNL     1      -4.183   4.150  14.879  1.00  0.00     0.179 C 
HETATM    6  C5  UNL     1      -4.731   5.503  14.511  1.00  0.00     0.037 C 
HETATM    7  C6  UNL     1      -5.963   5.634  15.346  1.00  0.00     0.022 C 
HETATM    8  C7  UNL     1      -6.468   4.196  15.419  1.00  0.00     0.127 C 
HETATM    9  N2  UNL     1      -5.244   3.455  15.577  1.00  0.00    -0.336 N 
HETATM   10  C8  UNL     1      -5.083   2.245  16.281  1.00  0.00     0.253 C 
HETATM   11  O2  UNL     1      -3.935   1.706  16.306  1.00  0.00    -0.270 OA
BRANCH  10  12
HETATM   12  C9  UNL     1      -6.213   1.587  16.990  1.00  0.00     0.270 C 
HETATM   13 CL1  UNL     1      -5.808  -0.094  17.352  1.00  0.00    -0.098 Cl
HETATM   14 CL2  UNL     1      -6.436   2.505  18.522  1.00  0.00    -0.098 Cl
ENDBRANCH  10  12
ENDBRANCH   3   5
BRANCH   1  15
HETATM   15  C2  UNL     1      -4.395   2.138  11.593  1.00  0.00     0.086 C 
HETATM   16  C1  UNL     1      -3.466   2.910  10.706  1.00  0.00     0.032 C 
BRANCH  15  17
HETATM   17  C10 UNL     1      -3.775   0.846  12.010  1.00  0.00     0.035 C 
HETATM   18  C11 UNL     1      -4.643  -0.325  11.570  1.00  0.00     0.036 C 
HETATM   19  C12 UNL     1      -3.625  -1.456  11.626  1.00  0.00     0.232 C 
HETATM   20  N3  UNL     1      -2.338  -0.871  11.399  1.00  0.00    -0.075 N 
HETATM   21  C13 UNL     1      -2.488   0.545  11.272  1.00  0.00     0.239 C 
ATOM     22  H32 UNL     1      -1.662  -1.127  12.118  1.00  0.00     0.277 HD
ATOM     23  H31 UNL     1      -1.858  -1.284  10.599  1.00  0.00     0.277 HD
ENDBRANCH  15  17
ENDBRANCH   1  15
TORSDOF 4
ENDMDL
