MODEL 1
REMARK VINA RESULT: -5.806328903      0.000      0.000
REMARK  6 active torsions:
REMARK  status: ('A' for Active; 'I' for Inactive)
REMARK    1  A    between atoms: O1_1  and  C1_3 
REMARK    2  A    between atoms: C1_3  and  C2_4 
REMARK    3  A    between atoms: C2_4  and  N1_5 
REMARK    4  A    between atoms: N1_5  and  C3_7 
REMARK    5  A    between atoms: C4_10  and  C5_11 
REMARK    6  A    between atoms: C5_11  and  C6_12 
ROOT
HETATM    1  C3  UNL     1      -4.302   0.618  12.558  1.00  0.00     0.146 A 
HETATM    2  N2  UNL     1      -4.221   0.518  13.880  1.00  0.00    -0.339 N 
ATOM      3  H2  UNL     1      -3.879  -0.339  14.315  1.00  0.00     0.168 HD
HETATM    4  C4  UNL     1      -4.588   1.535  14.614  1.00  0.00     0.036 A 
HETATM    5  C7  UNL     1      -5.037   2.653  13.957  1.00  0.00     0.077 A 
HETATM    6 BR2  UNL     1      -5.650   4.314  14.722  1.00  0.00    -0.041 Br
HETATM    7  S1  UNL     1      -4.913   2.192  12.318  1.00  0.00    -0.045 SA
ENDROOT
BRANCH   1   8
HETATM    8  N1  UNL     1      -3.975  -0.300  11.664  1.00  0.00    -0.368 N 
ATOM      9  H1  UNL     1      -3.603  -0.019  10.757  1.00  0.00     0.161 HD
BRANCH   8  10
HETATM   10  C2  UNL     1      -4.143  -1.701  11.973  1.00  0.00     0.147 C 
BRANCH  10  11
HETATM   11  C1  UNL     1      -2.929  -2.445  11.506  1.00  0.00     0.183 C 
BRANCH  11  12
HETATM   12  O1  UNL     1      -3.103  -3.828  11.610  1.00  0.00    -0.399 OA
ATOM     13  H1  UNL     1      -2.429  -4.301  11.137  1.00  0.00     0.209 HD
ENDBRANCH  11  12
ENDBRANCH  10  11
ENDBRANCH   8  10
ENDBRANCH   1   8
BRANCH   4  14
HETATM   14  C5  UNL     1      -4.544   1.547  16.143  1.00  0.00     0.070 C 
BRANCH  14  15
HETATM   15  C6  UNL     1      -5.551   0.604  16.709  1.00  0.00     0.091 C 
HETATM   16 BR1  UNL     1      -7.212   1.450  17.165  1.00  0.00    -0.096 Br
ENDBRANCH  14  15
ENDBRANCH   4  14
TORSDOF 6
ENDMDL
MODEL 2
REMARK VINA RESULT: -5.626267651      1.887      1.964
REMARK  6 active torsions:
REMARK  status: ('A' for Active; 'I' for Inactive)
REMARK    1  A    between atoms: O1_1  and  C1_3 
REMARK    2  A    between atoms: C1_3  and  C2_4 
REMARK    3  A    between atoms: C2_4  and  N1_5 
REMARK    4  A    between atoms: N1_5  and  C3_7 
REMARK    5  A    between atoms: C4_10  and  C5_11 
REMARK    6  A    between atoms: C5_11  and  C6_12 
ROOT
HETATM    1  C3  UNL     1      -4.354   0.688  12.861  1.00  0.00     0.146 A 
HETATM    2  N2  UNL     1      -4.313   0.651  14.188  1.00  0.00    -0.339 N 
ATOM      3  H2  UNL     1      -4.002  -0.191  14.673  1.00  0.00     0.168 HD
HETATM    4  C4  UNL     1      -4.678   1.708  14.862  1.00  0.00     0.036 A 
HETATM    5  C7  UNL     1      -5.085   2.802  14.140  1.00  0.00     0.077 A 
HETATM    6 BR2  UNL     1      -5.684   4.510  14.808  1.00  0.00    -0.041 Br
HETATM    7  S1  UNL     1      -4.926   2.261  12.529  1.00  0.00    -0.045 SA
ENDROOT
BRANCH   1   8
HETATM    8  N1  UNL     1      -4.022  -0.278  12.022  1.00  0.00    -0.368 N 
ATOM      9  H1  UNL     1      -4.257  -1.246  12.241  1.00  0.00     0.161 HD
BRANCH   8  10
HETATM   10  C2  UNL     1      -3.327   0.037  10.796  1.00  0.00     0.147 C 
BRANCH  10  11
HETATM   11  C1  UNL     1      -2.014   0.672  11.136  1.00  0.00     0.183 C 
BRANCH  11  12
HETATM   12  O1  UNL     1      -1.607   1.571  10.147  1.00  0.00    -0.399 OA
ATOM     13  H1  UNL     1      -0.694   1.447   9.917  1.00  0.00     0.209 HD
ENDBRANCH  11  12
ENDBRANCH  10  11
ENDBRANCH   8  10
ENDBRANCH   1   8
BRANCH   4  14
HETATM   14  C5  UNL     1      -4.677   1.792  16.389  1.00  0.00     0.070 C 
BRANCH  14  15
HETATM   15  C6  UNL     1      -5.553   0.739  16.979  1.00  0.00     0.091 C 
HETATM   16 BR1  UNL     1      -7.372   1.306  17.210  1.00  0.00    -0.096 Br
ENDBRANCH  14  15
ENDBRANCH   4  14
TORSDOF 6
ENDMDL
MODEL 3
REMARK VINA RESULT: -5.559108643      2.612      3.752
REMARK  6 active torsions:
REMARK  status: ('A' for Active; 'I' for Inactive)
REMARK    1  A    between atoms: O1_1  and  C1_3 
REMARK    2  A    between atoms: C1_3  and  C2_4 
REMARK    3  A    between atoms: C2_4  and  N1_5 
REMARK    4  A    between atoms: N1_5  and  C3_7 
REMARK    5  A    between atoms: C4_10  and  C5_11 
REMARK    6  A    between atoms: C5_11  and  C6_12 
ROOT
HETATM    1  C3  UNL     1      -4.435   1.355  14.072  1.00  0.00     0.146 A 
HETATM    2  N2  UNL     1      -5.053   2.525  14.195  1.00  0.00    -0.339 N 
ATOM      3  H2  UNL     1      -5.072   3.185  13.418  1.00  0.00     0.168 HD
HETATM    4  C4  UNL     1      -5.634   2.817  15.328  1.00  0.00     0.036 A 
HETATM    5  C7  UNL     1      -5.566   1.880  16.328  1.00  0.00     0.077 A 
HETATM    6 BR2  UNL     1      -6.306   1.984  18.106  1.00  0.00    -0.041 Br
HETATM    7  S1  UNL     1      -4.670   0.624  15.596  1.00  0.00    -0.045 SA
ENDROOT
BRANCH   1   8
HETATM    8  N1  UNL     1      -3.801   0.893  13.009  1.00  0.00    -0.368 N 
ATOM      9  H1  UNL     1      -2.797   1.043  12.908  1.00  0.00     0.161 HD
BRANCH   8  10
HETATM   10  C2  UNL     1      -4.529   0.174  11.989  1.00  0.00     0.147 C 
BRANCH  10  11
HETATM   11  C1  UNL     1      -4.830   1.113  10.861  1.00  0.00     0.183 C 
BRANCH  11  12
HETATM   12  O1  UNL     1      -5.972   1.876  11.119  1.00  0.00    -0.399 OA
ATOM     13  H1  UNL     1      -6.598   1.819  10.408  1.00  0.00     0.209 HD
ENDBRANCH  11  12
ENDBRANCH  10  11
ENDBRANCH   8  10
ENDBRANCH   1   8
BRANCH   4  14
HETATM   14  C5  UNL     1      -6.376   4.128  15.596  1.00  0.00     0.070 C 
BRANCH  14  15
HETATM   15  C6  UNL     1      -6.082   5.130  14.532  1.00  0.00     0.091 C 
HETATM   16 BR1  UNL     1      -4.416   6.047  14.791  1.00  0.00    -0.096 Br
ENDBRANCH  14  15
ENDBRANCH   4  14
TORSDOF 6
ENDMDL
MODEL 4
REMARK VINA RESULT: -5.235580946      3.466      5.058
REMARK  6 active torsions:
REMARK  status: ('A' for Active; 'I' for Inactive)
REMARK    1  A    between atoms: O1_1  and  C1_3 
REMARK    2  A    between atoms: C1_3  and  C2_4 
REMARK    3  A    between atoms: C2_4  and  N1_5 
REMARK    4  A    between atoms: N1_5  and  C3_7 
REMARK    5  A    between atoms: C4_10  and  C5_11 
REMARK    6  A    between atoms: C5_11  and  C6_12 
ROOT
HETATM    1  C3  UNL     1      -4.626   1.783  14.980  1.00  0.00     0.146 A 
HETATM    2  N2  UNL     1      -4.270   0.900  14.054  1.00  0.00    -0.339 N 
ATOM      3  H2  UNL     1      -4.130  -0.080  14.299  1.00  0.00     0.168 HD
HETATM    4  C4  UNL     1      -4.101   1.306  12.824  1.00  0.00     0.036 A 
HETATM    5  C7  UNL     1      -4.307   2.639  12.570  1.00  0.00     0.077 A 
HETATM    6 BR2  UNL     1      -4.147   3.567  10.886  1.00  0.00    -0.041 Br
HETATM    7  S1  UNL     1      -4.732   3.246  14.109  1.00  0.00    -0.045 SA
ENDROOT
BRANCH   1   8
HETATM    8  N1  UNL     1      -4.843   1.554  16.263  1.00  0.00    -0.368 N 
ATOM      9  H1  UNL     1      -4.166   1.019  16.807  1.00  0.00     0.161 HD
BRANCH   8  10
HETATM   10  C2  UNL     1      -6.038   2.060  16.896  1.00  0.00     0.147 C 
BRANCH  10  11
HETATM   11  C1  UNL     1      -6.880   0.900  17.332  1.00  0.00     0.183 C 
BRANCH  11  12
HETATM   12  O1  UNL     1      -6.134  -0.280  17.399  1.00  0.00    -0.399 OA
ATOM     13  H1  UNL     1      -5.911  -0.601  16.534  1.00  0.00     0.209 HD
ENDBRANCH  11  12
ENDBRANCH  10  11
ENDBRANCH   8  10
ENDBRANCH   1   8
BRANCH   4  14
HETATM   14  C5  UNL     1      -3.692   0.391  11.668  1.00  0.00     0.070 C 
BRANCH  14  15
HETATM   15  C6  UNL     1      -4.296  -0.963  11.826  1.00  0.00     0.091 C 
HETATM   16 BR1  UNL     1      -3.052  -2.391  11.518  1.00  0.00    -0.096 Br
ENDBRANCH  14  15
ENDBRANCH   4  14
TORSDOF 6
ENDMDL
MODEL 5
REMARK VINA RESULT: -5.126005982      3.450      5.118
REMARK  6 active torsions:
REMARK  status: ('A' for Active; 'I' for Inactive)
REMARK    1  A    between atoms: O1_1  and  C1_3 
REMARK    2  A    between atoms: C1_3  and  C2_4 
REMARK    3  A    between atoms: C2_4  and  N1_5 
REMARK    4  A    between atoms: N1_5  and  C3_7 
REMARK    5  A    between atoms: C4_10  and  C5_11 
REMARK    6  A    between atoms: C5_11  and  C6_12 
ROOT
HETATM    1  C3  UNL     1      -4.567   2.173  15.417  1.00  0.00     0.146 A 
HETATM    2  N2  UNL     1      -4.651   1.397  14.342  1.00  0.00    -0.339 N 
ATOM      3  H2  UNL     1      -4.833   0.398  14.437  1.00  0.00     0.168 HD
HETATM    4  C4  UNL     1      -4.498   1.934  13.162  1.00  0.00     0.036 A 
HETATM    5  C7  UNL     1      -4.256   3.284  13.114  1.00  0.00     0.077 A 
HETATM    6 BR2  UNL     1      -3.983   4.387  11.555  1.00  0.00    -0.041 Br
HETATM    7  S1  UNL     1      -4.261   3.718  14.765  1.00  0.00    -0.045 SA
ENDROOT
BRANCH   1   8
HETATM    8  N1  UNL     1      -4.698   1.806  16.681  1.00  0.00    -0.368 N 
ATOM      9  H1  UNL     1      -3.923   1.351  17.163  1.00  0.00     0.161 HD
BRANCH   8  10
HETATM   10  C2  UNL     1      -5.938   2.051  17.379  1.00  0.00     0.147 C 
BRANCH  10  11
HETATM   11  C1  UNL     1      -6.760   0.799  17.353  1.00  0.00     0.183 C 
BRANCH  11  12
HETATM   12  O1  UNL     1      -5.956  -0.343  17.322  1.00  0.00    -0.399 OA
ATOM     13  H1  UNL     1      -5.317  -0.340  18.025  1.00  0.00     0.209 HD
ENDBRANCH  11  12
ENDBRANCH  10  11
ENDBRANCH   8  10
ENDBRANCH   1   8
BRANCH   4  14
HETATM   14  C5  UNL     1      -4.570   1.152  11.849  1.00  0.00     0.070 C 
BRANCH  14  15
HETATM   15  C6  UNL     1      -3.398   0.241  11.710  1.00  0.00     0.091 C 
HETATM   16 BR1  UNL     1      -1.806   1.136  11.120  1.00  0.00    -0.096 Br
ENDBRANCH  14  15
ENDBRANCH   4  14
TORSDOF 6
ENDMDL
