MODEL 1
REMARK VINA RESULT: -6.197978442      0.000      0.000
REMARK  11 active torsions:
REMARK  status: ('A' for Active; 'I' for Inactive)
REMARK    1  A    between atoms: C2_2  and  C3_3 
REMARK    2  A    between atoms: C3_3  and  C4_4 
REMARK    3  A    between atoms: C4_4  and  C5_5 
REMARK    4  A    between atoms: C5_5  and  C6_6 
REMARK    5  A    between atoms: C6_6  and  C7_7 
REMARK    6  A    between atoms: C7_7  and  O1_8 
REMARK    7  A    between atoms: O1_8  and  C8_9 
REMARK    8  A    between atoms: C11_12  and  C12_13 
REMARK    9  A    between atoms: C12_13  and  O2_14 
REMARK   10  A    between atoms: C12_13  and  C13_16 
REMARK   11  A    between atoms: C13_16  and  C14_17 
ROOT
HETATM    1  C8  UNL     1     -44.192  69.295  -9.797  1.00  0.00     0.069 A 
HETATM    2  C9  UNL     1     -45.178  69.031 -10.717  1.00  0.00     0.037 A 
HETATM    3  C10 UNL     1     -46.362  68.477 -10.312  1.00  0.00     0.013 A 
HETATM    4  C11 UNL     1     -46.617  68.162  -8.977  1.00  0.00    -0.023 A 
HETATM    5  C16 UNL     1     -45.649  68.418  -8.061  1.00  0.00    -0.051 A 
HETATM    6  C17 UNL     1     -45.825  68.123  -6.649  1.00  0.00     0.049 C 
HETATM    7  C18 UNL     1     -44.443  68.983  -8.477  1.00  0.00     0.044 A 
ENDROOT
BRANCH   1   8
HETATM    8  O1  UNL     1     -43.007  69.855 -10.231  1.00  0.00    -0.351 OA
BRANCH   8   9
HETATM    9  C7  UNL     1     -42.659  71.156  -9.805  1.00  0.00     0.175 C 
BRANCH   9  10
HETATM   10  C6  UNL     1     -43.683  72.154 -10.314  1.00  0.00     0.027 C 
BRANCH  10  11
HETATM   11  C5  UNL     1     -44.181  72.978  -9.193  1.00  0.00     0.002 C 
BRANCH  11  12
HETATM   12  C4  UNL     1     -45.443  72.589  -8.539  1.00  0.00     0.004 C 
BRANCH  12  13
HETATM   13  C3  UNL     1     -45.462  72.294  -7.099  1.00  0.00     0.026 C 
BRANCH  13  14
HETATM   14  C2  UNL     1     -46.639  71.709  -6.478  1.00  0.00    -0.037 C 
HETATM   15  C1  UNL     1     -47.727  71.370  -7.195  1.00  0.00     0.007 C 
ENDBRANCH  13  14
ENDBRANCH  12  13
ENDBRANCH  11  12
ENDBRANCH  10  11
ENDBRANCH   9  10
ENDBRANCH   8   9
ENDBRANCH   1   8
BRANCH   4  16
HETATM   16  C12 UNL     1     -47.886  67.568  -8.545  1.00  0.00     0.155 C 
BRANCH  16  17
HETATM   17  O2  UNL     1     -47.892  66.171  -8.607  1.00  0.00    -0.391 OA
ATOM     18  H2  UNL     1     -48.763  65.796  -8.546  1.00  0.00     0.210 HD
ENDBRANCH  16  17
BRANCH  16  19
HETATM   19  C13 UNL     1     -49.093  68.171  -9.216  1.00  0.00     0.062 C 
BRANCH  19  20
HETATM   20  C14 UNL     1     -49.536  67.223 -10.271  1.00  0.00    -0.034 C 
HETATM   21  C15 UNL     1     -49.806  67.646 -11.497  1.00  0.00     0.007 C 
ENDBRANCH  19  20
ENDBRANCH  16  19
ENDBRANCH   4  16
TORSDOF 11
ENDMDL
MODEL 2
REMARK VINA RESULT: -6.181207388      2.156      5.547
REMARK  11 active torsions:
REMARK  status: ('A' for Active; 'I' for Inactive)
REMARK    1  A    between atoms: C2_2  and  C3_3 
REMARK    2  A    between atoms: C3_3  and  C4_4 
REMARK    3  A    between atoms: C4_4  and  C5_5 
REMARK    4  A    between atoms: C5_5  and  C6_6 
REMARK    5  A    between atoms: C6_6  and  C7_7 
REMARK    6  A    between atoms: C7_7  and  O1_8 
REMARK    7  A    between atoms: O1_8  and  C8_9 
REMARK    8  A    between atoms: C11_12  and  C12_13 
REMARK    9  A    between atoms: C12_13  and  O2_14 
REMARK   10  A    between atoms: C12_13  and  C13_16 
REMARK   11  A    between atoms: C13_16  and  C14_17 
ROOT
HETATM    1  C8  UNL     1     -45.004  69.229  -7.418  1.00  0.00     0.069 A 
HETATM    2  C9  UNL     1     -45.603  69.239  -6.181  1.00  0.00     0.037 A 
HETATM    3  C10 UNL     1     -46.197  70.382  -5.718  1.00  0.00     0.013 A 
HETATM    4  C11 UNL     1     -46.221  71.562  -6.461  1.00  0.00    -0.023 A 
HETATM    5  C16 UNL     1     -45.630  71.561  -7.684  1.00  0.00    -0.051 A 
HETATM    6  C17 UNL     1     -45.605  72.743  -8.528  1.00  0.00     0.049 C 
HETATM    7  C18 UNL     1     -45.026  70.395  -8.153  1.00  0.00     0.044 A 
ENDROOT
BRANCH   1   8
HETATM    8  O1  UNL     1     -44.412  68.063  -7.863  1.00  0.00    -0.351 OA
BRANCH   8   9
HETATM    9  C7  UNL     1     -45.148  66.858  -7.834  1.00  0.00     0.175 C 
BRANCH   9  10
HETATM   10  C6  UNL     1     -46.073  66.792  -9.037  1.00  0.00     0.027 C 
BRANCH  10  11
HETATM   11  C5  UNL     1     -47.478  66.914  -8.596  1.00  0.00     0.002 C 
BRANCH  11  12
HETATM   12  C4  UNL     1     -48.243  68.106  -9.003  1.00  0.00     0.004 C 
BRANCH  12  13
HETATM   13  C3  UNL     1     -49.371  67.970  -9.935  1.00  0.00     0.026 C 
BRANCH  13  14
HETATM   14  C2  UNL     1     -49.155  67.509 -11.297  1.00  0.00    -0.037 C 
HETATM   15  C1  UNL     1     -50.117  66.876 -11.994  1.00  0.00     0.007 C 
ENDBRANCH  13  14
ENDBRANCH  12  13
ENDBRANCH  11  12
ENDBRANCH  10  11
ENDBRANCH   9  10
ENDBRANCH   8   9
ENDBRANCH   1   8
BRANCH   4  16
HETATM   16  C12 UNL     1     -46.857  72.785  -5.963  1.00  0.00     0.155 C 
BRANCH  16  17
HETATM   17  O2  UNL     1     -46.108  73.435  -4.977  1.00  0.00    -0.391 OA
ATOM     18  H2  UNL     1     -45.729  74.254  -5.272  1.00  0.00     0.210 HD
ENDBRANCH  16  17
BRANCH  16  19
HETATM   19  C13 UNL     1     -48.293  72.591  -5.550  1.00  0.00     0.062 C 
BRANCH  19  20
HETATM   20  C14 UNL     1     -49.143  72.947  -6.717  1.00  0.00    -0.034 C 
HETATM   21  C15 UNL     1     -49.671  72.007  -7.486  1.00  0.00     0.007 C 
ENDBRANCH  19  20
ENDBRANCH  16  19
ENDBRANCH   4  16
TORSDOF 11
ENDMDL
MODEL 3
REMARK VINA RESULT: -6.154444774      1.357      1.467
REMARK  11 active torsions:
REMARK  status: ('A' for Active; 'I' for Inactive)
REMARK    1  A    between atoms: C2_2  and  C3_3 
REMARK    2  A    between atoms: C3_3  and  C4_4 
REMARK    3  A    between atoms: C4_4  and  C5_5 
REMARK    4  A    between atoms: C5_5  and  C6_6 
REMARK    5  A    between atoms: C6_6  and  C7_7 
REMARK    6  A    between atoms: C7_7  and  O1_8 
REMARK    7  A    between atoms: O1_8  and  C8_9 
REMARK    8  A    between atoms: C11_12  and  C12_13 
REMARK    9  A    between atoms: C12_13  and  O2_14 
REMARK   10  A    between atoms: C12_13  and  C13_16 
REMARK   11  A    between atoms: C13_16  and  C14_17 
ROOT
HETATM    1  C8  UNL     1     -43.748  69.317  -8.762  1.00  0.00     0.069 A 
HETATM    2  C9  UNL     1     -44.283  69.671  -9.977  1.00  0.00     0.037 A 
HETATM    3  C10 UNL     1     -45.359  68.990 -10.477  1.00  0.00     0.013 A 
HETATM    4  C11 UNL     1     -45.950  67.928  -9.791  1.00  0.00    -0.023 A 
HETATM    5  C16 UNL     1     -45.428  67.571  -8.590  1.00  0.00    -0.051 A 
HETATM    6  C17 UNL     1     -45.978  66.478  -7.806  1.00  0.00     0.049 C 
HETATM    7  C18 UNL     1     -44.331  68.268  -8.084  1.00  0.00     0.044 A 
ENDROOT
BRANCH   1   8
HETATM    8  O1  UNL     1     -42.662  70.020  -8.279  1.00  0.00    -0.351 OA
BRANCH   8   9
HETATM    9  C7  UNL     1     -42.380  71.302  -8.802  1.00  0.00     0.175 C 
BRANCH   9  10
HETATM   10  C6  UNL     1     -42.900  72.369  -7.856  1.00  0.00     0.027 C 
BRANCH  10  11
HETATM   11  C5  UNL     1     -44.115  72.991  -8.421  1.00  0.00     0.002 C 
BRANCH  11  12
HETATM   12  C4  UNL     1     -45.404  72.767  -7.741  1.00  0.00     0.004 C 
BRANCH  12  13
HETATM   13  C3  UNL     1     -45.465  71.906  -6.552  1.00  0.00     0.026 C 
BRANCH  13  14
HETATM   14  C2  UNL     1     -46.412  70.804  -6.483  1.00  0.00    -0.037 C 
HETATM   15  C1  UNL     1     -47.287  70.556  -7.475  1.00  0.00     0.007 C 
ENDBRANCH  13  14
ENDBRANCH  12  13
ENDBRANCH  11  12
ENDBRANCH  10  11
ENDBRANCH   9  10
ENDBRANCH   8   9
ENDBRANCH   1   8
BRANCH   4  16
HETATM   16  C12 UNL     1     -47.104  67.199 -10.328  1.00  0.00     0.155 C 
BRANCH  16  17
HETATM   17  O2  UNL     1     -46.884  66.683 -11.609  1.00  0.00    -0.391 OA
ATOM     18  H2  UNL     1     -47.396  67.116 -12.281  1.00  0.00     0.210 HD
ENDBRANCH  16  17
BRANCH  16  19
HETATM   19  C13 UNL     1     -48.396  67.968 -10.240  1.00  0.00     0.062 C 
BRANCH  19  20
HETATM   20  C14 UNL     1     -49.453  67.134 -10.869  1.00  0.00    -0.034 C 
HETATM   21  C15 UNL     1     -50.103  67.556 -11.944  1.00  0.00     0.007 C 
ENDBRANCH  19  20
ENDBRANCH  16  19
ENDBRANCH   4  16
TORSDOF 11
ENDMDL
MODEL 4
REMARK VINA RESULT: -6.117729636      2.316      5.212
REMARK  11 active torsions:
REMARK  status: ('A' for Active; 'I' for Inactive)
REMARK    1  A    between atoms: C2_2  and  C3_3 
REMARK    2  A    between atoms: C3_3  and  C4_4 
REMARK    3  A    between atoms: C4_4  and  C5_5 
REMARK    4  A    between atoms: C5_5  and  C6_6 
REMARK    5  A    between atoms: C6_6  and  C7_7 
REMARK    6  A    between atoms: C7_7  and  O1_8 
REMARK    7  A    between atoms: O1_8  and  C8_9 
REMARK    8  A    between atoms: C11_12  and  C12_13 
REMARK    9  A    between atoms: C12_13  and  O2_14 
REMARK   10  A    between atoms: C12_13  and  C13_16 
REMARK   11  A    between atoms: C13_16  and  C14_17 
ROOT
HETATM    1  C8  UNL     1     -44.363  69.260  -6.686  1.00  0.00     0.069 A 
HETATM    2  C9  UNL     1     -45.076  69.382  -5.518  1.00  0.00     0.037 A 
HETATM    3  C10 UNL     1     -45.855  70.486  -5.303  1.00  0.00     0.013 A 
HETATM    4  C11 UNL     1     -45.961  71.515  -6.239  1.00  0.00    -0.023 A 
HETATM    5  C16 UNL     1     -45.260  71.403  -7.396  1.00  0.00    -0.051 A 
HETATM    6  C17 UNL     1     -45.308  72.425  -8.428  1.00  0.00     0.049 C 
HETATM    7  C18 UNL     1     -44.466  70.276  -7.612  1.00  0.00     0.044 A 
ENDROOT
BRANCH   1   8
HETATM    8  O1  UNL     1     -43.585  68.136  -6.879  1.00  0.00    -0.351 OA
BRANCH   8   9
HETATM    9  C7  UNL     1     -44.211  66.883  -7.066  1.00  0.00     0.175 C 
BRANCH   9  10
HETATM   10  C6  UNL     1     -44.521  66.678  -8.537  1.00  0.00     0.027 C 
BRANCH  10  11
HETATM   11  C5  UNL     1     -45.952  66.352  -8.707  1.00  0.00     0.002 C 
BRANCH  11  12
HETATM   12  C4  UNL     1     -46.949  67.140  -7.960  1.00  0.00     0.004 C 
BRANCH  12  13
HETATM   13  C3  UNL     1     -47.467  68.393  -8.527  1.00  0.00     0.026 C 
BRANCH  13  14
HETATM   14  C2  UNL     1     -48.855  68.498  -8.945  1.00  0.00    -0.037 C 
HETATM   15  C1  UNL     1     -49.335  67.809  -9.998  1.00  0.00     0.007 C 
ENDBRANCH  13  14
ENDBRANCH  12  13
ENDBRANCH  11  12
ENDBRANCH  10  11
ENDBRANCH   9  10
ENDBRANCH   8   9
ENDBRANCH   1   8
BRANCH   4  16
HETATM   16  C12 UNL     1     -46.796  72.697  -6.007  1.00  0.00     0.155 C 
BRANCH  16  17
HETATM   17  O2  UNL     1     -46.292  73.544  -5.015  1.00  0.00    -0.391 OA
ATOM     18  H2  UNL     1     -45.813  73.084  -4.336  1.00  0.00     0.210 HD
ENDBRANCH  16  17
BRANCH  16  19
HETATM   19  C13 UNL     1     -48.252  72.373  -5.791  1.00  0.00     0.062 C 
BRANCH  19  20
HETATM   20  C14 UNL     1     -48.771  71.796  -7.058  1.00  0.00    -0.034 C 
HETATM   21  C15 UNL     1     -49.872  72.270  -7.621  1.00  0.00     0.007 C 
ENDBRANCH  19  20
ENDBRANCH  16  19
ENDBRANCH   4  16
TORSDOF 11
ENDMDL
MODEL 5
REMARK VINA RESULT: -6.107735420      1.776      2.589
REMARK  11 active torsions:
REMARK  status: ('A' for Active; 'I' for Inactive)
REMARK    1  A    between atoms: C2_2  and  C3_3 
REMARK    2  A    between atoms: C3_3  and  C4_4 
REMARK    3  A    between atoms: C4_4  and  C5_5 
REMARK    4  A    between atoms: C5_5  and  C6_6 
REMARK    5  A    between atoms: C6_6  and  C7_7 
REMARK    6  A    between atoms: C7_7  and  O1_8 
REMARK    7  A    between atoms: O1_8  and  C8_9 
REMARK    8  A    between atoms: C11_12  and  C12_13 
REMARK    9  A    between atoms: C12_13  and  O2_14 
REMARK   10  A    between atoms: C12_13  and  C13_16 
REMARK   11  A    between atoms: C13_16  and  C14_17 
ROOT
HETATM    1  C8  UNL     1     -43.898  68.956  -8.517  1.00  0.00     0.069 A 
HETATM    2  C9  UNL     1     -44.300  69.645  -9.635  1.00  0.00     0.037 A 
HETATM    3  C10 UNL     1     -45.312  69.154 -10.415  1.00  0.00     0.013 A 
HETATM    4  C11 UNL     1     -45.967  67.959 -10.118  1.00  0.00    -0.023 A 
HETATM    5  C16 UNL     1     -45.575  67.271  -9.015  1.00  0.00    -0.051 A 
HETATM    6  C17 UNL     1     -46.200  66.017  -8.628  1.00  0.00     0.049 C 
HETATM    7  C18 UNL     1     -44.544  67.774  -8.222  1.00  0.00     0.044 A 
ENDROOT
BRANCH   1   8
HETATM    8  O1  UNL     1     -42.875  69.472  -7.746  1.00  0.00    -0.351 OA
BRANCH   8   9
HETATM    9  C7  UNL     1     -43.141  70.557  -6.880  1.00  0.00     0.175 C 
BRANCH   9  10
HETATM   10  C6  UNL     1     -43.793  70.050  -5.606  1.00  0.00     0.027 C 
BRANCH  10  11
HETATM   11  C5  UNL     1     -45.073  70.754  -5.384  1.00  0.00     0.002 C 
BRANCH  11  12
HETATM   12  C4  UNL     1     -46.282  70.249  -6.060  1.00  0.00     0.004 C 
BRANCH  12  13
HETATM   13  C3  UNL     1     -46.799  70.940  -7.249  1.00  0.00     0.026 C 
BRANCH  13  14
HETATM   14  C2  UNL     1     -46.568  72.364  -7.438  1.00  0.00    -0.037 C 
HETATM   15  C1  UNL     1     -45.741  72.829  -8.392  1.00  0.00     0.007 C 
ENDBRANCH  13  14
ENDBRANCH  12  13
ENDBRANCH  11  12
ENDBRANCH  10  11
ENDBRANCH   9  10
ENDBRANCH   8   9
ENDBRANCH   1   8
BRANCH   4  16
HETATM   16  C12 UNL     1     -47.050  67.435 -10.955  1.00  0.00     0.155 C 
BRANCH  16  17
HETATM   17  O2  UNL     1     -46.781  67.519 -12.325  1.00  0.00    -0.391 OA
ATOM     18  H2  UNL     1     -46.578  66.679 -12.720  1.00  0.00     0.210 HD
ENDBRANCH  16  17
BRANCH  16  19
HETATM   19  C13 UNL     1     -48.405  67.995 -10.607  1.00  0.00     0.062 C 
BRANCH  19  20
HETATM   20  C14 UNL     1     -49.413  66.948 -10.919  1.00  0.00    -0.034 C 
HETATM   21  C15 UNL     1     -50.129  67.002 -12.031  1.00  0.00     0.007 C 
ENDBRANCH  19  20
ENDBRANCH  16  19
ENDBRANCH   4  16
TORSDOF 11
ENDMDL
