MODEL 1
REMARK VINA RESULT: -7.248850950      0.000      0.000
REMARK  9 active torsions:
REMARK  status: ('A' for Active; 'I' for Inactive)
REMARK    1  A    between atoms: C2_2  and  C3_3 
REMARK    2  A    between atoms: C4_4  and  C5_5 
REMARK    3  A    between atoms: C4_4  and  C8_8 
REMARK    4  A    between atoms: C5_5  and  C6_6 
REMARK    5  A    between atoms: C10_10  and  C11_11 
REMARK    6  A    between atoms: C11_11  and  C12_12 
REMARK    7  A    between atoms: C11_11  and  O2_15 
REMARK    8  A    between atoms: C12_12  and  O1_13 
REMARK    9  A    between atoms: O2_15  and  C13_16 
ROOT
HETATM    1  C8  UNL     1     -46.130  70.672  -7.904  1.00  0.00    -0.024 A 
HETATM    2  C9  UNL     1     -46.577  69.343  -8.129  1.00  0.00     0.022 A 
HETATM    3  C10 UNL     1     -46.143  68.564  -9.189  1.00  0.00    -0.026 A 
HETATM    4  C15 UNL     1     -45.231  69.153 -10.038  1.00  0.00     0.010 A 
HETATM    5  C16 UNL     1     -44.769  70.447  -9.847  1.00  0.00     0.008 A 
HETATM    6  C17 UNL     1     -45.235  71.223  -8.744  1.00  0.00    -0.051 A 
HETATM    7  C18 UNL     1     -44.562  72.511  -8.543  1.00  0.00     0.049 C 
ENDROOT
BRANCH   1   8
HETATM    8  C4  UNL     1     -46.834  71.478  -6.825  1.00  0.00    -0.051 C 
HETATM    9  C3  UNL     1     -48.242  71.614  -7.120  1.00  0.00    -0.019 C 
BRANCH   9  10
HETATM   10  C2  UNL     1     -49.192  72.689  -6.945  1.00  0.00     0.023 C 
HETATM   11  C1  UNL     1     -49.295  73.239  -5.537  1.00  0.00     0.009 C 
ENDBRANCH   9  10
BRANCH   8  12
HETATM   12  C5  UNL     1     -46.099  71.697  -5.593  1.00  0.00     0.039 C 
BRANCH  12  13
HETATM   13  C6  UNL     1     -45.615  70.445  -4.858  1.00  0.00     0.000 C 
HETATM   14  C7  UNL     1     -44.213  70.043  -5.206  1.00  0.00     0.005 C 
ENDBRANCH  12  13
ENDBRANCH   8  12
ENDBRANCH   1   8
BRANCH   3  15
HETATM   15  C11 UNL     1     -46.687  67.203  -9.423  1.00  0.00     0.177 C 
BRANCH  15  16
HETATM   16  C12 UNL     1     -45.817  66.100  -8.857  1.00  0.00     0.201 C 
BRANCH  16  17
HETATM   17  O1  UNL     1     -46.307  65.729  -7.613  1.00  0.00    -0.398 OA
ATOM     18  H1  UNL     1     -46.744  64.889  -7.688  1.00  0.00     0.209 HD
ENDBRANCH  16  17
ENDBRANCH  15  16
BRANCH  15  19
HETATM   19  O2  UNL     1     -46.820  67.005 -10.786  1.00  0.00    -0.379 OA
BRANCH  19  20
HETATM   20  C13 UNL     1     -48.057  67.375 -11.280  1.00  0.00     0.164 C 
HETATM   21  C14 UNL     1     -49.065  66.932 -10.215  1.00  0.00     0.033 C 
ENDBRANCH  19  20
ENDBRANCH  15  19
ENDBRANCH   3  15
TORSDOF 9
ENDMDL
MODEL 2
REMARK VINA RESULT: -7.156124857      2.717      5.811
REMARK  9 active torsions:
REMARK  status: ('A' for Active; 'I' for Inactive)
REMARK    1  A    between atoms: C2_2  and  C3_3 
REMARK    2  A    between atoms: C4_4  and  C5_5 
REMARK    3  A    between atoms: C4_4  and  C8_8 
REMARK    4  A    between atoms: C5_5  and  C6_6 
REMARK    5  A    between atoms: C10_10  and  C11_11 
REMARK    6  A    between atoms: C11_11  and  C12_12 
REMARK    7  A    between atoms: C11_11  and  O2_15 
REMARK    8  A    between atoms: C12_12  and  O1_13 
REMARK    9  A    between atoms: O2_15  and  C13_16 
ROOT
HETATM    1  C8  UNL     1     -46.399  68.982  -7.769  1.00  0.00    -0.024 A 
HETATM    2  C9  UNL     1     -46.714  70.345  -7.527  1.00  0.00     0.022 A 
HETATM    3  C10 UNL     1     -46.484  70.976  -6.315  1.00  0.00    -0.026 A 
HETATM    4  C15 UNL     1     -45.916  70.198  -5.328  1.00  0.00     0.010 A 
HETATM    5  C16 UNL     1     -45.591  68.865  -5.530  1.00  0.00     0.008 A 
HETATM    6  C17 UNL     1     -45.841  68.245  -6.791  1.00  0.00    -0.051 A 
HETATM    7  C18 UNL     1     -45.311  66.887  -6.947  1.00  0.00     0.049 C 
ENDROOT
BRANCH   1   8
HETATM    8  C4  UNL     1     -46.886  68.367  -9.070  1.00  0.00    -0.051 C 
HETATM    9  C3  UNL     1     -48.284  68.008  -8.979  1.00  0.00    -0.019 C 
BRANCH   9  10
HETATM   10  C2  UNL     1     -49.057  66.901  -9.491  1.00  0.00     0.023 C 
HETATM   11  C1  UNL     1     -49.465  67.012 -10.945  1.00  0.00     0.009 C 
ENDBRANCH   9  10
BRANCH   8  12
HETATM   12  C5  UNL     1     -46.020  68.518 -10.225  1.00  0.00     0.039 C 
BRANCH  12  13
HETATM   13  C6  UNL     1     -44.614  69.056  -9.956  1.00  0.00     0.000 C 
HETATM   14  C7  UNL     1     -44.445  70.505 -10.300  1.00  0.00     0.005 C 
ENDBRANCH  12  13
ENDBRANCH   8  12
ENDBRANCH   1   8
BRANCH   3  15
HETATM   15  C11 UNL     1     -46.889  72.384  -6.086  1.00  0.00     0.177 C 
BRANCH  15  16
HETATM   16  C12 UNL     1     -45.883  73.179  -5.282  1.00  0.00     0.201 C 
BRANCH  16  17
HETATM   17  O1  UNL     1     -45.117  73.949  -6.146  1.00  0.00    -0.398 OA
ATOM     18  H1  UNL     1     -44.433  74.384  -5.651  1.00  0.00     0.209 HD
ENDBRANCH  16  17
ENDBRANCH  15  16
BRANCH  15  19
HETATM   19  O2  UNL     1     -48.100  72.396  -5.416  1.00  0.00    -0.379 OA
BRANCH  19  20
HETATM   20  C13 UNL     1     -49.015  73.287  -5.942  1.00  0.00     0.164 C 
HETATM   21  C14 UNL     1     -49.676  72.544  -7.108  1.00  0.00     0.033 C 
ENDBRANCH  19  20
ENDBRANCH  15  19
ENDBRANCH   3  15
TORSDOF 9
ENDMDL
MODEL 3
REMARK VINA RESULT: -7.104843186      2.706      5.794
REMARK  9 active torsions:
REMARK  status: ('A' for Active; 'I' for Inactive)
REMARK    1  A    between atoms: C2_2  and  C3_3 
REMARK    2  A    between atoms: C4_4  and  C5_5 
REMARK    3  A    between atoms: C4_4  and  C8_8 
REMARK    4  A    between atoms: C5_5  and  C6_6 
REMARK    5  A    between atoms: C10_10  and  C11_11 
REMARK    6  A    between atoms: C11_11  and  C12_12 
REMARK    7  A    between atoms: C11_11  and  O2_15 
REMARK    8  A    between atoms: C12_12  and  O1_13 
REMARK    9  A    between atoms: O2_15  and  C13_16 
ROOT
HETATM    1  C8  UNL     1     -46.439  68.975  -7.681  1.00  0.00    -0.024 A 
HETATM    2  C9  UNL     1     -46.730  70.338  -7.412  1.00  0.00     0.022 A 
HETATM    3  C10 UNL     1     -46.461  70.947  -6.196  1.00  0.00    -0.026 A 
HETATM    4  C15 UNL     1     -45.881  70.147  -5.235  1.00  0.00     0.010 A 
HETATM    5  C16 UNL     1     -45.580  68.813  -5.464  1.00  0.00     0.008 A 
HETATM    6  C17 UNL     1     -45.869  68.216  -6.728  1.00  0.00    -0.051 A 
HETATM    7  C18 UNL     1     -45.363  66.852  -6.917  1.00  0.00     0.049 C 
ENDROOT
BRANCH   1   8
HETATM    8  C4  UNL     1     -46.966  68.387  -8.980  1.00  0.00    -0.051 C 
HETATM    9  C3  UNL     1     -48.410  68.308  -8.961  1.00  0.00    -0.019 C 
BRANCH   9  10
HETATM   10  C2  UNL     1     -49.356  67.340  -9.466  1.00  0.00     0.023 C 
HETATM   11  C1  UNL     1     -49.606  67.397 -10.959  1.00  0.00     0.009 C 
ENDBRANCH   9  10
BRANCH   8  12
HETATM   12  C5  UNL     1     -46.027  68.299 -10.082  1.00  0.00     0.039 C 
BRANCH  12  13
HETATM   13  C6  UNL     1     -45.053  69.467 -10.241  1.00  0.00     0.000 C 
HETATM   14  C7  UNL     1     -43.667  69.170  -9.753  1.00  0.00     0.005 C 
ENDBRANCH  12  13
ENDBRANCH   8  12
ENDBRANCH   1   8
BRANCH   3  15
HETATM   15  C11 UNL     1     -46.840  72.358  -5.937  1.00  0.00     0.177 C 
BRANCH  15  16
HETATM   16  C12 UNL     1     -48.337  72.576  -5.860  1.00  0.00     0.201 C 
BRANCH  16  17
HETATM   17  O1  UNL     1     -48.691  73.600  -6.727  1.00  0.00    -0.398 OA
ATOM     18  H1  UNL     1     -49.530  73.957  -6.460  1.00  0.00     0.209 HD
ENDBRANCH  16  17
ENDBRANCH  15  16
BRANCH  15  19
HETATM   19  O2  UNL     1     -46.330  73.150  -6.950  1.00  0.00    -0.379 OA
BRANCH  19  20
HETATM   20  C13 UNL     1     -44.965  73.345  -6.866  1.00  0.00     0.164 C 
HETATM   21  C14 UNL     1     -44.440  73.137  -8.291  1.00  0.00     0.033 C 
ENDBRANCH  19  20
ENDBRANCH  15  19
ENDBRANCH   3  15
TORSDOF 9
ENDMDL
MODEL 4
REMARK VINA RESULT: -7.008713112      0.968      1.116
REMARK  9 active torsions:
REMARK  status: ('A' for Active; 'I' for Inactive)
REMARK    1  A    between atoms: C2_2  and  C3_3 
REMARK    2  A    between atoms: C4_4  and  C5_5 
REMARK    3  A    between atoms: C4_4  and  C8_8 
REMARK    4  A    between atoms: C5_5  and  C6_6 
REMARK    5  A    between atoms: C10_10  and  C11_11 
REMARK    6  A    between atoms: C11_11  and  C12_12 
REMARK    7  A    between atoms: C11_11  and  O2_15 
REMARK    8  A    between atoms: C12_12  and  O1_13 
REMARK    9  A    between atoms: O2_15  and  C13_16 
ROOT
HETATM    1  C8  UNL     1     -45.611  70.309  -7.744  1.00  0.00    -0.024 A 
HETATM    2  C9  UNL     1     -46.271  69.123  -8.160  1.00  0.00     0.022 A 
HETATM    3  C10 UNL     1     -46.120  68.571  -9.422  1.00  0.00    -0.026 A 
HETATM    4  C15 UNL     1     -45.275  69.244 -10.278  1.00  0.00     0.010 A 
HETATM    5  C16 UNL     1     -44.610  70.403  -9.905  1.00  0.00     0.008 A 
HETATM    6  C17 UNL     1     -44.787  70.945  -8.597  1.00  0.00    -0.051 A 
HETATM    7  C18 UNL     1     -43.916  72.074  -8.254  1.00  0.00     0.049 C 
ENDROOT
BRANCH   1   8
HETATM    8  C4  UNL     1     -46.020  70.911  -6.410  1.00  0.00    -0.051 C 
HETATM    9  C3  UNL     1     -47.351  71.469  -6.483  1.00  0.00    -0.019 C 
BRANCH   9  10
HETATM   10  C2  UNL     1     -47.966  72.644  -5.909  1.00  0.00     0.023 C 
HETATM   11  C1  UNL     1     -49.438  72.822  -6.218  1.00  0.00     0.009 C 
ENDBRANCH   9  10
BRANCH   8  12
HETATM   12  C5  UNL     1     -45.196  70.572  -5.264  1.00  0.00     0.039 C 
BRANCH  12  13
HETATM   13  C6  UNL     1     -44.456  69.235  -5.330  1.00  0.00     0.000 C 
HETATM   14  C7  UNL     1     -45.272  68.069  -4.858  1.00  0.00     0.005 C 
ENDBRANCH  12  13
ENDBRANCH   8  12
ENDBRANCH   1   8
BRANCH   3  15
HETATM   15  C11 UNL     1     -46.880  67.366  -9.836  1.00  0.00     0.177 C 
BRANCH  15  16
HETATM   16  C12 UNL     1     -46.541  66.131  -9.028  1.00  0.00     0.201 C 
BRANCH  16  17
HETATM   17  O1  UNL     1     -45.208  65.804  -9.236  1.00  0.00    -0.398 OA
ATOM     18  H1  UNL     1     -44.979  65.994 -10.137  1.00  0.00     0.209 HD
ENDBRANCH  16  17
ENDBRANCH  15  16
BRANCH  15  19
HETATM   19  O2  UNL     1     -46.614  67.107 -11.169  1.00  0.00    -0.379 OA
BRANCH  19  20
HETATM   20  C13 UNL     1     -47.737  66.770 -11.901  1.00  0.00     0.164 C 
HETATM   21  C14 UNL     1     -48.885  67.561 -11.265  1.00  0.00     0.033 C 
ENDBRANCH  19  20
ENDBRANCH  15  19
ENDBRANCH   3  15
TORSDOF 9
ENDMDL
MODEL 5
REMARK VINA RESULT: -6.999188340      2.794      6.045
REMARK  9 active torsions:
REMARK  status: ('A' for Active; 'I' for Inactive)
REMARK    1  A    between atoms: C2_2  and  C3_3 
REMARK    2  A    between atoms: C4_4  and  C5_5 
REMARK    3  A    between atoms: C4_4  and  C8_8 
REMARK    4  A    between atoms: C5_5  and  C6_6 
REMARK    5  A    between atoms: C10_10  and  C11_11 
REMARK    6  A    between atoms: C11_11  and  C12_12 
REMARK    7  A    between atoms: C11_11  and  O2_15 
REMARK    8  A    between atoms: C12_12  and  O1_13 
REMARK    9  A    between atoms: O2_15  and  C13_16 
ROOT
HETATM    1  C8  UNL     1     -46.317  68.732  -7.519  1.00  0.00    -0.024 A 
HETATM    2  C9  UNL     1     -46.680  70.098  -7.388  1.00  0.00     0.022 A 
HETATM    3  C10 UNL     1     -46.369  70.865  -6.276  1.00  0.00    -0.026 A 
HETATM    4  C15 UNL     1     -45.670  70.223  -5.277  1.00  0.00     0.010 A 
HETATM    5  C16 UNL     1     -45.295  68.891  -5.371  1.00  0.00     0.008 A 
HETATM    6  C17 UNL     1     -45.631  68.129  -6.531  1.00  0.00    -0.051 A 
HETATM    7  C18 UNL     1     -45.047  66.785  -6.599  1.00  0.00     0.049 C 
ENDROOT
BRANCH   1   8
HETATM    8  C4  UNL     1     -46.893  67.961  -8.695  1.00  0.00    -0.051 C 
HETATM    9  C3  UNL     1     -46.065  68.118  -9.869  1.00  0.00    -0.019 C 
BRANCH   9  10
HETATM   10  C2  UNL     1     -46.359  68.250 -11.278  1.00  0.00     0.023 C 
HETATM   11  C1  UNL     1     -47.246  67.169 -11.858  1.00  0.00     0.009 C 
ENDBRANCH   9  10
BRANCH   8  12
HETATM   12  C5  UNL     1     -47.934  66.996  -8.393  1.00  0.00     0.039 C 
BRANCH  12  13
HETATM   13  C6  UNL     1     -49.299  67.245  -9.038  1.00  0.00     0.000 C 
HETATM   14  C7  UNL     1     -49.667  68.695  -9.136  1.00  0.00     0.005 C 
ENDBRANCH  12  13
ENDBRANCH   8  12
ENDBRANCH   1   8
BRANCH   3  15
HETATM   15  C11 UNL     1     -46.825  72.271  -6.154  1.00  0.00     0.177 C 
BRANCH  15  16
HETATM   16  C12 UNL     1     -45.893  73.139  -5.335  1.00  0.00     0.201 C 
BRANCH  16  17
HETATM   17  O1  UNL     1     -45.085  73.874  -6.193  1.00  0.00    -0.398 OA
ATOM     18  H1  UNL     1     -44.188  73.830  -5.887  1.00  0.00     0.209 HD
ENDBRANCH  16  17
ENDBRANCH  15  16
BRANCH  15  19
HETATM   19  O2  UNL     1     -48.075  72.284  -5.560  1.00  0.00    -0.379 OA
BRANCH  19  20
HETATM   20  C13 UNL     1     -48.958  73.168  -6.151  1.00  0.00     0.164 C 
HETATM   21  C14 UNL     1     -49.646  72.368  -7.263  1.00  0.00     0.033 C 
ENDBRANCH  19  20
ENDBRANCH  15  19
ENDBRANCH   3  15
TORSDOF 9
ENDMDL
