MODEL 1
REMARK VINA RESULT: -6.722810242      0.000      0.000
REMARK  8 active torsions:
REMARK  status: ('A' for Active; 'I' for Inactive)
REMARK    1  A    between atoms: C2_2  and  C3_3 
REMARK    2  A    between atoms: C3_3  and  C4_4 
REMARK    3  A    between atoms: C7_7  and  O1_8 
REMARK    4  A    between atoms: O1_8  and  C8_9 
REMARK    5  A    between atoms: C8_9  and  C9_10 
REMARK    6  A    between atoms: C9_10  and  C10_11 
REMARK    7  A    between atoms: C10_11  and  C11_12 
REMARK    8  A    between atoms: C11_12  and  O2_13 
ROOT
HETATM    1  O1  UNL     1     -44.238  68.391  -7.743  1.00  0.00    -0.350 OA
ENDROOT
BRANCH   1   2
HETATM    2  C7  UNL     1     -45.339  69.180  -7.521  1.00  0.00     0.077 A 
HETATM    3  C5  UNL     1     -45.553  70.125  -6.441  1.00  0.00    -0.025 A 
HETATM    4  C4  UNL     1     -46.729  70.724  -6.525  1.00  0.00    -0.064 A 
HETATM    5  C6  UNL     1     -44.585  70.434  -5.322  1.00  0.00     0.051 C 
HETATM    6  C18 UNL     1     -47.393  70.174  -7.736  1.00  0.00     0.071 A 
HETATM    7  C16 UNL     1     -46.412  69.204  -8.283  1.00  0.00    -0.046 A 
HETATM    8  C17 UNL     1     -46.689  68.413  -9.523  1.00  0.00     0.046 C 
BRANCH   4   9
HETATM    9  C3  UNL     1     -47.325  71.747  -5.625  1.00  0.00     0.061 C 
BRANCH   9  10
HETATM   10  C2  UNL     1     -48.690  72.137  -6.066  1.00  0.00    -0.033 C 
HETATM   11  C1  UNL     1     -49.245  73.242  -5.597  1.00  0.00     0.007 C 
ENDBRANCH   9  10
ENDBRANCH   4   9
ENDBRANCH   1   2
BRANCH   1  12
HETATM   12  C8  UNL     1     -43.001  68.911  -8.246  1.00  0.00     0.176 C 
BRANCH  12  13
HETATM   13  C9  UNL     1     -43.312  69.640  -9.503  1.00  0.00     0.038 C 
BRANCH  13  14
HETATM   14  C10 UNL     1     -42.705  70.997  -9.616  1.00  0.00    -0.017 C 
HETATM   15  C12 UNL     1     -42.650  71.712  -8.294  1.00  0.00     0.012 C 
HETATM   16  C13 UNL     1     -43.826  72.637  -8.226  1.00  0.00     0.001 C 
HETATM   17  C14 UNL     1     -44.658  72.289  -9.442  1.00  0.00     0.001 C 
HETATM   18  C15 UNL     1     -43.575  71.908 -10.446  1.00  0.00     0.012 C 
BRANCH  14  19
HETATM   19  C11 UNL     1     -41.314  70.987 -10.187  1.00  0.00     0.173 C 
BRANCH  19  20
HETATM   20  O2  UNL     1     -41.335  71.840 -11.310  1.00  0.00    -0.400 OA
ATOM     21  H2  UNL     1     -40.458  72.196 -11.396  1.00  0.00     0.209 HD
ENDBRANCH  19  20
ENDBRANCH  14  19
ENDBRANCH  13  14
ENDBRANCH  12  13
ENDBRANCH   1  12
TORSDOF 8
ENDMDL
MODEL 2
REMARK VINA RESULT: -6.685705024      1.993      4.047
REMARK  8 active torsions:
REMARK  status: ('A' for Active; 'I' for Inactive)
REMARK    1  A    between atoms: C2_2  and  C3_3 
REMARK    2  A    between atoms: C3_3  and  C4_4 
REMARK    3  A    between atoms: C7_7  and  O1_8 
REMARK    4  A    between atoms: O1_8  and  C8_9 
REMARK    5  A    between atoms: C8_9  and  C9_10 
REMARK    6  A    between atoms: C9_10  and  C10_11 
REMARK    7  A    between atoms: C10_11  and  C11_12 
REMARK    8  A    between atoms: C11_12  and  O2_13 
ROOT
HETATM    1  O1  UNL     1     -43.765  70.713  -7.870  1.00  0.00    -0.350 OA
ENDROOT
BRANCH   1   2
HETATM    2  C7  UNL     1     -44.761  70.973  -6.963  1.00  0.00     0.077 A 
HETATM    3  C5  UNL     1     -45.853  71.921  -7.086  1.00  0.00    -0.025 A 
HETATM    4  C4  UNL     1     -46.640  71.921  -6.023  1.00  0.00    -0.064 A 
HETATM    5  C6  UNL     1     -46.114  72.830  -8.265  1.00  0.00     0.051 C 
HETATM    6  C18 UNL     1     -46.077  70.914  -5.087  1.00  0.00     0.071 A 
HETATM    7  C16 UNL     1     -44.887  70.380  -5.794  1.00  0.00    -0.046 A 
HETATM    8  C17 UNL     1     -44.015  69.323  -5.191  1.00  0.00     0.046 C 
BRANCH   4   9
HETATM    9  C3  UNL     1     -47.854  72.736  -5.758  1.00  0.00     0.061 C 
BRANCH   9  10
HETATM   10  C2  UNL     1     -49.089  72.042  -6.208  1.00  0.00    -0.033 C 
HETATM   11  C1  UNL     1     -49.703  72.435  -7.313  1.00  0.00     0.007 C 
ENDBRANCH   9  10
ENDBRANCH   4   9
ENDBRANCH   1   2
BRANCH   1  12
HETATM   12  C8  UNL     1     -43.732  69.519  -8.663  1.00  0.00     0.176 C 
BRANCH  12  13
HETATM   13  C9  UNL     1     -45.089  69.344  -9.243  1.00  0.00     0.038 C 
BRANCH  13  14
HETATM   14  C10 UNL     1     -45.725  68.021  -8.980  1.00  0.00    -0.017 C 
HETATM   15  C12 UNL     1     -46.573  67.555 -10.131  1.00  0.00     0.012 C 
HETATM   16  C13 UNL     1     -47.997  67.901  -9.819  1.00  0.00     0.001 C 
HETATM   17  C14 UNL     1     -47.920  68.748  -8.566  1.00  0.00     0.001 C 
HETATM   18  C15 UNL     1     -46.725  68.121  -7.855  1.00  0.00     0.012 C 
BRANCH  14  19
HETATM   19  C11 UNL     1     -44.739  66.930  -8.669  1.00  0.00     0.173 C 
BRANCH  19  20
HETATM   20  O2  UNL     1     -45.320  65.725  -9.115  1.00  0.00    -0.400 OA
ATOM     21  H2  UNL     1     -44.828  65.454  -9.881  1.00  0.00     0.209 HD
ENDBRANCH  19  20
ENDBRANCH  14  19
ENDBRANCH  13  14
ENDBRANCH  12  13
ENDBRANCH   1  12
TORSDOF 8
ENDMDL
MODEL 3
REMARK VINA RESULT: -6.678947569      2.142      4.243
REMARK  8 active torsions:
REMARK  status: ('A' for Active; 'I' for Inactive)
REMARK    1  A    between atoms: C2_2  and  C3_3 
REMARK    2  A    between atoms: C3_3  and  C4_4 
REMARK    3  A    between atoms: C7_7  and  O1_8 
REMARK    4  A    between atoms: O1_8  and  C8_9 
REMARK    5  A    between atoms: C8_9  and  C9_10 
REMARK    6  A    between atoms: C9_10  and  C10_11 
REMARK    7  A    between atoms: C10_11  and  C11_12 
REMARK    8  A    between atoms: C11_12  and  O2_13 
ROOT
HETATM    1  O1  UNL     1     -43.339  68.691  -8.048  1.00  0.00    -0.350 OA
ENDROOT
BRANCH   1   2
HETATM    2  C7  UNL     1     -44.527  68.040  -8.269  1.00  0.00     0.077 A 
HETATM    3  C5  UNL     1     -45.415  68.171  -9.409  1.00  0.00    -0.025 A 
HETATM    4  C4  UNL     1     -46.481  67.395  -9.306  1.00  0.00    -0.064 A 
HETATM    5  C6  UNL     1     -45.202  69.070 -10.605  1.00  0.00     0.051 C 
HETATM    6  C18 UNL     1     -46.346  66.668  -8.017  1.00  0.00     0.071 A 
HETATM    7  C16 UNL     1     -45.066  67.162  -7.450  1.00  0.00    -0.046 A 
HETATM    8  C17 UNL     1     -44.545  66.676  -6.134  1.00  0.00     0.046 C 
BRANCH   4   9
HETATM    9  C3  UNL     1     -47.618  67.237 -10.251  1.00  0.00     0.061 C 
BRANCH   9  10
HETATM   10  C2  UNL     1     -48.928  67.334  -9.554  1.00  0.00    -0.033 C 
HETATM   11  C1  UNL     1     -49.368  68.509  -9.135  1.00  0.00     0.007 C 
ENDBRANCH   9  10
ENDBRANCH   4   9
ENDBRANCH   1   2
BRANCH   1  12
HETATM   12  C8  UNL     1     -43.252  70.113  -7.896  1.00  0.00     0.176 C 
BRANCH  12  13
HETATM   13  C9  UNL     1     -44.059  70.476  -6.703  1.00  0.00     0.038 C 
BRANCH  13  14
HETATM   14  C10 UNL     1     -44.923  71.680  -6.863  1.00  0.00    -0.017 C 
HETATM   15  C12 UNL     1     -45.687  72.006  -5.610  1.00  0.00     0.012 C 
HETATM   16  C13 UNL     1     -47.066  71.438  -5.754  1.00  0.00     0.001 C 
HETATM   17  C14 UNL     1     -47.010  70.613  -7.022  1.00  0.00     0.001 C 
HETATM   18  C15 UNL     1     -46.025  71.421  -7.861  1.00  0.00     0.012 C 
BRANCH  14  19
HETATM   19  C11 UNL     1     -44.168  72.913  -7.271  1.00  0.00     0.173 C 
BRANCH  19  20
HETATM   20  O2  UNL     1     -44.916  74.015  -6.807  1.00  0.00    -0.400 OA
ATOM     21  H2  UNL     1     -44.316  74.559  -6.309  1.00  0.00     0.209 HD
ENDBRANCH  19  20
ENDBRANCH  14  19
ENDBRANCH  13  14
ENDBRANCH  12  13
ENDBRANCH   1  12
TORSDOF 8
ENDMDL
MODEL 4
REMARK VINA RESULT: -6.627270412      2.115      4.177
REMARK  8 active torsions:
REMARK  status: ('A' for Active; 'I' for Inactive)
REMARK    1  A    between atoms: C2_2  and  C3_3 
REMARK    2  A    between atoms: C3_3  and  C4_4 
REMARK    3  A    between atoms: C7_7  and  O1_8 
REMARK    4  A    between atoms: O1_8  and  C8_9 
REMARK    5  A    between atoms: C8_9  and  C9_10 
REMARK    6  A    between atoms: C9_10  and  C10_11 
REMARK    7  A    between atoms: C10_11  and  C11_12 
REMARK    8  A    between atoms: C11_12  and  O2_13 
ROOT
HETATM    1  O1  UNL     1     -44.143  67.491  -9.213  1.00  0.00    -0.350 OA
ENDROOT
BRANCH   1   2
HETATM    2  C7  UNL     1     -45.505  67.485  -9.048  1.00  0.00     0.077 A 
HETATM    3  C5  UNL     1     -46.522  67.847 -10.018  1.00  0.00    -0.025 A 
HETATM    4  C4  UNL     1     -47.745  67.728  -9.530  1.00  0.00    -0.064 A 
HETATM    5  C6  UNL     1     -46.276  68.312 -11.435  1.00  0.00     0.051 C 
HETATM    6  C18 UNL     1     -47.593  67.253  -8.130  1.00  0.00     0.071 A 
HETATM    7  C16 UNL     1     -46.126  67.136  -7.940  1.00  0.00    -0.046 A 
HETATM    8  C17 UNL     1     -45.530  66.682  -6.645  1.00  0.00     0.046 C 
BRANCH   4   9
HETATM    9  C3  UNL     1     -49.048  67.997 -10.195  1.00  0.00     0.061 C 
BRANCH   9  10
HETATM   10  C2  UNL     1     -49.506  66.832 -10.996  1.00  0.00    -0.033 C 
HETATM   11  C1  UNL     1     -50.112  67.025 -12.156  1.00  0.00     0.007 C 
ENDBRANCH   9  10
ENDBRANCH   4   9
ENDBRANCH   1   2
BRANCH   1  12
HETATM   12  C8  UNL     1     -43.302  68.522  -8.679  1.00  0.00     0.176 C 
BRANCH  12  13
HETATM   13  C9  UNL     1     -43.860  69.821  -9.136  1.00  0.00     0.038 C 
BRANCH  13  14
HETATM   14  C10 UNL     1     -43.935  70.882  -8.091  1.00  0.00    -0.017 C 
HETATM   15  C12 UNL     1     -44.156  70.315  -6.716  1.00  0.00     0.012 C 
HETATM   16  C13 UNL     1     -45.620  70.414  -6.411  1.00  0.00     0.001 C 
HETATM   17  C14 UNL     1     -46.253  70.860  -7.712  1.00  0.00     0.001 C 
HETATM   18  C15 UNL     1     -45.154  71.747  -8.290  1.00  0.00     0.012 C 
BRANCH  14  19
HETATM   19  C11 UNL     1     -42.713  71.756  -8.033  1.00  0.00     0.173 C 
BRANCH  19  20
HETATM   20  O2  UNL     1     -43.149  73.072  -8.287  1.00  0.00    -0.400 OA
ATOM     21  H2  UNL     1     -42.796  73.613  -7.590  1.00  0.00     0.209 HD
ENDBRANCH  19  20
ENDBRANCH  14  19
ENDBRANCH  13  14
ENDBRANCH  12  13
ENDBRANCH   1  12
TORSDOF 8
ENDMDL
MODEL 5
REMARK VINA RESULT: -6.553511998      1.818      4.290
REMARK  8 active torsions:
REMARK  status: ('A' for Active; 'I' for Inactive)
REMARK    1  A    between atoms: C2_2  and  C3_3 
REMARK    2  A    between atoms: C3_3  and  C4_4 
REMARK    3  A    between atoms: C7_7  and  O1_8 
REMARK    4  A    between atoms: O1_8  and  C8_9 
REMARK    5  A    between atoms: C8_9  and  C9_10 
REMARK    6  A    between atoms: C9_10  and  C10_11 
REMARK    7  A    between atoms: C10_11  and  C11_12 
REMARK    8  A    between atoms: C11_12  and  O2_13 
ROOT
HETATM    1  O1  UNL     1     -43.808  69.431  -8.370  1.00  0.00    -0.350 OA
ENDROOT
BRANCH   1   2
HETATM    2  C7  UNL     1     -44.714  70.371  -7.947  1.00  0.00     0.077 A 
HETATM    3  C5  UNL     1     -45.529  70.345  -6.746  1.00  0.00    -0.025 A 
HETATM    4  C4  UNL     1     -46.299  71.415  -6.640  1.00  0.00    -0.064 A 
HETATM    5  C6  UNL     1     -45.541  69.254  -5.701  1.00  0.00     0.051 C 
HETATM    6  C18 UNL     1     -46.018  72.253  -7.834  1.00  0.00     0.071 A 
HETATM    7  C16 UNL     1     -44.996  71.485  -8.588  1.00  0.00    -0.046 A 
HETATM    8  C17 UNL     1     -44.426  71.982  -9.880  1.00  0.00     0.046 C 
BRANCH   4   9
HETATM    9  C3  UNL     1     -47.269  71.767  -5.569  1.00  0.00     0.061 C 
BRANCH   9  10
HETATM   10  C2  UNL     1     -48.603  72.109  -6.130  1.00  0.00    -0.033 C 
HETATM   11  C1  UNL     1     -49.297  73.112  -5.618  1.00  0.00     0.007 C 
ENDBRANCH   9  10
ENDBRANCH   4   9
ENDBRANCH   1   2
BRANCH   1  12
HETATM   12  C8  UNL     1     -44.203  68.181  -8.950  1.00  0.00     0.176 C 
BRANCH  12  13
HETATM   13  C9  UNL     1     -45.552  68.381  -9.542  1.00  0.00     0.038 C 
BRANCH  13  14
HETATM   14  C10 UNL     1     -46.521  67.275  -9.299  1.00  0.00    -0.017 C 
HETATM   15  C12 UNL     1     -47.405  67.017 -10.488  1.00  0.00     0.012 C 
HETATM   16  C13 UNL     1     -48.704  67.726 -10.255  1.00  0.00     0.001 C 
HETATM   17  C14 UNL     1     -48.470  68.553  -9.008  1.00  0.00     0.001 C 
HETATM   18  C15 UNL     1     -47.514  67.655  -8.228  1.00  0.00     0.012 C 
BRANCH  14  19
HETATM   19  C11 UNL     1     -45.868  65.973  -8.926  1.00  0.00     0.173 C 
BRANCH  19  20
HETATM   20  O2  UNL     1     -46.267  65.687  -7.604  1.00  0.00    -0.400 OA
ATOM     21  H2  UNL     1     -47.196  65.885  -7.553  1.00  0.00     0.209 HD
ENDBRANCH  19  20
ENDBRANCH  14  19
ENDBRANCH  13  14
ENDBRANCH  12  13
ENDBRANCH   1  12
TORSDOF 8
ENDMDL
