MODEL 1
REMARK VINA RESULT: -7.589312704      0.000      0.000
REMARK  7 active torsions:
REMARK  status: ('A' for Active; 'I' for Inactive)
REMARK    1  A    between atoms: C3_3  and  C4_4 
REMARK    2  A    between atoms: C3_3  and  C5_6 
REMARK    3  A    between atoms: C6_7  and  C7_8 
REMARK    4  A    between atoms: C6_7  and  O2_16 
REMARK    5  A    between atoms: C7_8  and  C8_9 
REMARK    6  A    between atoms: O2_16  and  C15_17 
REMARK    7  A    between atoms: C15_17  and  C16_18 
ROOT
HETATM    1  C5  UNL     1     -45.377  71.094  -7.807  1.00  0.00     0.046 C 
HETATM    2  C6  UNL     1     -46.250  70.275  -7.381  1.00  0.00     0.047 C 
ENDROOT
BRANCH   2   3
HETATM    3  C7  UNL     1     -46.702  68.947  -7.736  1.00  0.00     0.070 C 
BRANCH   3   4
HETATM    4  C8  UNL     1     -47.305  68.873  -9.107  1.00  0.00     0.002 C 
HETATM    5  C9  UNL     1     -46.368  68.271 -10.169  1.00  0.00     0.084 C 
HETATM    6  C10 UNL     1     -47.197  67.571 -11.078  1.00  0.00    -0.183 C 
HETATM    7  C11 UNL     1     -48.108  66.911 -11.909  1.00  0.00     0.080 C 
HETATM    8  C12 UNL     1     -49.496  66.976 -11.177  1.00  0.00     0.011 C 
HETATM    9  C13 UNL     1     -49.533  68.059 -10.120  1.00  0.00     0.001 C 
HETATM   10  C14 UNL     1     -48.616  68.108  -9.000  1.00  0.00     0.006 C 
ENDBRANCH   3   4
ENDBRANCH   2   3
BRANCH   2  11
HETATM   11  O2  UNL     1     -46.991  70.814  -6.232  1.00  0.00    -0.355 OA
BRANCH  11  12
HETATM   12  C15 UNL     1     -47.439  72.151  -6.360  1.00  0.00     0.179 C 
BRANCH  12  13
HETATM   13  C16 UNL     1     -48.937  72.119  -6.152  1.00  0.00     0.002 C 
HETATM   14  C17 UNL     1     -49.351  73.305  -5.327  1.00  0.00     0.011 C 
HETATM   15  C18 UNL     1     -49.584  72.118  -7.525  1.00  0.00     0.011 C 
ENDBRANCH  12  13
ENDBRANCH  11  12
ENDBRANCH   2  11
BRANCH   1  16
HETATM   16  C3  UNL     1     -44.384  71.148  -8.846  1.00  0.00    -0.000 C 
HETATM   17  C2  UNL     1     -44.446  72.227  -9.699  1.00  0.00    -0.017 C 
HETATM   18  C1  UNL     1     -43.490  72.428 -10.792  1.00  0.00     0.037 C 
BRANCH  16  19
HETATM   19  C4  UNL     1     -43.292  70.268  -9.151  1.00  0.00     0.269 C 
HETATM   20  O1  UNL     1     -42.322  69.948  -8.475  1.00  0.00    -0.301 OA
ENDBRANCH  16  19
ENDBRANCH   1  16
TORSDOF 7
ENDMDL
MODEL 2
REMARK VINA RESULT: -7.527723980      1.004      1.408
REMARK  7 active torsions:
REMARK  status: ('A' for Active; 'I' for Inactive)
REMARK    1  A    between atoms: C3_3  and  C4_4 
REMARK    2  A    between atoms: C3_3  and  C5_6 
REMARK    3  A    between atoms: C6_7  and  C7_8 
REMARK    4  A    between atoms: C6_7  and  O2_16 
REMARK    5  A    between atoms: C7_8  and  C8_9 
REMARK    6  A    between atoms: O2_16  and  C15_17 
REMARK    7  A    between atoms: C15_17  and  C16_18 
ROOT
HETATM    1  C5  UNL     1     -45.148  70.740  -7.886  1.00  0.00     0.046 C 
HETATM    2  C6  UNL     1     -46.124  70.050  -7.454  1.00  0.00     0.047 C 
ENDROOT
BRANCH   2   3
HETATM    3  C7  UNL     1     -46.742  68.786  -7.789  1.00  0.00     0.070 C 
BRANCH   3   4
HETATM    4  C8  UNL     1     -47.344  68.766  -9.163  1.00  0.00     0.002 C 
HETATM    5  C9  UNL     1     -46.428  68.153 -10.237  1.00  0.00     0.084 C 
HETATM    6  C10 UNL     1     -47.281  67.506 -11.163  1.00  0.00    -0.183 C 
HETATM    7  C11 UNL     1     -48.215  66.900 -12.010  1.00  0.00     0.080 C 
HETATM    8  C12 UNL     1     -49.601  67.003 -11.279  1.00  0.00     0.011 C 
HETATM    9  C13 UNL     1     -49.599  68.062 -10.198  1.00  0.00     0.001 C 
HETATM   10  C14 UNL     1     -48.684  68.050  -9.075  1.00  0.00     0.006 C 
ENDBRANCH   3   4
ENDBRANCH   2   3
BRANCH   2  11
HETATM   11  O2  UNL     1     -46.798  70.704  -6.323  1.00  0.00    -0.355 OA
BRANCH  11  12
HETATM   12  C15 UNL     1     -47.285  72.011  -6.567  1.00  0.00     0.179 C 
BRANCH  12  13
HETATM   13  C16 UNL     1     -48.758  71.986  -6.225  1.00  0.00     0.002 C 
HETATM   14  C17 UNL     1     -49.150  73.301  -5.613  1.00  0.00     0.011 C 
HETATM   15  C18 UNL     1     -49.516  71.698  -7.508  1.00  0.00     0.011 C 
ENDBRANCH  12  13
ENDBRANCH  11  12
ENDBRANCH   2  11
BRANCH   1  16
HETATM   16  C3  UNL     1     -44.148  70.645  -8.915  1.00  0.00    -0.000 C 
HETATM   17  C2  UNL     1     -43.169  69.695  -8.734  1.00  0.00    -0.017 C 
HETATM   18  C1  UNL     1     -42.096  69.469  -9.707  1.00  0.00     0.037 C 
BRANCH  16  19
HETATM   19  C4  UNL     1     -43.993  71.368 -10.145  1.00  0.00     0.269 C 
HETATM   20  O1  UNL     1     -44.462  72.444 -10.494  1.00  0.00    -0.301 OA
ENDBRANCH  16  19
ENDBRANCH   1  16
TORSDOF 7
ENDMDL
MODEL 3
REMARK VINA RESULT: -7.425705580      1.874      3.154
REMARK  7 active torsions:
REMARK  status: ('A' for Active; 'I' for Inactive)
REMARK    1  A    between atoms: C3_3  and  C4_4 
REMARK    2  A    between atoms: C3_3  and  C5_6 
REMARK    3  A    between atoms: C6_7  and  C7_8 
REMARK    4  A    between atoms: C6_7  and  O2_16 
REMARK    5  A    between atoms: C7_8  and  C8_9 
REMARK    6  A    between atoms: O2_16  and  C15_17 
REMARK    7  A    between atoms: C15_17  and  C16_18 
ROOT
HETATM    1  C5  UNL     1     -45.558  69.625  -5.494  1.00  0.00     0.046 C 
HETATM    2  C6  UNL     1     -46.261  70.281  -6.324  1.00  0.00     0.047 C 
ENDROOT
BRANCH   2   3
HETATM    3  C7  UNL     1     -46.460  70.283  -7.757  1.00  0.00     0.070 C 
BRANCH   3   4
HETATM    4  C8  UNL     1     -47.063  69.010  -8.273  1.00  0.00     0.002 C 
HETATM    5  C9  UNL     1     -48.593  69.064  -8.431  1.00  0.00     0.084 C 
HETATM    6  C10 UNL     1     -48.904  68.250  -9.548  1.00  0.00    -0.183 C 
HETATM    7  C11 UNL     1     -49.096  67.428 -10.662  1.00  0.00     0.080 C 
HETATM    8  C12 UNL     1     -47.664  67.113 -11.226  1.00  0.00     0.011 C 
HETATM    9  C13 UNL     1     -46.579  67.368 -10.202  1.00  0.00     0.001 C 
HETATM   10  C14 UNL     1     -46.363  68.657  -9.577  1.00  0.00     0.006 C 
ENDBRANCH   3   4
ENDBRANCH   2   3
BRANCH   2  11
HETATM   11  O2  UNL     1     -47.085  71.300  -5.658  1.00  0.00    -0.355 OA
BRANCH  11  12
HETATM   12  C15 UNL     1     -47.648  72.287  -6.503  1.00  0.00     0.179 C 
BRANCH  12  13
HETATM   13  C16 UNL     1     -49.126  72.330  -6.180  1.00  0.00     0.002 C 
HETATM   14  C17 UNL     1     -49.408  73.513  -5.298  1.00  0.00     0.011 C 
HETATM   15  C18 UNL     1     -49.875  72.400  -7.498  1.00  0.00     0.011 C 
ENDBRANCH  12  13
ENDBRANCH  11  12
ENDBRANCH   2  11
BRANCH   1  16
HETATM   16  C3  UNL     1     -44.602  68.551  -5.521  1.00  0.00    -0.000 C 
HETATM   17  C2  UNL     1     -45.091  67.286  -5.289  1.00  0.00    -0.017 C 
HETATM   18  C1  UNL     1     -44.241  66.092  -5.305  1.00  0.00     0.037 C 
BRANCH  16  19
HETATM   19  C4  UNL     1     -43.189  68.557  -5.776  1.00  0.00     0.269 C 
HETATM   20  O1  UNL     1     -42.570  68.866  -6.786  1.00  0.00    -0.301 OA
ENDBRANCH  16  19
ENDBRANCH   1  16
TORSDOF 7
ENDMDL
MODEL 4
REMARK VINA RESULT: -7.384691438      2.648      6.025
REMARK  7 active torsions:
REMARK  status: ('A' for Active; 'I' for Inactive)
REMARK    1  A    between atoms: C3_3  and  C4_4 
REMARK    2  A    between atoms: C3_3  and  C5_6 
REMARK    3  A    between atoms: C6_7  and  C7_8 
REMARK    4  A    between atoms: C6_7  and  O2_16 
REMARK    5  A    between atoms: C7_8  and  C8_9 
REMARK    6  A    between atoms: O2_16  and  C15_17 
REMARK    7  A    between atoms: C15_17  and  C16_18 
ROOT
HETATM    1  C5  UNL     1     -47.015  66.972  -9.602  1.00  0.00     0.046 C 
HETATM    2  C6  UNL     1     -45.920  67.382  -9.105  1.00  0.00     0.047 C 
ENDROOT
BRANCH   2   3
HETATM    3  C7  UNL     1     -44.852  68.269  -9.512  1.00  0.00     0.070 C 
BRANCH   3   4
HETATM    4  C8  UNL     1     -45.254  69.714  -9.527  1.00  0.00     0.002 C 
HETATM    5  C9  UNL     1     -45.896  70.196  -8.214  1.00  0.00     0.084 C 
HETATM    6  C10 UNL     1     -45.512  71.550  -8.060  1.00  0.00    -0.183 C 
HETATM    7  C11 UNL     1     -45.071  72.876  -8.007  1.00  0.00     0.080 C 
HETATM    8  C12 UNL     1     -44.025  73.037  -9.168  1.00  0.00     0.011 C 
HETATM    9  C13 UNL     1     -44.156  71.946 -10.209  1.00  0.00     0.001 C 
HETATM   10  C14 UNL     1     -44.030  70.535  -9.903  1.00  0.00     0.006 C 
ENDBRANCH   3   4
ENDBRANCH   2   3
BRANCH   2  11
HETATM   11  O2  UNL     1     -45.676  66.811  -7.773  1.00  0.00    -0.355 OA
BRANCH  11  12
HETATM   12  C15 UNL     1     -44.317  66.690  -7.393  1.00  0.00     0.179 C 
BRANCH  12  13
HETATM   13  C16 UNL     1     -44.210  67.283  -6.005  1.00  0.00     0.002 C 
HETATM   14  C17 UNL     1     -43.321  68.493  -6.047  1.00  0.00     0.011 C 
HETATM   15  C18 UNL     1     -45.618  67.618  -5.546  1.00  0.00     0.011 C 
ENDBRANCH  12  13
ENDBRANCH  11  12
ENDBRANCH   2  11
BRANCH   1  16
HETATM   16  C3  UNL     1     -47.773  67.159 -10.810  1.00  0.00    -0.000 C 
HETATM   17  C2  UNL     1     -49.116  67.419 -10.657  1.00  0.00    -0.017 C 
HETATM   18  C1  UNL     1     -50.012  67.652 -11.794  1.00  0.00     0.037 C 
BRANCH  16  19
HETATM   19  C4  UNL     1     -47.368  67.145 -12.187  1.00  0.00     0.269 C 
HETATM   20  O1  UNL     1     -47.051  66.208 -12.907  1.00  0.00    -0.301 OA
ENDBRANCH  16  19
ENDBRANCH   1  16
TORSDOF 7
ENDMDL
MODEL 5
REMARK VINA RESULT: -7.356131724      2.669      5.959
REMARK  7 active torsions:
REMARK  status: ('A' for Active; 'I' for Inactive)
REMARK    1  A    between atoms: C3_3  and  C4_4 
REMARK    2  A    between atoms: C3_3  and  C5_6 
REMARK    3  A    between atoms: C6_7  and  C7_8 
REMARK    4  A    between atoms: C6_7  and  O2_16 
REMARK    5  A    between atoms: C7_8  and  C8_9 
REMARK    6  A    between atoms: O2_16  and  C15_17 
REMARK    7  A    between atoms: C15_17  and  C16_18 
ROOT
HETATM    1  C5  UNL     1     -46.929  66.889 -10.007  1.00  0.00     0.046 C 
HETATM    2  C6  UNL     1     -46.483  67.600  -9.053  1.00  0.00     0.047 C 
ENDROOT
BRANCH   2   3
HETATM    3  C7  UNL     1     -46.622  68.972  -8.616  1.00  0.00     0.070 C 
BRANCH   3   4
HETATM    4  C8  UNL     1     -45.362  69.773  -8.765  1.00  0.00     0.002 C 
HETATM    5  C9  UNL     1     -44.868  69.894 -10.218  1.00  0.00     0.084 C 
HETATM    6  C10 UNL     1     -44.263  71.169 -10.325  1.00  0.00    -0.183 C 
HETATM    7  C11 UNL     1     -43.694  72.447 -10.318  1.00  0.00     0.080 C 
HETATM    8  C12 UNL     1     -44.073  73.088  -8.935  1.00  0.00     0.011 C 
HETATM    9  C13 UNL     1     -44.488  72.046  -7.918  1.00  0.00     0.001 C 
HETATM   10  C14 UNL     1     -45.593  71.132  -8.122  1.00  0.00     0.006 C 
ENDBRANCH   3   4
ENDBRANCH   2   3
BRANCH   2  11
HETATM   11  O2  UNL     1     -45.600  66.832  -8.164  1.00  0.00    -0.355 OA
BRANCH  11  12
HETATM   12  C15 UNL     1     -45.977  66.798  -6.800  1.00  0.00     0.179 C 
BRANCH  12  13
HETATM   13  C16 UNL     1     -44.773  67.269  -6.014  1.00  0.00     0.002 C 
HETATM   14  C17 UNL     1     -45.214  68.257  -4.972  1.00  0.00     0.011 C 
HETATM   15  C18 UNL     1     -44.122  66.040  -5.405  1.00  0.00     0.011 C 
ENDBRANCH  12  13
ENDBRANCH  11  12
ENDBRANCH   2  11
BRANCH   1  16
HETATM   16  C3  UNL     1     -47.794  67.053 -11.144  1.00  0.00    -0.000 C 
HETATM   17  C2  UNL     1     -49.100  67.392 -10.878  1.00  0.00    -0.017 C 
HETATM   18  C1  UNL     1     -50.093  67.611 -11.935  1.00  0.00     0.037 C 
BRANCH  16  19
HETATM   19  C4  UNL     1     -47.528  66.945 -12.551  1.00  0.00     0.269 C 
HETATM   20  O1  UNL     1     -46.838  66.141 -13.165  1.00  0.00    -0.301 OA
ENDBRANCH  16  19
ENDBRANCH   1  16
TORSDOF 7
ENDMDL
