MODEL 1
REMARK VINA RESULT: -6.979147442      0.000      0.000
REMARK  8 active torsions:
REMARK  status: ('A' for Active; 'I' for Inactive)
REMARK    1  A    between atoms: C2_2  and  C3_3 
REMARK    2  A    between atoms: C3_3  and  C7_9 
REMARK    3  A    between atoms: C4_4  and  C6_6 
REMARK    4  A    between atoms: C6_6  and  O1_7 
REMARK    5  A    between atoms: C7_9  and  O2_10 
REMARK    6  A    between atoms: O2_10  and  C8_11 
REMARK    7  A    between atoms: C8_11  and  C9_12 
REMARK    8  A    between atoms: C9_12  and  C10_13 
ROOT
HETATM    1  C7  UNL     1     -45.272  70.171  -8.122  1.00  0.00     0.076 C 
HETATM    2  C16 UNL     1     -44.848  70.634  -9.253  1.00  0.00    -0.054 C 
HETATM    3  C17 UNL     1     -44.830  69.607 -10.403  1.00  0.00     0.046 C 
HETATM    4  C18 UNL     1     -44.363  71.948  -9.682  1.00  0.00     0.046 C 
ENDROOT
BRANCH   1   5
HETATM    5  C3  UNL     1     -45.437  70.794  -6.815  1.00  0.00    -0.021 C 
HETATM    6  C4  UNL     1     -46.207  71.820  -6.595  1.00  0.00    -0.051 C 
HETATM    7  C5  UNL     1     -46.108  72.543  -5.266  1.00  0.00     0.046 C 
BRANCH   5   8
HETATM    8  C2  UNL     1     -44.529  70.430  -5.671  1.00  0.00     0.037 C 
HETATM    9  C1  UNL     1     -43.213  69.886  -6.083  1.00  0.00     0.010 C 
ENDBRANCH   5   8
BRANCH   6  10
HETATM   10  C6  UNL     1     -47.333  72.288  -7.419  1.00  0.00     0.198 C 
BRANCH  10  11
HETATM   11  O1  UNL     1     -46.865  73.600  -7.869  1.00  0.00    -0.397 OA
ATOM     12  H1  UNL     1     -46.629  73.430  -8.774  1.00  0.00     0.209 HD
ENDBRANCH  10  11
ENDBRANCH   6  10
ENDBRANCH   1   5
BRANCH   1  13
HETATM   13  O2  UNL     1     -45.680  68.784  -8.154  1.00  0.00    -0.350 OA
BRANCH  13  14
HETATM   14  C8  UNL     1     -47.027  68.545  -7.697  1.00  0.00     0.176 C 
BRANCH  14  15
HETATM   15  C9  UNL     1     -47.790  67.591  -8.520  1.00  0.00     0.031 C 
BRANCH  15  16
HETATM   16  C10 UNL     1     -48.116  67.918  -9.920  1.00  0.00    -0.013 C 
HETATM   17  C11 UNL     1     -49.561  67.804 -10.259  1.00  0.00     0.005 C 
HETATM   18  C12 UNL     1     -49.871  67.021 -11.496  1.00  0.00     0.000 C 
HETATM   19  C13 UNL     1     -48.941  67.333 -12.650  1.00  0.00     0.000 C 
HETATM   20  C14 UNL     1     -47.491  67.214 -12.243  1.00  0.00     0.000 C 
HETATM   21  C15 UNL     1     -47.364  66.881 -10.774  1.00  0.00     0.005 C 
ENDBRANCH  15  16
ENDBRANCH  14  15
ENDBRANCH  13  14
ENDBRANCH   1  13
TORSDOF 8
ENDMDL
MODEL 2
REMARK VINA RESULT: -6.942342649      0.359      1.158
REMARK  8 active torsions:
REMARK  status: ('A' for Active; 'I' for Inactive)
REMARK    1  A    between atoms: C2_2  and  C3_3 
REMARK    2  A    between atoms: C3_3  and  C7_9 
REMARK    3  A    between atoms: C4_4  and  C6_6 
REMARK    4  A    between atoms: C6_6  and  O1_7 
REMARK    5  A    between atoms: C7_9  and  O2_10 
REMARK    6  A    between atoms: O2_10  and  C8_11 
REMARK    7  A    between atoms: C8_11  and  C9_12 
REMARK    8  A    between atoms: C9_12  and  C10_13 
ROOT
HETATM    1  C7  UNL     1     -45.301  70.244  -8.093  1.00  0.00     0.076 C 
HETATM    2  C16 UNL     1     -44.813  70.699  -9.201  1.00  0.00    -0.054 C 
HETATM    3  C17 UNL     1     -44.828  69.697 -10.372  1.00  0.00     0.046 C 
HETATM    4  C18 UNL     1     -44.229  71.987  -9.587  1.00  0.00     0.046 C 
ENDROOT
BRANCH   1   5
HETATM    5  C3  UNL     1     -45.464  70.850  -6.778  1.00  0.00    -0.021 C 
HETATM    6  C4  UNL     1     -46.218  71.885  -6.548  1.00  0.00    -0.051 C 
HETATM    7  C5  UNL     1     -46.116  72.587  -5.208  1.00  0.00     0.046 C 
BRANCH   5   8
HETATM    8  C2  UNL     1     -44.568  70.454  -5.634  1.00  0.00     0.037 C 
HETATM    9  C1  UNL     1     -43.229  69.971  -6.044  1.00  0.00     0.010 C 
ENDBRANCH   5   8
BRANCH   6  10
HETATM   10  C6  UNL     1     -47.332  72.383  -7.371  1.00  0.00     0.198 C 
BRANCH  10  11
HETATM   11  O1  UNL     1     -46.806  73.656  -7.868  1.00  0.00    -0.397 OA
ATOM     12  H1  UNL     1     -46.821  73.528  -8.809  1.00  0.00     0.209 HD
ENDBRANCH  10  11
ENDBRANCH   6  10
ENDBRANCH   1   5
BRANCH   1  13
HETATM   13  O2  UNL     1     -45.799  68.888  -8.168  1.00  0.00    -0.350 OA
BRANCH  13  14
HETATM   14  C8  UNL     1     -47.233  68.771  -8.075  1.00  0.00     0.176 C 
BRANCH  14  15
HETATM   15  C9  UNL     1     -47.743  67.395  -8.211  1.00  0.00     0.031 C 
BRANCH  15  16
HETATM   16  C10 UNL     1     -48.202  66.903  -9.523  1.00  0.00    -0.013 C 
HETATM   17  C11 UNL     1     -47.128  66.783 -10.545  1.00  0.00     0.005 C 
HETATM   18  C12 UNL     1     -47.432  67.402 -11.874  1.00  0.00     0.000 C 
HETATM   19  C13 UNL     1     -48.841  67.122 -12.354  1.00  0.00     0.000 C 
HETATM   20  C14 UNL     1     -49.868  67.478 -11.304  1.00  0.00     0.000 C 
HETATM   21  C15 UNL     1     -49.204  67.954 -10.034  1.00  0.00     0.005 C 
ENDBRANCH  15  16
ENDBRANCH  14  15
ENDBRANCH  13  14
ENDBRANCH   1  13
TORSDOF 8
ENDMDL
MODEL 3
REMARK VINA RESULT: -6.878818438      1.641      2.446
REMARK  8 active torsions:
REMARK  status: ('A' for Active; 'I' for Inactive)
REMARK    1  A    between atoms: C2_2  and  C3_3 
REMARK    2  A    between atoms: C3_3  and  C7_9 
REMARK    3  A    between atoms: C4_4  and  C6_6 
REMARK    4  A    between atoms: C6_6  and  O1_7 
REMARK    5  A    between atoms: C7_9  and  O2_10 
REMARK    6  A    between atoms: O2_10  and  C8_11 
REMARK    7  A    between atoms: C8_11  and  C9_12 
REMARK    8  A    between atoms: C9_12  and  C10_13 
ROOT
HETATM    1  C7  UNL     1     -43.536  70.668  -8.058  1.00  0.00     0.076 C 
HETATM    2  C16 UNL     1     -42.452  71.350  -8.241  1.00  0.00    -0.054 C 
HETATM    3  C17 UNL     1     -41.683  71.003  -9.530  1.00  0.00     0.046 C 
HETATM    4  C18 UNL     1     -41.781  72.397  -7.465  1.00  0.00     0.046 C 
ENDROOT
BRANCH   1   5
HETATM    5  C3  UNL     1     -44.528  70.682  -6.991  1.00  0.00    -0.021 C 
HETATM    6  C4  UNL     1     -45.232  71.729  -6.671  1.00  0.00    -0.051 C 
HETATM    7  C5  UNL     1     -46.042  71.708  -5.390  1.00  0.00     0.046 C 
BRANCH   5   8
HETATM    8  C2  UNL     1     -44.627  69.534  -6.021  1.00  0.00     0.037 C 
HETATM    9  C1  UNL     1     -43.336  69.127  -5.419  1.00  0.00     0.010 C 
ENDBRANCH   5   8
BRANCH   6  10
HETATM   10  C6  UNL     1     -45.508  72.910  -7.504  1.00  0.00     0.198 C 
BRANCH  10  11
HETATM   11  O1  UNL     1     -44.896  73.989  -6.726  1.00  0.00    -0.397 OA
ATOM     12  H1  UNL     1     -45.119  74.758  -7.236  1.00  0.00     0.209 HD
ENDBRANCH  10  11
ENDBRANCH   6  10
ENDBRANCH   1   5
BRANCH   1  13
HETATM   13  O2  UNL     1     -43.840  69.728  -9.114  1.00  0.00    -0.350 OA
BRANCH  13  14
HETATM   14  C8  UNL     1     -45.113  69.942  -9.758  1.00  0.00     0.176 C 
BRANCH  14  15
HETATM   15  C9  UNL     1     -45.520  68.866 -10.678  1.00  0.00     0.031 C 
BRANCH  15  16
HETATM   16  C10 UNL     1     -46.450  67.816 -10.223  1.00  0.00    -0.013 C 
HETATM   17  C11 UNL     1     -47.635  67.620 -11.102  1.00  0.00     0.005 C 
HETATM   18  C12 UNL     1     -48.957  67.592 -10.401  1.00  0.00     0.000 C 
HETATM   19  C13 UNL     1     -48.938  66.783  -9.121  1.00  0.00     0.000 C 
HETATM   20  C14 UNL     1     -47.813  67.212  -8.208  1.00  0.00     0.000 C 
HETATM   21  C15 UNL     1     -46.971  68.288  -8.853  1.00  0.00     0.005 C 
ENDBRANCH  15  16
ENDBRANCH  14  15
ENDBRANCH  13  14
ENDBRANCH   1  13
TORSDOF 8
ENDMDL
MODEL 4
REMARK VINA RESULT: -6.866343894      1.673      3.097
REMARK  8 active torsions:
REMARK  status: ('A' for Active; 'I' for Inactive)
REMARK    1  A    between atoms: C2_2  and  C3_3 
REMARK    2  A    between atoms: C3_3  and  C7_9 
REMARK    3  A    between atoms: C4_4  and  C6_6 
REMARK    4  A    between atoms: C6_6  and  O1_7 
REMARK    5  A    between atoms: C7_9  and  O2_10 
REMARK    6  A    between atoms: O2_10  and  C8_11 
REMARK    7  A    between atoms: C8_11  and  C9_12 
REMARK    8  A    between atoms: C9_12  and  C10_13 
ROOT
HETATM    1  C7  UNL     1     -45.274  68.301  -6.709  1.00  0.00     0.076 C 
HETATM    2  C16 UNL     1     -44.243  67.879  -6.051  1.00  0.00    -0.054 C 
HETATM    3  C17 UNL     1     -44.397  66.468  -5.450  1.00  0.00     0.046 C 
HETATM    4  C18 UNL     1     -42.938  68.470  -5.741  1.00  0.00     0.046 C 
ENDROOT
BRANCH   1   5
HETATM    5  C3  UNL     1     -45.536  69.550  -7.412  1.00  0.00    -0.021 C 
HETATM    6  C4  UNL     1     -44.886  69.934  -8.473  1.00  0.00    -0.051 C 
HETATM    7  C5  UNL     1     -45.060  71.355  -8.969  1.00  0.00     0.046 C 
BRANCH   5   8
HETATM    8  C2  UNL     1     -46.428  70.600  -6.805  1.00  0.00     0.037 C 
HETATM    9  C1  UNL     1     -46.130  70.911  -5.387  1.00  0.00     0.010 C 
ENDBRANCH   5   8
BRANCH   6  10
HETATM   10  C6  UNL     1     -44.111  69.094  -9.401  1.00  0.00     0.198 C 
BRANCH  10  11
HETATM   11  O1  UNL     1     -44.738  69.396 -10.689  1.00  0.00    -0.397 OA
ATOM     12  H1  UNL     1     -45.664  69.323 -10.486  1.00  0.00     0.209 HD
ENDBRANCH  10  11
ENDBRANCH   6  10
ENDBRANCH   1   5
BRANCH   1  13
HETATM   13  O2  UNL     1     -46.367  67.358  -6.785  1.00  0.00    -0.350 OA
BRANCH  13  14
HETATM   14  C8  UNL     1     -46.751  66.992  -8.126  1.00  0.00     0.176 C 
BRANCH  14  15
HETATM   15  C9  UNL     1     -48.058  67.523  -8.552  1.00  0.00     0.031 C 
BRANCH  15  16
HETATM   16  C10 UNL     1     -48.287  67.877  -9.965  1.00  0.00    -0.013 C 
HETATM   17  C11 UNL     1     -49.689  67.688 -10.428  1.00  0.00     0.005 C 
HETATM   18  C12 UNL     1     -49.846  66.930 -11.709  1.00  0.00     0.000 C 
HETATM   19  C13 UNL     1     -48.845  67.337 -12.771  1.00  0.00     0.000 C 
HETATM   20  C14 UNL     1     -47.429  67.292 -12.246  1.00  0.00     0.000 C 
HETATM   21  C15 UNL     1     -47.403  66.917 -10.783  1.00  0.00     0.005 C 
ENDBRANCH  15  16
ENDBRANCH  14  15
ENDBRANCH  13  14
ENDBRANCH   1  13
TORSDOF 8
ENDMDL
MODEL 5
REMARK VINA RESULT: -6.768053757      2.161      3.817
REMARK  8 active torsions:
REMARK  status: ('A' for Active; 'I' for Inactive)
REMARK    1  A    between atoms: C2_2  and  C3_3 
REMARK    2  A    between atoms: C3_3  and  C7_9 
REMARK    3  A    between atoms: C4_4  and  C6_6 
REMARK    4  A    between atoms: C6_6  and  O1_7 
REMARK    5  A    between atoms: C7_9  and  O2_10 
REMARK    6  A    between atoms: O2_10  and  C8_11 
REMARK    7  A    between atoms: C8_11  and  C9_12 
REMARK    8  A    between atoms: C9_12  and  C10_13 
ROOT
HETATM    1  C7  UNL     1     -44.571  70.715  -7.576  1.00  0.00     0.076 C 
HETATM    2  C16 UNL     1     -45.487  71.625  -7.483  1.00  0.00    -0.054 C 
HETATM    3  C17 UNL     1     -46.454  71.445  -6.296  1.00  0.00     0.046 C 
HETATM    4  C18 UNL     1     -45.812  72.808  -8.284  1.00  0.00     0.046 C 
ENDROOT
BRANCH   1   5
HETATM    5  C3  UNL     1     -43.489  70.517  -8.531  1.00  0.00    -0.021 C 
HETATM    6  C4  UNL     1     -42.429  71.270  -8.591  1.00  0.00    -0.051 C 
HETATM    7  C5  UNL     1     -41.496  71.136  -9.778  1.00  0.00     0.046 C 
BRANCH   5   8
HETATM    8  C2  UNL     1     -43.647  69.557  -9.681  1.00  0.00     0.037 C 
HETATM    9  C1  UNL     1     -44.863  69.776 -10.498  1.00  0.00     0.010 C 
ENDBRANCH   5   8
BRANCH   6  10
HETATM   10  C6  UNL     1     -41.891  72.144  -7.535  1.00  0.00     0.198 C 
BRANCH  10  11
HETATM   11  O1  UNL     1     -40.525  72.389  -8.002  1.00  0.00    -0.397 OA
ATOM     12  H1  UNL     1     -40.208  73.026  -7.372  1.00  0.00     0.209 HD
ENDBRANCH  10  11
ENDBRANCH   6  10
ENDBRANCH   1   5
BRANCH   1  13
HETATM   13  O2  UNL     1     -44.607  69.716  -6.531  1.00  0.00    -0.350 OA
BRANCH  13  14
HETATM   14  C8  UNL     1     -44.750  68.360  -7.003  1.00  0.00     0.176 C 
BRANCH  14  15
HETATM   15  C9  UNL     1     -45.997  67.697  -6.585  1.00  0.00     0.031 C 
BRANCH  15  16
HETATM   16  C10 UNL     1     -46.973  67.253  -7.596  1.00  0.00    -0.013 C 
HETATM   17  C11 UNL     1     -46.395  66.422  -8.687  1.00  0.00     0.005 C 
HETATM   18  C12 UNL     1     -46.761  66.841 -10.077  1.00  0.00     0.000 C 
HETATM   19  C13 UNL     1     -48.223  67.207 -10.225  1.00  0.00     0.000 C 
HETATM   20  C14 UNL     1     -48.650  68.219  -9.188  1.00  0.00     0.000 C 
HETATM   21  C15 UNL     1     -47.517  68.540  -8.242  1.00  0.00     0.005 C 
ENDBRANCH  15  16
ENDBRANCH  14  15
ENDBRANCH  13  14
ENDBRANCH   1  13
TORSDOF 8
ENDMDL
