MODEL 1
REMARK VINA RESULT: -6.533211448      0.000      0.000
REMARK  19 active torsions:
REMARK  status: ('A' for Active; 'I' for Inactive)
REMARK    1  A    between atoms: C3_4  and  C4_5 
REMARK    2  A    between atoms: N2_8  and  C7_9 
REMARK    3  A    between atoms: C7_9  and  C8_10 
REMARK    4  A    between atoms: C8_10  and  C9_11 
REMARK    5  A    between atoms: C9_11  and  C10_12 
REMARK    6  A    between atoms: C10_12  and  C11_13 
REMARK    7  A    between atoms: C11_13  and  C12_14 
REMARK    8  A    between atoms: C12_14  and  N3_15 
REMARK    9  A    between atoms: C15_18  and  C16_19 
REMARK   10  A    between atoms: C16_19  and  S1_20 
REMARK   11  A    between atoms: S1_20  and  C17_21 
REMARK   12  A    between atoms: C17_21  and  C18_22 
REMARK   13  A    between atoms: C18_22  and  C19_23 
REMARK   14  A    between atoms: C19_23  and  C20_24 
REMARK       I    between atoms: C20_24  and  N4_26 
REMARK   15  A    between atoms: N4_26  and  C21_28 
REMARK   16  A    between atoms: C21_28  and  C22_29 
REMARK   17  A    between atoms: C22_29  and  O2_30 
REMARK   18  A    between atoms: C27_38  and  N6_39 
REMARK   19  A    between atoms: C28_44  and  N8_45 
ROOT
HETATM    1  N1  UNL     1      10.165  18.899  12.399  1.00  0.00    -0.191 NA
HETATM    2  C1  UNL     1      10.423  18.565  11.316  1.00  0.00     0.105 C 
HETATM    3  C2  UNL     1      10.726  18.194   9.956  1.00  0.00     0.116 A 
HETATM    4  C3  UNL     1      11.944  17.774   9.549  1.00  0.00     0.084 A 
HETATM    5  N5  UNL     1      12.076  17.555   8.202  1.00  0.00    -0.190 N 
ATOM      6  H5  UNL     1      12.981  17.239   7.855  1.00  0.00     0.184 HD
HETATM    7  C27 UNL     1      11.091  17.728   7.316  1.00  0.00     0.678 A 
HETATM    8  N7  UNL     1       9.895  18.142   7.757  1.00  0.00    -0.176 N 
ATOM      9  H7  UNL     1       9.140  18.275   7.084  1.00  0.00     0.186 HD
HETATM   10  C28 UNL     1       9.660  18.386   9.047  1.00  0.00     0.138 A 
ENDROOT
BRANCH   4  11
HETATM   11  C4  UNL     1      13.104  17.621  10.414  1.00  0.00    -0.005 A 
HETATM   12  C5  UNL     1      13.694  18.568  11.190  1.00  0.00     0.031 A 
HETATM   13  C6  UNL     1      14.871  18.291  11.906  1.00  0.00     0.091 A 
HETATM   14  N2  UNL     1      15.482  17.102  11.876  1.00  0.00    -0.366 N 
HETATM   15  C25 UNL     1      14.924  16.164  11.128  1.00  0.00     0.091 A 
HETATM   16  C26 UNL     1      13.779  16.376  10.408  1.00  0.00     0.031 A 
BRANCH  14  17
HETATM   17  C7  UNL     1      16.683  16.958  12.666  1.00  0.00     0.128 C 
BRANCH  17  18
HETATM   18  C8  UNL     1      16.468  16.892  14.137  1.00  0.00     0.020 C 
BRANCH  18  19
HETATM   19  C9  UNL     1      15.355  16.125  14.670  1.00  0.00     0.002 C 
BRANCH  19  20
HETATM   20  C10 UNL     1      14.083  16.680  15.087  1.00  0.00     0.002 C 
BRANCH  20  21
HETATM   21  C11 UNL     1      14.002  17.904  15.917  1.00  0.00     0.020 C 
BRANCH  21  22
HETATM   22  C12 UNL     1      12.965  18.917  15.605  1.00  0.00     0.128 C 
BRANCH  22  23
HETATM   23  N3  UNL     1      13.531  20.021  14.807  1.00  0.00    -0.366 N 
HETATM   24  C13 UNL     1      12.722  20.697  13.967  1.00  0.00     0.091 A 
HETATM   25  C14 UNL     1      13.174  21.732  13.188  1.00  0.00     0.025 A 
HETATM   26  C15 UNL     1      14.489  22.105  13.256  1.00  0.00    -0.046 A 
HETATM   27  C23 UNL     1      15.311  21.412  14.117  1.00  0.00     0.025 A 
HETATM   28  C24 UNL     1      14.824  20.368  14.891  1.00  0.00     0.091 A 
BRANCH  26  29
HETATM   29  C16 UNL     1      14.961  23.224  12.406  1.00  0.00     0.112 C 
BRANCH  29  30
HETATM   30  S1  UNL     1      16.483  23.880  13.140  1.00  0.00    -0.165 SA
BRANCH  30  31
HETATM   31  C17 UNL     1      17.844  23.545  11.980  1.00  0.00     0.075 C 
BRANCH  31  32
HETATM   32  C18 UNL     1      19.134  23.746  12.780  1.00  0.00     0.019 C 
BRANCH  32  33
HETATM   33  C19 UNL     1      20.037  22.591  12.439  1.00  0.00     0.103 C 
BRANCH  33  34
HETATM   34  C20 UNL     1      19.518  21.335  13.049  1.00  0.00     0.217 C 
HETATM   35  O1  UNL     1      19.463  20.309  12.329  1.00  0.00    -0.274 OA
HETATM   36  N4  UNL     1      19.098  21.281  14.388  1.00  0.00    -0.359 N 
ATOM     37  H4  UNL     1      19.147  22.129  14.953  1.00  0.00     0.162 HD
BRANCH  36  38
HETATM   38  C21 UNL     1      18.605  20.084  14.986  1.00  0.00     0.148 C 
BRANCH  38  39
HETATM   39  C22 UNL     1      18.468  20.223  16.471  1.00  0.00     0.183 C 
BRANCH  39  40
HETATM   40  O2  UNL     1      18.906  21.492  16.852  1.00  0.00    -0.399 OA
ATOM     41  H2  UNL     1      19.771  21.418  17.237  1.00  0.00     0.209 HD
ENDBRANCH  39  40
ENDBRANCH  38  39
ENDBRANCH  36  38
ENDBRANCH  33  34
ENDBRANCH  32  33
ENDBRANCH  31  32
ENDBRANCH  30  31
ENDBRANCH  29  30
ENDBRANCH  26  29
ENDBRANCH  22  23
ENDBRANCH  21  22
ENDBRANCH  20  21
ENDBRANCH  19  20
ENDBRANCH  18  19
ENDBRANCH  17  18
ENDBRANCH  14  17
ENDBRANCH   4  11
BRANCH  10  42
HETATM   42  N8  UNL     1       8.490  18.788   9.457  1.00  0.00    -0.384 N 
ATOM     43  H82 UNL     1       7.680  18.168   9.437  1.00  0.00     0.157 HD
ATOM     44  H81 UNL     1       8.353  19.736   9.810  1.00  0.00     0.157 HD
ENDBRANCH  10  42
BRANCH   7  45
HETATM   45  N6  UNL     1      11.281  17.499   6.035  1.00  0.00    -0.234 N 
ATOM     46  H62 UNL     1      11.559  16.572   5.715  1.00  0.00     0.174 HD
ATOM     47  H61 UNL     1      11.156  18.238   5.344  1.00  0.00     0.174 HD
ENDBRANCH   7  45
TORSDOF 19
ENDMDL
MODEL 2
REMARK VINA RESULT: -6.487974030      2.108      3.343
REMARK  19 active torsions:
REMARK  status: ('A' for Active; 'I' for Inactive)
REMARK    1  A    between atoms: C3_4  and  C4_5 
REMARK    2  A    between atoms: N2_8  and  C7_9 
REMARK    3  A    between atoms: C7_9  and  C8_10 
REMARK    4  A    between atoms: C8_10  and  C9_11 
REMARK    5  A    between atoms: C9_11  and  C10_12 
REMARK    6  A    between atoms: C10_12  and  C11_13 
REMARK    7  A    between atoms: C11_13  and  C12_14 
REMARK    8  A    between atoms: C12_14  and  N3_15 
REMARK    9  A    between atoms: C15_18  and  C16_19 
REMARK   10  A    between atoms: C16_19  and  S1_20 
REMARK   11  A    between atoms: S1_20  and  C17_21 
REMARK   12  A    between atoms: C17_21  and  C18_22 
REMARK   13  A    between atoms: C18_22  and  C19_23 
REMARK   14  A    between atoms: C19_23  and  C20_24 
REMARK       I    between atoms: C20_24  and  N4_26 
REMARK   15  A    between atoms: N4_26  and  C21_28 
REMARK   16  A    between atoms: C21_28  and  C22_29 
REMARK   17  A    between atoms: C22_29  and  O2_30 
REMARK   18  A    between atoms: C27_38  and  N6_39 
REMARK   19  A    between atoms: C28_44  and  N8_45 
ROOT
HETATM    1  N1  UNL     1      11.269  19.977  14.500  1.00  0.00    -0.191 NA
HETATM    2  C1  UNL     1      10.774  19.660  13.498  1.00  0.00     0.105 C 
HETATM    3  C2  UNL     1      10.161  19.313  12.239  1.00  0.00     0.116 A 
HETATM    4  C3  UNL     1      10.627  18.343  11.423  1.00  0.00     0.084 A 
HETATM    5  N5  UNL     1       9.976  18.214  10.223  1.00  0.00    -0.190 N 
ATOM      6  H5  UNL     1      10.300  17.494   9.578  1.00  0.00     0.184 HD
HETATM    7  C27 UNL     1       8.943  18.974   9.848  1.00  0.00     0.678 A 
HETATM    8  N7  UNL     1       8.506  19.924  10.685  1.00  0.00    -0.176 N 
ATOM      9  H7  UNL     1       7.717  20.505  10.403  1.00  0.00     0.186 HD
HETATM   10  C28 UNL     1       9.069  20.134  11.876  1.00  0.00     0.138 A 
ENDROOT
BRANCH   4  11
HETATM   11  C4  UNL     1      11.787  17.508  11.699  1.00  0.00    -0.005 A 
HETATM   12  C5  UNL     1      12.067  16.825  12.840  1.00  0.00     0.031 A 
HETATM   13  C6  UNL     1      13.279  16.130  12.991  1.00  0.00     0.091 A 
HETATM   14  N2  UNL     1      14.222  16.090  12.044  1.00  0.00    -0.366 N 
HETATM   15  C25 UNL     1      13.969  16.745  10.923  1.00  0.00     0.091 A 
HETATM   16  C26 UNL     1      12.807  17.442  10.720  1.00  0.00     0.031 A 
BRANCH  14  17
HETATM   17  C7  UNL     1      15.416  15.331  12.335  1.00  0.00     0.128 C 
BRANCH  17  18
HETATM   18  C8  UNL     1      16.216  15.827  13.487  1.00  0.00     0.020 C 
BRANCH  18  19
HETATM   19  C9  UNL     1      16.708  17.193  13.489  1.00  0.00     0.002 C 
BRANCH  19  20
HETATM   20  C10 UNL     1      16.118  18.292  14.227  1.00  0.00     0.002 C 
BRANCH  20  21
HETATM   21  C11 UNL     1      15.090  19.172  13.624  1.00  0.00     0.020 C 
BRANCH  21  22
HETATM   22  C12 UNL     1      15.371  19.814  12.317  1.00  0.00     0.128 C 
BRANCH  22  23
HETATM   23  N3  UNL     1      14.998  21.241  12.341  1.00  0.00    -0.366 N 
HETATM   24  C13 UNL     1      15.973  22.167  12.433  1.00  0.00     0.091 A 
HETATM   25  C14 UNL     1      15.708  23.512  12.465  1.00  0.00     0.025 A 
HETATM   26  C15 UNL     1      14.411  23.947  12.401  1.00  0.00    -0.046 A 
HETATM   27  C23 UNL     1      13.418  22.997  12.307  1.00  0.00     0.025 A 
HETATM   28  C24 UNL     1      13.720  21.643  12.277  1.00  0.00     0.091 A 
BRANCH  26  29
HETATM   29  C16 UNL     1      14.141  25.404  12.440  1.00  0.00     0.112 C 
BRANCH  29  30
HETATM   30  S1  UNL     1      14.587  26.011  14.088  1.00  0.00    -0.165 SA
BRANCH  30  31
HETATM   31  C17 UNL     1      13.718  24.981  15.310  1.00  0.00     0.075 C 
BRANCH  31  32
HETATM   32  C18 UNL     1      14.805  24.172  16.023  1.00  0.00     0.019 C 
BRANCH  32  33
HETATM   33  C19 UNL     1      14.375  22.730  15.967  1.00  0.00     0.103 C 
BRANCH  33  34
HETATM   34  C20 UNL     1      15.543  21.836  16.202  1.00  0.00     0.217 C 
HETATM   35  O1  UNL     1      15.336  20.728  16.752  1.00  0.00    -0.274 OA
HETATM   36  N4  UNL     1      16.845  22.206  15.825  1.00  0.00    -0.359 N 
ATOM     37  H4  UNL     1      16.990  23.113  15.383  1.00  0.00     0.162 HD
BRANCH  36  38
HETATM   38  C21 UNL     1      17.970  21.357  16.039  1.00  0.00     0.148 C 
BRANCH  38  39
HETATM   39  C22 UNL     1      18.554  20.876  14.745  1.00  0.00     0.183 C 
BRANCH  39  40
HETATM   40  O2  UNL     1      19.277  21.915  14.159  1.00  0.00    -0.399 OA
ATOM     41  H2  UNL     1      20.195  21.674  14.126  1.00  0.00     0.209 HD
ENDBRANCH  39  40
ENDBRANCH  38  39
ENDBRANCH  36  38
ENDBRANCH  33  34
ENDBRANCH  32  33
ENDBRANCH  31  32
ENDBRANCH  30  31
ENDBRANCH  29  30
ENDBRANCH  26  29
ENDBRANCH  22  23
ENDBRANCH  21  22
ENDBRANCH  20  21
ENDBRANCH  19  20
ENDBRANCH  18  19
ENDBRANCH  17  18
ENDBRANCH  14  17
ENDBRANCH   4  11
BRANCH  10  42
HETATM   42  N8  UNL     1       8.630  21.064  12.677  1.00  0.00    -0.384 N 
ATOM     43  H82 UNL     1       9.246  21.512  13.356  1.00  0.00     0.157 HD
ATOM     44  H81 UNL     1       7.657  21.368  12.648  1.00  0.00     0.157 HD
ENDBRANCH  10  42
BRANCH   7  45
HETATM   45  N6  UNL     1       8.360  18.799   8.682  1.00  0.00    -0.234 N 
ATOM     46  H62 UNL     1       7.473  18.301   8.621  1.00  0.00     0.174 HD
ATOM     47  H61 UNL     1       8.781  19.156   7.824  1.00  0.00     0.174 HD
ENDBRANCH   7  45
TORSDOF 19
ENDMDL
MODEL 3
REMARK VINA RESULT: -6.428834603      2.395      4.222
REMARK  19 active torsions:
REMARK  status: ('A' for Active; 'I' for Inactive)
REMARK    1  A    between atoms: C3_4  and  C4_5 
REMARK    2  A    between atoms: N2_8  and  C7_9 
REMARK    3  A    between atoms: C7_9  and  C8_10 
REMARK    4  A    between atoms: C8_10  and  C9_11 
REMARK    5  A    between atoms: C9_11  and  C10_12 
REMARK    6  A    between atoms: C10_12  and  C11_13 
REMARK    7  A    between atoms: C11_13  and  C12_14 
REMARK    8  A    between atoms: C12_14  and  N3_15 
REMARK    9  A    between atoms: C15_18  and  C16_19 
REMARK   10  A    between atoms: C16_19  and  S1_20 
REMARK   11  A    between atoms: S1_20  and  C17_21 
REMARK   12  A    between atoms: C17_21  and  C18_22 
REMARK   13  A    between atoms: C18_22  and  C19_23 
REMARK   14  A    between atoms: C19_23  and  C20_24 
REMARK       I    between atoms: C20_24  and  N4_26 
REMARK   15  A    between atoms: N4_26  and  C21_28 
REMARK   16  A    between atoms: C21_28  and  C22_29 
REMARK   17  A    between atoms: C22_29  and  O2_30 
REMARK   18  A    between atoms: C27_38  and  N6_39 
REMARK   19  A    between atoms: C28_44  and  N8_45 
ROOT
HETATM    1  N1  UNL     1      10.100  21.614   7.500  1.00  0.00    -0.191 NA
HETATM    2  C1  UNL     1       9.117  21.082   7.816  1.00  0.00     0.105 C 
HETATM    3  C2  UNL     1       7.886  20.414   8.160  1.00  0.00     0.116 A 
HETATM    4  C3  UNL     1       7.814  19.373   9.018  1.00  0.00     0.084 A 
HETATM    5  N5  UNL     1       6.575  18.802   9.155  1.00  0.00    -0.190 N 
ATOM      6  H5  UNL     1       6.481  18.011   9.792  1.00  0.00     0.184 HD
HETATM    7  C27 UNL     1       5.484  19.217   8.504  1.00  0.00     0.678 A 
HETATM    8  N7  UNL     1       5.593  20.254   7.664  1.00  0.00    -0.176 N 
ATOM      9  H7  UNL     1       4.763  20.575   7.166  1.00  0.00     0.186 HD
HETATM   10  C28 UNL     1       6.752  20.881   7.457  1.00  0.00     0.138 A 
ENDROOT
BRANCH   4  11
HETATM   11  C4  UNL     1       8.948  18.795   9.723  1.00  0.00    -0.005 A 
HETATM   12  C5  UNL     1       9.563  19.268  10.839  1.00  0.00     0.031 A 
HETATM   13  C6  UNL     1      10.712  18.644  11.354  1.00  0.00     0.091 A 
HETATM   14  N2  UNL     1      11.271  17.565  10.798  1.00  0.00    -0.366 N 
HETATM   15  C25 UNL     1      10.687  17.085   9.711  1.00  0.00     0.091 A 
HETATM   16  C26 UNL     1       9.567  17.651   9.162  1.00  0.00     0.031 A 
BRANCH  14  17
HETATM   17  C7  UNL     1      12.447  17.026  11.440  1.00  0.00     0.128 C 
BRANCH  17  18
HETATM   18  C8  UNL     1      13.680  17.030  10.607  1.00  0.00     0.020 C 
BRANCH  18  19
HETATM   19  C9  UNL     1      14.756  16.102  10.906  1.00  0.00     0.002 C 
BRANCH  19  20
HETATM   20  C10 UNL     1      14.913  15.381  12.153  1.00  0.00     0.002 C 
BRANCH  20  21
HETATM   21  C11 UNL     1      15.932  15.769  13.155  1.00  0.00     0.020 C 
BRANCH  21  22
HETATM   22  C12 UNL     1      15.486  16.239  14.490  1.00  0.00     0.128 C 
BRANCH  22  23
HETATM   23  N3  UNL     1      14.680  17.468  14.373  1.00  0.00    -0.366 N 
HETATM   24  C13 UNL     1      13.428  17.475  14.872  1.00  0.00     0.091 A 
HETATM   25  C14 UNL     1      12.615  18.577  14.799  1.00  0.00     0.025 A 
HETATM   26  C15 UNL     1      13.076  19.719  14.201  1.00  0.00    -0.046 A 
HETATM   27  C23 UNL     1      14.356  19.708  13.693  1.00  0.00     0.025 A 
HETATM   28  C24 UNL     1      15.154  18.576  13.782  1.00  0.00     0.091 A 
BRANCH  26  29
HETATM   29  C16 UNL     1      12.183  20.900  14.128  1.00  0.00     0.112 C 
BRANCH  29  30
HETATM   30  S1  UNL     1      12.550  21.967  15.547  1.00  0.00    -0.165 SA
BRANCH  30  31
HETATM   31  C17 UNL     1      13.786  23.191  15.012  1.00  0.00     0.075 C 
BRANCH  31  32
HETATM   32  C18 UNL     1      15.012  22.962  15.901  1.00  0.00     0.019 C 
BRANCH  32  33
HETATM   33  C19 UNL     1      16.201  23.483  15.139  1.00  0.00     0.103 C 
BRANCH  33  34
HETATM   34  C20 UNL     1      17.367  22.574  15.321  1.00  0.00     0.217 C 
HETATM   35  O1  UNL     1      18.443  22.873  14.751  1.00  0.00    -0.274 OA
HETATM   36  N4  UNL     1      17.283  21.412  16.107  1.00  0.00    -0.359 N 
ATOM     37  H4  UNL     1      16.397  21.186  16.557  1.00  0.00     0.162 HD
BRANCH  36  38
HETATM   38  C21 UNL     1      18.393  20.537  16.294  1.00  0.00     0.148 C 
BRANCH  38  39
HETATM   39  C22 UNL     1      18.495  19.527  15.191  1.00  0.00     0.183 C 
BRANCH  39  40
HETATM   40  O2  UNL     1      19.478  19.937  14.290  1.00  0.00    -0.399 OA
ATOM     41  H2  UNL     1      20.325  19.634  14.596  1.00  0.00     0.209 HD
ENDBRANCH  39  40
ENDBRANCH  38  39
ENDBRANCH  36  38
ENDBRANCH  33  34
ENDBRANCH  32  33
ENDBRANCH  31  32
ENDBRANCH  30  31
ENDBRANCH  29  30
ENDBRANCH  26  29
ENDBRANCH  22  23
ENDBRANCH  21  22
ENDBRANCH  20  21
ENDBRANCH  19  20
ENDBRANCH  18  19
ENDBRANCH  17  18
ENDBRANCH  14  17
ENDBRANCH   4  11
BRANCH  10  42
HETATM   42  N8  UNL     1       6.838  21.890   6.635  1.00  0.00    -0.384 N 
ATOM     43  H82 UNL     1       7.624  22.538   6.674  1.00  0.00     0.157 HD
ATOM     44  H81 UNL     1       6.120  22.057   5.930  1.00  0.00     0.157 HD
ENDBRANCH  10  42
BRANCH   7  45
HETATM   45  N6  UNL     1       4.323  18.625   8.680  1.00  0.00    -0.234 N 
ATOM     46  H62 UNL     1       4.059  17.830   8.099  1.00  0.00     0.174 HD
ATOM     47  H61 UNL     1       3.671  18.947   9.395  1.00  0.00     0.174 HD
ENDBRANCH   7  45
TORSDOF 19
ENDMDL
MODEL 4
REMARK VINA RESULT: -6.421345735      3.546      6.418
REMARK  19 active torsions:
REMARK  status: ('A' for Active; 'I' for Inactive)
REMARK    1  A    between atoms: C3_4  and  C4_5 
REMARK    2  A    between atoms: N2_8  and  C7_9 
REMARK    3  A    between atoms: C7_9  and  C8_10 
REMARK    4  A    between atoms: C8_10  and  C9_11 
REMARK    5  A    between atoms: C9_11  and  C10_12 
REMARK    6  A    between atoms: C10_12  and  C11_13 
REMARK    7  A    between atoms: C11_13  and  C12_14 
REMARK    8  A    between atoms: C12_14  and  N3_15 
REMARK    9  A    between atoms: C15_18  and  C16_19 
REMARK   10  A    between atoms: C16_19  and  S1_20 
REMARK   11  A    between atoms: S1_20  and  C17_21 
REMARK   12  A    between atoms: C17_21  and  C18_22 
REMARK   13  A    between atoms: C18_22  and  C19_23 
REMARK   14  A    between atoms: C19_23  and  C20_24 
REMARK       I    between atoms: C20_24  and  N4_26 
REMARK   15  A    between atoms: N4_26  and  C21_28 
REMARK   16  A    between atoms: C21_28  and  C22_29 
REMARK   17  A    between atoms: C22_29  and  O2_30 
REMARK   18  A    between atoms: C27_38  and  N6_39 
REMARK   19  A    between atoms: C28_44  and  N8_45 
ROOT
HETATM    1  N1  UNL     1      15.654  16.689   4.087  1.00  0.00    -0.191 NA
HETATM    2  C1  UNL     1      14.619  16.508   3.590  1.00  0.00     0.105 C 
HETATM    3  C2  UNL     1      13.347  16.238   2.968  1.00  0.00     0.116 A 
HETATM    4  C3  UNL     1      12.158  16.550   3.529  1.00  0.00     0.084 A 
HETATM    5  N5  UNL     1      11.049  16.134   2.839  1.00  0.00    -0.190 N 
ATOM      6  H5  UNL     1      10.133  16.349   3.232  1.00  0.00     0.184 HD
HETATM    7  C27 UNL     1      11.095  15.464   1.684  1.00  0.00     0.678 A 
HETATM    8  N7  UNL     1      12.291  15.175   1.156  1.00  0.00    -0.176 N 
ATOM      9  H7  UNL     1      12.331  14.664   0.274  1.00  0.00     0.186 HD
HETATM   10  C28 UNL     1      13.433  15.532   1.746  1.00  0.00     0.138 A 
ENDROOT
BRANCH   4  11
HETATM   11  C4  UNL     1      11.992  17.211   4.815  1.00  0.00    -0.005 A 
HETATM   12  C5  UNL     1      11.797  16.632   6.029  1.00  0.00     0.031 A 
HETATM   13  C6  UNL     1      11.561  17.411   7.175  1.00  0.00     0.091 A 
HETATM   14  N2  UNL     1      11.514  18.747   7.155  1.00  0.00    -0.366 N 
HETATM   15  C25 UNL     1      11.705  19.332   5.984  1.00  0.00     0.091 A 
HETATM   16  C26 UNL     1      11.937  18.626   4.833  1.00  0.00     0.031 A 
BRANCH  14  17
HETATM   17  C7  UNL     1      11.269  19.416   8.411  1.00  0.00     0.128 C 
BRANCH  17  18
HETATM   18  C8  UNL     1      10.226  18.791   9.268  1.00  0.00     0.020 C 
BRANCH  18  19
HETATM   19  C9  UNL     1      10.544  18.416  10.635  1.00  0.00     0.002 C 
BRANCH  19  20
HETATM   20  C10 UNL     1      11.325  17.258  11.021  1.00  0.00     0.002 C 
BRANCH  20  21
HETATM   21  C11 UNL     1      12.805  17.259  10.951  1.00  0.00     0.020 C 
BRANCH  21  22
HETATM   22  C12 UNL     1      13.575  16.573  12.018  1.00  0.00     0.128 C 
BRANCH  22  23
HETATM   23  N3  UNL     1      14.709  17.403  12.465  1.00  0.00    -0.366 N 
HETATM   24  C13 UNL     1      14.831  18.654  11.978  1.00  0.00     0.091 A 
HETATM   25  C14 UNL     1      15.859  19.486  12.342  1.00  0.00     0.025 A 
HETATM   26  C15 UNL     1      16.803  19.045  13.231  1.00  0.00    -0.046 A 
HETATM   27  C23 UNL     1      16.674  17.766  13.726  1.00  0.00     0.025 A 
HETATM   28  C24 UNL     1      15.621  16.949  13.337  1.00  0.00     0.091 A 
BRANCH  26  29
HETATM   29  C16 UNL     1      17.909  19.956  13.611  1.00  0.00     0.112 C 
BRANCH  29  30
HETATM   30  S1  UNL     1      17.659  20.449  15.337  1.00  0.00    -0.165 SA
BRANCH  30  31
HETATM   31  C17 UNL     1      17.020  22.153  15.337  1.00  0.00     0.075 C 
BRANCH  31  32
HETATM   32  C18 UNL     1      15.495  22.028  15.396  1.00  0.00     0.019 C 
BRANCH  32  33
HETATM   33  C19 UNL     1      15.171  21.312  16.680  1.00  0.00     0.103 C 
BRANCH  33  34
HETATM   34  C20 UNL     1      13.985  20.430  16.491  1.00  0.00     0.217 C 
HETATM   35  O1  UNL     1      12.978  20.633  17.212  1.00  0.00    -0.274 OA
HETATM   36  N4  UNL     1      13.975  19.397  15.539  1.00  0.00    -0.359 N 
ATOM     37  H4  UNL     1      14.806  19.248  14.967  1.00  0.00     0.162 HD
BRANCH  36  38
HETATM   38  C21 UNL     1      12.845  18.551  15.344  1.00  0.00     0.148 C 
BRANCH  38  39
HETATM   39  C22 UNL     1      11.944  19.069  14.265  1.00  0.00     0.183 C 
BRANCH  39  40
HETATM   40  O2  UNL     1      10.622  18.759  14.587  1.00  0.00    -0.399 OA
ATOM     41  H2  UNL     1      10.131  19.565  14.690  1.00  0.00     0.209 HD
ENDBRANCH  39  40
ENDBRANCH  38  39
ENDBRANCH  36  38
ENDBRANCH  33  34
ENDBRANCH  32  33
ENDBRANCH  31  32
ENDBRANCH  30  31
ENDBRANCH  29  30
ENDBRANCH  26  29
ENDBRANCH  22  23
ENDBRANCH  21  22
ENDBRANCH  20  21
ENDBRANCH  19  20
ENDBRANCH  18  19
ENDBRANCH  17  18
ENDBRANCH  14  17
ENDBRANCH   4  11
BRANCH  10  42
HETATM   42  N8  UNL     1      14.588  15.241   1.217  1.00  0.00    -0.384 N 
ATOM     43  H82 UNL     1      15.453  15.638   1.584  1.00  0.00     0.157 HD
ATOM     44  H81 UNL     1      14.658  14.609   0.419  1.00  0.00     0.157 HD
ENDBRANCH  10  42
BRANCH   7  45
HETATM   45  N6  UNL     1       9.993  15.092   1.070  1.00  0.00    -0.234 N 
ATOM     46  H62 UNL     1       9.940  14.181   0.616  1.00  0.00     0.174 HD
ATOM     47  H61 UNL     1       9.177  15.704   1.038  1.00  0.00     0.174 HD
ENDBRANCH   7  45
TORSDOF 19
ENDMDL
MODEL 5
REMARK VINA RESULT: -6.406253140      1.451      1.625
REMARK  19 active torsions:
REMARK  status: ('A' for Active; 'I' for Inactive)
REMARK    1  A    between atoms: C3_4  and  C4_5 
REMARK    2  A    between atoms: N2_8  and  C7_9 
REMARK    3  A    between atoms: C7_9  and  C8_10 
REMARK    4  A    between atoms: C8_10  and  C9_11 
REMARK    5  A    between atoms: C9_11  and  C10_12 
REMARK    6  A    between atoms: C10_12  and  C11_13 
REMARK    7  A    between atoms: C11_13  and  C12_14 
REMARK    8  A    between atoms: C12_14  and  N3_15 
REMARK    9  A    between atoms: C15_18  and  C16_19 
REMARK   10  A    between atoms: C16_19  and  S1_20 
REMARK   11  A    between atoms: S1_20  and  C17_21 
REMARK   12  A    between atoms: C17_21  and  C18_22 
REMARK   13  A    between atoms: C18_22  and  C19_23 
REMARK   14  A    between atoms: C19_23  and  C20_24 
REMARK       I    between atoms: C20_24  and  N4_26 
REMARK   15  A    between atoms: N4_26  and  C21_28 
REMARK   16  A    between atoms: C21_28  and  C22_29 
REMARK   17  A    between atoms: C22_29  and  O2_30 
REMARK   18  A    between atoms: C27_38  and  N6_39 
REMARK   19  A    between atoms: C28_44  and  N8_45 
ROOT
HETATM    1  N1  UNL     1      10.215  18.850  12.707  1.00  0.00    -0.191 NA
HETATM    2  C1  UNL     1      10.454  18.751  11.574  1.00  0.00     0.105 C 
HETATM    3  C2  UNL     1      10.735  18.674  10.162  1.00  0.00     0.116 A 
HETATM    4  C3  UNL     1      11.933  18.307   9.656  1.00  0.00     0.084 A 
HETATM    5  N5  UNL     1      12.049  18.382   8.292  1.00  0.00    -0.190 N 
ATOM      6  H5  UNL     1      12.939  18.114   7.872  1.00  0.00     0.184 HD
HETATM    7  C27 UNL     1      11.068  18.782   7.479  1.00  0.00     0.678 A 
HETATM    8  N7  UNL     1       9.892  19.136   8.016  1.00  0.00    -0.176 N 
ATOM      9  H7  UNL     1       9.140  19.441   7.399  1.00  0.00     0.186 HD
HETATM   10  C28 UNL     1       9.674  19.101   9.331  1.00  0.00     0.138 A 
ENDROOT
BRANCH   4  11
HETATM   11  C4  UNL     1      13.090  17.924  10.451  1.00  0.00    -0.005 A 
HETATM   12  C5  UNL     1      13.853  18.719  11.246  1.00  0.00     0.031 A 
HETATM   13  C6  UNL     1      15.001  18.220  11.885  1.00  0.00     0.091 A 
HETATM   14  N2  UNL     1      15.417  16.956  11.759  1.00  0.00    -0.366 N 
HETATM   15  C25 UNL     1      14.688  16.162  10.992  1.00  0.00     0.091 A 
HETATM   16  C26 UNL     1      13.560  16.592  10.343  1.00  0.00     0.031 A 
BRANCH  14  17
HETATM   17  C7  UNL     1      16.612  16.580  12.479  1.00  0.00     0.128 C 
BRANCH  17  18
HETATM   18  C8  UNL     1      16.379  15.915  13.789  1.00  0.00     0.020 C 
BRANCH  18  19
HETATM   19  C9  UNL     1      15.025  15.768  14.293  1.00  0.00     0.002 C 
BRANCH  19  20
HETATM   20  C10 UNL     1      14.428  16.585  15.330  1.00  0.00     0.002 C 
BRANCH  20  21
HETATM   21  C11 UNL     1      13.879  17.931  15.042  1.00  0.00     0.020 C 
BRANCH  21  22
HETATM   22  C12 UNL     1      13.219  18.687  16.134  1.00  0.00     0.128 C 
BRANCH  22  23
HETATM   23  N3  UNL     1      13.544  20.123  16.051  1.00  0.00    -0.366 N 
HETATM   24  C13 UNL     1      12.848  20.900  15.199  1.00  0.00     0.091 A 
HETATM   25  C14 UNL     1      13.093  22.243  15.062  1.00  0.00     0.025 A 
HETATM   26  C15 UNL     1      14.076  22.830  15.812  1.00  0.00    -0.046 A 
HETATM   27  C23 UNL     1      14.785  22.032  16.682  1.00  0.00     0.025 A 
HETATM   28  C24 UNL     1      14.513  20.676  16.797  1.00  0.00     0.091 A 
BRANCH  26  29
HETATM   29  C16 UNL     1      14.330  24.281  15.649  1.00  0.00     0.112 C 
BRANCH  29  30
HETATM   30  S1  UNL     1      13.861  24.746  13.962  1.00  0.00    -0.165 SA
BRANCH  30  31
HETATM   31  C17 UNL     1      15.382  25.193  13.069  1.00  0.00     0.075 C 
BRANCH  31  32
HETATM   32  C18 UNL     1      16.519  24.460  13.787  1.00  0.00     0.019 C 
BRANCH  32  33
HETATM   33  C19 UNL     1      16.670  23.127  13.105  1.00  0.00     0.103 C 
BRANCH  33  34
HETATM   34  C20 UNL     1      17.705  22.310  13.797  1.00  0.00     0.217 C 
HETATM   35  O1  UNL     1      18.843  22.813  13.959  1.00  0.00    -0.274 OA
HETATM   36  N4  UNL     1      17.434  21.013  14.263  1.00  0.00    -0.359 N 
ATOM     37  H4  UNL     1      16.503  20.622  14.117  1.00  0.00     0.162 HD
BRANCH  36  38
HETATM   38  C21 UNL     1      18.413  20.222  14.933  1.00  0.00     0.148 C 
BRANCH  38  39
HETATM   39  C22 UNL     1      18.315  20.364  16.422  1.00  0.00     0.183 C 
BRANCH  39  40
HETATM   40  O2  UNL     1      18.926  21.559  16.806  1.00  0.00    -0.399 OA
ATOM     41  H2  UNL     1      19.148  21.510  17.728  1.00  0.00     0.209 HD
ENDBRANCH  39  40
ENDBRANCH  38  39
ENDBRANCH  36  38
ENDBRANCH  33  34
ENDBRANCH  32  33
ENDBRANCH  31  32
ENDBRANCH  30  31
ENDBRANCH  29  30
ENDBRANCH  26  29
ENDBRANCH  22  23
ENDBRANCH  21  22
ENDBRANCH  20  21
ENDBRANCH  19  20
ENDBRANCH  18  19
ENDBRANCH  17  18
ENDBRANCH  14  17
ENDBRANCH   4  11
BRANCH  10  42
HETATM   42  N8  UNL     1       8.523  19.449   9.835  1.00  0.00    -0.384 N 
ATOM     43  H82 UNL     1       8.427  20.290  10.405  1.00  0.00     0.157 HD
ATOM     44  H81 UNL     1       7.686  18.889   9.673  1.00  0.00     0.157 HD
ENDBRANCH  10  42
BRANCH   7  45
HETATM   45  N6  UNL     1      11.243  18.831   6.176  1.00  0.00    -0.234 N 
ATOM     46  H62 UNL     1      12.129  18.538   5.766  1.00  0.00     0.174 HD
ATOM     47  H61 UNL     1      10.502  19.161   5.558  1.00  0.00     0.174 HD
ENDBRANCH   7  45
TORSDOF 19
ENDMDL
