MODEL 1
REMARK VINA RESULT: -7.225714091      0.000      0.000
REMARK  21 active torsions:
REMARK  status: ('A' for Active; 'I' for Inactive)
REMARK    1  A    between atoms: C2_2  and  C3_3 
REMARK    2  A    between atoms: C2_2  and  C20_29 
REMARK    3  A    between atoms: C3_3  and  C4_4 
REMARK    4  A    between atoms: C4_4  and  C5_5 
REMARK    5  A    between atoms: C5_5  and  C6_6 
REMARK    6  A    between atoms: C9_9  and  C10_10 
REMARK    7  A    between atoms: C15_15  and  C16_16 
REMARK    8  A    between atoms: C16_16  and  N1_17 
REMARK    9  A    between atoms: N1_17  and  C17_20 
REMARK   10  A    between atoms: C17_20  and  C18_21 
REMARK   11  A    between atoms: C18_21  and  O1_22 
REMARK   12  A    between atoms: O1_22  and  N2_23 
REMARK   13  A    between atoms: C20_29  and  C21_30 
REMARK   14  A    between atoms: N4_33  and  C24_34 
REMARK   15  A    between atoms: C24_34  and  O2_35 
REMARK   16  A    between atoms: C24_34  and  C25_37 
REMARK   17  A    between atoms: C25_37  and  N5_38 
REMARK   18  A    between atoms: C25_37  and  C26_42 
REMARK   19  A    between atoms: C26_42  and  C27_43 
REMARK   20  A    between atoms: C27_43  and  C28_44 
REMARK   21  A    between atoms: C28_44  and  N6_45 
ROOT
HETATM    1  C3  UNL     1      12.949  16.876   9.681  1.00  0.00     0.004 C 
ENDROOT
BRANCH   1   2
HETATM    2  C2  UNL     1      11.651  17.652   9.506  1.00  0.00    -0.018 C 
HETATM    3  C1  UNL     1      10.694  17.253  10.564  1.00  0.00     0.010 C 
BRANCH   2   4
HETATM    4  C20 UNL     1      11.920  19.105   9.334  1.00  0.00     0.010 C 
BRANCH   4   5
HETATM    5  C21 UNL     1      11.303  19.717   8.140  1.00  0.00     0.005 C 
HETATM    6  C22 UNL     1      11.973  20.917   7.547  1.00  0.00     0.026 C 
HETATM    7  C23 UNL     1      11.338  20.866   6.115  1.00  0.00     0.125 C 
HETATM    8  N4  UNL     1      11.696  19.520   5.788  1.00  0.00    -0.363 N 
HETATM    9  C30 UNL     1      11.246  18.735   6.972  1.00  0.00     0.129 C 
BRANCH   8  10
HETATM   10  C24 UNL     1      12.314  18.915   4.698  1.00  0.00     0.144 C 
BRANCH  10  11
HETATM   11  O2  UNL     1      13.598  18.738   4.801  1.00  0.00    -0.348 OA
ATOM     12  H2  UNL     1      14.141  19.392   4.376  1.00  0.00     0.219 HD
ENDBRANCH  10  11
BRANCH  10  13
HETATM   13  C25 UNL     1      11.741  18.445   3.449  1.00  0.00     0.257 C 
BRANCH  13  14
HETATM   14  N5  UNL     1      10.351  18.851   3.286  1.00  0.00    -0.068 N 
ATOM     15  H53 UNL     1       9.874  18.896   4.186  1.00  0.00     0.275 HD
ATOM     16  H52 UNL     1      10.284  19.833   3.016  1.00  0.00     0.275 HD
ATOM     17  H51 UNL     1       9.845  18.255   2.631  1.00  0.00     0.275 HD
ENDBRANCH  13  14
BRANCH  13  18
HETATM   18  C26 UNL     1      11.803  16.977   3.193  1.00  0.00     0.043 C 
BRANCH  18  19
HETATM   19  C27 UNL     1      12.198  16.564   1.816  1.00  0.00     0.022 C 
BRANCH  19  20
HETATM   20  C28 UNL     1      13.481  15.710   1.969  1.00  0.00     0.122 C 
BRANCH  20  21
HETATM   21  N6  UNL     1      14.239  16.126   3.103  1.00  0.00    -0.367 N 
HETATM   22  C29 UNL     1      15.521  16.397   3.037  1.00  0.00     0.196 C 
HETATM   23  N7  UNL     1      16.218  16.806   4.201  1.00  0.00    -0.067 NA
HETATM   24  N8  UNL     1      16.228  16.286   1.815  1.00  0.00    -0.067 NA
ATOM     25  H6  UNL     1      13.766  16.217   4.002  1.00  0.00     0.161 HD
ENDBRANCH  20  21
ENDBRANCH  19  20
ENDBRANCH  18  19
ENDBRANCH  13  18
ENDBRANCH  10  13
ENDBRANCH   8  10
ENDBRANCH   4   5
ENDBRANCH   2   4
ENDBRANCH   1   2
BRANCH   1  26
HETATM   26  C4  UNL     1      13.381  16.874  11.091  1.00  0.00     0.005 C 
BRANCH  26  27
HETATM   27  C5  UNL     1      14.783  16.297  11.322  1.00  0.00     0.040 C 
BRANCH  27  28
HETATM   28  C6  UNL     1      15.430  17.318  12.241  1.00  0.00    -0.043 A 
HETATM   29  C7  UNL     1      15.157  18.658  12.123  1.00  0.00     0.010 A 
HETATM   30  C8  UNL     1      15.742  19.571  12.984  1.00  0.00     0.026 A 
HETATM   31  C9  UNL     1      16.606  19.115  13.966  1.00  0.00     0.013 A 
HETATM   32  N3  UNL     1      16.870  17.820  14.079  1.00  0.00    -0.368 N 
HETATM   33  C19 UNL     1      16.300  16.943  13.240  1.00  0.00     0.095 A 
ATOM     34  H3  UNL     1      17.508  17.490  14.803  1.00  0.00     0.165 HD
BRANCH  31  35
HETATM   35  C10 UNL     1      17.202  20.146  14.878  1.00  0.00     0.041 C 
HETATM   36  C11 UNL     1      18.713  20.054  14.810  1.00  0.00     0.011 C 
HETATM   37  C12 UNL     1      19.295  20.655  13.566  1.00  0.00     0.001 C 
HETATM   38  C13 UNL     1      18.760  22.061  13.336  1.00  0.00     0.000 C 
HETATM   39  C14 UNL     1      17.895  22.466  14.502  1.00  0.00     0.007 C 
HETATM   40  C15 UNL     1      16.695  21.507  14.528  1.00  0.00     0.021 C 
BRANCH  40  41
HETATM   41  C16 UNL     1      15.690  22.002  15.539  1.00  0.00     0.237 C 
BRANCH  41  42
HETATM   42  N1  UNL     1      15.840  21.389  16.808  1.00  0.00    -0.073 N 
ATOM     43  H12 UNL     1      16.472  20.590  16.757  1.00  0.00     0.277 HD
ATOM     44  H11 UNL     1      16.378  21.982  17.441  1.00  0.00     0.277 HD
BRANCH  42  45
HETATM   45  C17 UNL     1      14.586  21.017  17.392  1.00  0.00     0.260 C 
BRANCH  45  46
HETATM   46  C18 UNL     1      13.659  20.312  16.433  1.00  0.00     0.228 C 
BRANCH  46  47
HETATM   47  O1  UNL     1      14.079  18.969  16.414  1.00  0.00    -0.286 OA
BRANCH  47  48
HETATM   48  N2  UNL     1      13.364  18.290  15.520  1.00  0.00    -0.311 N 
ATOM     49  H22 UNL     1      13.553  18.280  14.517  1.00  0.00     0.184 HD
ATOM     50  H21 UNL     1      12.609  17.792  15.993  1.00  0.00     0.184 HD
ENDBRANCH  47  48
ENDBRANCH  46  47
ENDBRANCH  45  46
ENDBRANCH  42  45
ENDBRANCH  41  42
ENDBRANCH  40  41
ENDBRANCH  31  35
ENDBRANCH  27  28
ENDBRANCH  26  27
ENDBRANCH   1  26
TORSDOF 21
ENDMDL
MODEL 2
REMARK VINA RESULT: -6.889031926      4.612      7.619
REMARK  21 active torsions:
REMARK  status: ('A' for Active; 'I' for Inactive)
REMARK    1  A    between atoms: C2_2  and  C3_3 
REMARK    2  A    between atoms: C2_2  and  C20_29 
REMARK    3  A    between atoms: C3_3  and  C4_4 
REMARK    4  A    between atoms: C4_4  and  C5_5 
REMARK    5  A    between atoms: C5_5  and  C6_6 
REMARK    6  A    between atoms: C9_9  and  C10_10 
REMARK    7  A    between atoms: C15_15  and  C16_16 
REMARK    8  A    between atoms: C16_16  and  N1_17 
REMARK    9  A    between atoms: N1_17  and  C17_20 
REMARK   10  A    between atoms: C17_20  and  C18_21 
REMARK   11  A    between atoms: C18_21  and  O1_22 
REMARK   12  A    between atoms: O1_22  and  N2_23 
REMARK   13  A    between atoms: C20_29  and  C21_30 
REMARK   14  A    between atoms: N4_33  and  C24_34 
REMARK   15  A    between atoms: C24_34  and  O2_35 
REMARK   16  A    between atoms: C24_34  and  C25_37 
REMARK   17  A    between atoms: C25_37  and  N5_38 
REMARK   18  A    between atoms: C25_37  and  C26_42 
REMARK   19  A    between atoms: C26_42  and  C27_43 
REMARK   20  A    between atoms: C27_43  and  C28_44 
REMARK   21  A    between atoms: C28_44  and  N6_45 
ROOT
HETATM    1  C3  UNL     1      10.461  17.477  10.097  1.00  0.00     0.004 C 
ENDROOT
BRANCH   1   2
HETATM    2  C2  UNL     1      11.737  17.242   9.301  1.00  0.00    -0.018 C 
HETATM    3  C1  UNL     1      11.562  17.766   7.926  1.00  0.00     0.010 C 
BRANCH   2   4
HETATM    4  C20 UNL     1      12.930  17.697  10.063  1.00  0.00     0.010 C 
BRANCH   4   5
HETATM    5  C21 UNL     1      13.454  16.726  11.043  1.00  0.00     0.005 C 
HETATM    6  C22 UNL     1      14.799  16.124  10.778  1.00  0.00     0.026 C 
HETATM    7  C23 UNL     1      15.140  15.643  12.230  1.00  0.00     0.125 C 
HETATM    8  N4  UNL     1      14.953  16.893  12.902  1.00  0.00    -0.363 N 
HETATM    9  C30 UNL     1      13.619  17.355  12.424  1.00  0.00     0.129 C 
BRANCH   8  10
HETATM   10  C24 UNL     1      15.712  17.639  13.797  1.00  0.00     0.144 C 
BRANCH  10  11
HETATM   11  O2  UNL     1      15.747  17.194  15.019  1.00  0.00    -0.348 OA
ATOM     12  H2  UNL     1      16.612  17.094  15.398  1.00  0.00     0.219 HD
ENDBRANCH  10  11
BRANCH  10  13
HETATM   13  C25 UNL     1      16.481  18.851  13.577  1.00  0.00     0.257 C 
BRANCH  13  14
HETATM   14  N5  UNL     1      17.420  19.120  14.659  1.00  0.00    -0.068 N 
ATOM     15  H53 UNL     1      17.028  19.781  15.329  1.00  0.00     0.275 HD
ATOM     16  H52 UNL     1      17.520  18.308  15.268  1.00  0.00     0.275 HD
ATOM     17  H51 UNL     1      18.327  19.437  14.317  1.00  0.00     0.275 HD
ENDBRANCH  13  14
BRANCH  13  18
HETATM   18  C26 UNL     1      15.705  20.105  13.347  1.00  0.00     0.043 C 
BRANCH  18  19
HETATM   19  C27 UNL     1      15.897  20.765  12.024  1.00  0.00     0.022 C 
BRANCH  19  20
HETATM   20  C28 UNL     1      17.336  21.337  12.029  1.00  0.00     0.122 C 
BRANCH  20  21
HETATM   21  N6  UNL     1      17.366  22.640  12.608  1.00  0.00    -0.367 N 
HETATM   22  C29 UNL     1      18.087  22.928  13.665  1.00  0.00     0.196 C 
HETATM   23  N7  UNL     1      18.074  24.244  14.193  1.00  0.00    -0.067 NA
HETATM   24  N8  UNL     1      18.884  21.943  14.296  1.00  0.00    -0.067 NA
ATOM     25  H6  UNL     1      16.804  23.378  12.183  1.00  0.00     0.161 HD
ENDBRANCH  20  21
ENDBRANCH  19  20
ENDBRANCH  18  19
ENDBRANCH  13  18
ENDBRANCH  10  13
ENDBRANCH   8  10
ENDBRANCH   4   5
ENDBRANCH   2   4
ENDBRANCH   1   2
BRANCH   1  26
HETATM   26  C4  UNL     1      10.330  18.894  10.486  1.00  0.00     0.005 C 
BRANCH  26  27
HETATM   27  C5  UNL     1       9.994  19.115  11.965  1.00  0.00     0.040 C 
BRANCH  27  28
HETATM   28  C6  UNL     1      10.949  20.223  12.374  1.00  0.00    -0.043 A 
HETATM   29  C7  UNL     1      11.638  20.953  11.437  1.00  0.00     0.010 A 
HETATM   30  C8  UNL     1      12.489  21.972  11.830  1.00  0.00     0.026 A 
HETATM   31  C9  UNL     1      12.635  22.247  13.180  1.00  0.00     0.013 A 
HETATM   32  N3  UNL     1      11.969  21.541  14.085  1.00  0.00    -0.368 N 
HETATM   33  C19 UNL     1      11.148  20.556  13.695  1.00  0.00     0.095 A 
ATOM     34  H3  UNL     1      12.082  21.748  15.077  1.00  0.00     0.165 HD
BRANCH  31  35
HETATM   35  C10 UNL     1      13.559  23.370  13.548  1.00  0.00     0.041 C 
HETATM   36  C11 UNL     1      13.089  24.641  12.871  1.00  0.00     0.011 C 
HETATM   37  C12 UNL     1      11.892  25.263  13.524  1.00  0.00     0.001 C 
HETATM   38  C13 UNL     1      12.106  25.415  15.024  1.00  0.00     0.000 C 
HETATM   39  C14 UNL     1      13.513  25.002  15.375  1.00  0.00     0.007 C 
HETATM   40  C15 UNL     1      13.643  23.510  15.033  1.00  0.00     0.021 C 
BRANCH  40  41
HETATM   41  C16 UNL     1      14.958  22.995  15.566  1.00  0.00     0.237 C 
BRANCH  41  42
HETATM   42  N1  UNL     1      14.847  22.455  16.872  1.00  0.00    -0.073 N 
ATOM     43  H12 UNL     1      15.495  22.911  17.513  1.00  0.00     0.277 HD
ATOM     44  H11 UNL     1      13.966  22.727  17.308  1.00  0.00     0.277 HD
BRANCH  42  45
HETATM   45  C17 UNL     1      15.014  21.032  16.894  1.00  0.00     0.260 C 
BRANCH  45  46
HETATM   46  C18 UNL     1      13.711  20.271  16.905  1.00  0.00     0.228 C 
BRANCH  46  47
HETATM   47  O1  UNL     1      14.037  18.953  16.532  1.00  0.00    -0.286 OA
BRANCH  47  48
HETATM   48  N2  UNL     1      12.999  18.396  15.910  1.00  0.00    -0.311 N 
ATOM     49  H22 UNL     1      12.071  18.291  16.319  1.00  0.00     0.184 HD
ATOM     50  H21 UNL     1      13.281  18.098  14.976  1.00  0.00     0.184 HD
ENDBRANCH  47  48
ENDBRANCH  46  47
ENDBRANCH  45  46
ENDBRANCH  42  45
ENDBRANCH  41  42
ENDBRANCH  40  41
ENDBRANCH  31  35
ENDBRANCH  27  28
ENDBRANCH  26  27
ENDBRANCH   1  26
TORSDOF 21
ENDMDL
MODEL 3
REMARK VINA RESULT: -6.878730173      1.844      3.807
REMARK  21 active torsions:
REMARK  status: ('A' for Active; 'I' for Inactive)
REMARK    1  A    between atoms: C2_2  and  C3_3 
REMARK    2  A    between atoms: C2_2  and  C20_29 
REMARK    3  A    between atoms: C3_3  and  C4_4 
REMARK    4  A    between atoms: C4_4  and  C5_5 
REMARK    5  A    between atoms: C5_5  and  C6_6 
REMARK    6  A    between atoms: C9_9  and  C10_10 
REMARK    7  A    between atoms: C15_15  and  C16_16 
REMARK    8  A    between atoms: C16_16  and  N1_17 
REMARK    9  A    between atoms: N1_17  and  C17_20 
REMARK   10  A    between atoms: C17_20  and  C18_21 
REMARK   11  A    between atoms: C18_21  and  O1_22 
REMARK   12  A    between atoms: O1_22  and  N2_23 
REMARK   13  A    between atoms: C20_29  and  C21_30 
REMARK   14  A    between atoms: N4_33  and  C24_34 
REMARK   15  A    between atoms: C24_34  and  O2_35 
REMARK   16  A    between atoms: C24_34  and  C25_37 
REMARK   17  A    between atoms: C25_37  and  N5_38 
REMARK   18  A    between atoms: C25_37  and  C26_42 
REMARK   19  A    between atoms: C26_42  and  C27_43 
REMARK   20  A    between atoms: C27_43  and  C28_44 
REMARK   21  A    between atoms: C28_44  and  N6_45 
ROOT
HETATM    1  C3  UNL     1      10.308  19.739   8.744  1.00  0.00     0.004 C 
ENDROOT
BRANCH   1   2
HETATM    2  C2  UNL     1       9.515  20.562   7.737  1.00  0.00    -0.018 C 
HETATM    3  C1  UNL     1       8.081  20.546   8.110  1.00  0.00     0.010 C 
BRANCH   2   4
HETATM    4  C20 UNL     1      10.153  21.886   7.514  1.00  0.00     0.010 C 
BRANCH   4   5
HETATM    5  C21 UNL     1      11.016  21.971   6.319  1.00  0.00     0.005 C 
HETATM    6  C22 UNL     1      12.497  21.901   6.522  1.00  0.00     0.026 C 
HETATM    7  C23 UNL     1      12.923  21.497   5.069  1.00  0.00     0.125 C 
HETATM    8  N4  UNL     1      12.090  20.341   4.934  1.00  0.00    -0.363 N 
HETATM    9  C30 UNL     1      10.742  20.825   5.347  1.00  0.00     0.129 C 
BRANCH   8  10
HETATM   10  C24 UNL     1      12.309  19.025   4.538  1.00  0.00     0.144 C 
BRANCH  10  11
HETATM   11  O2  UNL     1      13.492  18.548   4.788  1.00  0.00    -0.348 OA
ATOM     12  H2  UNL     1      13.590  18.098   5.619  1.00  0.00     0.219 HD
ENDBRANCH  10  11
BRANCH  10  13
HETATM   13  C25 UNL     1      11.411  18.092   3.883  1.00  0.00     0.257 C 
BRANCH  13  14
HETATM   14  N5  UNL     1      11.047  16.972   4.741  1.00  0.00    -0.068 N 
ATOM     15  H53 UNL     1      11.199  17.198   5.724  1.00  0.00     0.275 HD
ATOM     16  H52 UNL     1      10.036  16.837   4.760  1.00  0.00     0.275 HD
ATOM     17  H51 UNL     1      11.528  16.110   4.484  1.00  0.00     0.275 HD
ENDBRANCH  13  14
BRANCH  13  18
HETATM   18  C26 UNL     1      11.871  17.519   2.584  1.00  0.00     0.043 C 
BRANCH  18  19
HETATM   19  C27 UNL     1      11.999  16.034   2.528  1.00  0.00     0.022 C 
BRANCH  19  20
HETATM   20  C28 UNL     1      13.487  15.738   2.219  1.00  0.00     0.122 C 
BRANCH  20  21
HETATM   21  N6  UNL     1      14.324  16.146   3.299  1.00  0.00    -0.367 N 
HETATM   22  C29 UNL     1      15.601  16.406   3.146  1.00  0.00     0.196 C 
HETATM   23  N7  UNL     1      16.379  16.808   4.261  1.00  0.00    -0.067 NA
HETATM   24  N8  UNL     1      16.222  16.293   1.880  1.00  0.00    -0.067 NA
ATOM     25  H6  UNL     1      13.914  16.238   4.228  1.00  0.00     0.161 HD
ENDBRANCH  20  21
ENDBRANCH  19  20
ENDBRANCH  18  19
ENDBRANCH  13  18
ENDBRANCH  10  13
ENDBRANCH   8  10
ENDBRANCH   4   5
ENDBRANCH   2   4
ENDBRANCH   1   2
BRANCH   1  26
HETATM   26  C4  UNL     1       9.519  18.592   9.231  1.00  0.00     0.005 C 
BRANCH  26  27
HETATM   27  C5  UNL     1      10.273  17.257   9.225  1.00  0.00     0.040 C 
BRANCH  27  28
HETATM   28  C6  UNL     1      11.324  17.450  10.305  1.00  0.00    -0.043 A 
HETATM   29  C7  UNL     1      10.975  17.791  11.587  1.00  0.00     0.010 A 
HETATM   30  C8  UNL     1      11.947  17.942  12.562  1.00  0.00     0.026 A 
HETATM   31  C9  UNL     1      13.276  17.743  12.226  1.00  0.00     0.013 A 
HETATM   32  N3  UNL     1      13.613  17.414  10.985  1.00  0.00    -0.368 N 
HETATM   33  C19 UNL     1      12.665  17.271  10.049  1.00  0.00     0.095 A 
ATOM     34  H3  UNL     1      14.594  17.270  10.744  1.00  0.00     0.165 HD
BRANCH  31  35
HETATM   35  C10 UNL     1      14.285  17.907  13.323  1.00  0.00     0.041 C 
HETATM   36  C11 UNL     1      14.200  16.717  14.257  1.00  0.00     0.011 C 
HETATM   37  C12 UNL     1      14.834  15.475  13.706  1.00  0.00     0.001 C 
HETATM   38  C13 UNL     1      16.244  15.757  13.207  1.00  0.00     0.000 C 
HETATM   39  C14 UNL     1      16.616  17.182  13.532  1.00  0.00     0.007 C 
HETATM   40  C15 UNL     1      15.653  18.089  12.751  1.00  0.00     0.021 C 
BRANCH  40  41
HETATM   41  C16 UNL     1      16.119  19.519  12.868  1.00  0.00     0.237 C 
BRANCH  41  42
HETATM   42  N1  UNL     1      17.528  19.631  12.973  1.00  0.00    -0.073 N 
ATOM     43  H12 UNL     1      17.952  18.728  13.184  1.00  0.00     0.277 HD
ATOM     44  H11 UNL     1      17.952  19.801  12.061  1.00  0.00     0.277 HD
BRANCH  42  45
HETATM   45  C17 UNL     1      17.932  20.624  13.923  1.00  0.00     0.260 C 
BRANCH  45  46
HETATM   46  C18 UNL     1      17.335  20.426  15.295  1.00  0.00     0.228 C 
BRANCH  46  47
HETATM   47  O1  UNL     1      18.227  19.577  15.978  1.00  0.00    -0.286 OA
BRANCH  47  48
HETATM   48  N2  UNL     1      19.012  20.303  16.772  1.00  0.00    -0.311 N 
ATOM     49  H22 UNL     1      18.676  21.021  17.415  1.00  0.00     0.184 HD
ATOM     50  H21 UNL     1      19.984  20.028  16.635  1.00  0.00     0.184 HD
ENDBRANCH  47  48
ENDBRANCH  46  47
ENDBRANCH  45  46
ENDBRANCH  42  45
ENDBRANCH  41  42
ENDBRANCH  40  41
ENDBRANCH  31  35
ENDBRANCH  27  28
ENDBRANCH  26  27
ENDBRANCH   1  26
TORSDOF 21
ENDMDL
MODEL 4
REMARK VINA RESULT: -6.774340855      1.318      1.629
REMARK  21 active torsions:
REMARK  status: ('A' for Active; 'I' for Inactive)
REMARK    1  A    between atoms: C2_2  and  C3_3 
REMARK    2  A    between atoms: C2_2  and  C20_29 
REMARK    3  A    between atoms: C3_3  and  C4_4 
REMARK    4  A    between atoms: C4_4  and  C5_5 
REMARK    5  A    between atoms: C5_5  and  C6_6 
REMARK    6  A    between atoms: C9_9  and  C10_10 
REMARK    7  A    between atoms: C15_15  and  C16_16 
REMARK    8  A    between atoms: C16_16  and  N1_17 
REMARK    9  A    between atoms: N1_17  and  C17_20 
REMARK   10  A    between atoms: C17_20  and  C18_21 
REMARK   11  A    between atoms: C18_21  and  O1_22 
REMARK   12  A    between atoms: O1_22  and  N2_23 
REMARK   13  A    between atoms: C20_29  and  C21_30 
REMARK   14  A    between atoms: N4_33  and  C24_34 
REMARK   15  A    between atoms: C24_34  and  O2_35 
REMARK   16  A    between atoms: C24_34  and  C25_37 
REMARK   17  A    between atoms: C25_37  and  N5_38 
REMARK   18  A    between atoms: C25_37  and  C26_42 
REMARK   19  A    between atoms: C26_42  and  C27_43 
REMARK   20  A    between atoms: C27_43  and  C28_44 
REMARK   21  A    between atoms: C28_44  and  N6_45 
ROOT
HETATM    1  C3  UNL     1      11.891  17.267  10.980  1.00  0.00     0.004 C 
ENDROOT
BRANCH   1   2
HETATM    2  C2  UNL     1      11.051  16.949   9.751  1.00  0.00    -0.018 C 
HETATM    3  C1  UNL     1       9.797  17.737   9.796  1.00  0.00     0.010 C 
BRANCH   2   4
HETATM    4  C20 UNL     1      11.868  17.028   8.512  1.00  0.00     0.010 C 
BRANCH   4   5
HETATM    5  C21 UNL     1      11.329  17.916   7.463  1.00  0.00     0.005 C 
HETATM    6  C22 UNL     1      11.878  19.306   7.375  1.00  0.00     0.026 C 
HETATM    7  C23 UNL     1      11.455  19.641   5.904  1.00  0.00     0.125 C 
HETATM    8  N4  UNL     1      12.058  18.513   5.263  1.00  0.00    -0.363 N 
HETATM    9  C30 UNL     1      11.581  17.352   6.067  1.00  0.00     0.129 C 
BRANCH   8  10
HETATM   10  C24 UNL     1      12.902  18.352   4.169  1.00  0.00     0.144 C 
BRANCH  10  11
HETATM   11  O2  UNL     1      14.115  17.968   4.440  1.00  0.00    -0.348 OA
ATOM     12  H2  UNL     1      14.802  18.379   3.929  1.00  0.00     0.219 HD
ENDBRANCH  10  11
BRANCH  10  13
HETATM   13  C25 UNL     1      12.636  18.548   2.755  1.00  0.00     0.257 C 
BRANCH  13  14
HETATM   14  N5  UNL     1      11.251  18.920   2.494  1.00  0.00    -0.068 N 
ATOM     15  H53 UNL     1      10.725  18.131   2.119  1.00  0.00     0.275 HD
ATOM     16  H52 UNL     1      10.739  19.060   3.365  1.00  0.00     0.275 HD
ATOM     17  H51 UNL     1      11.174  19.736   1.887  1.00  0.00     0.275 HD
ENDBRANCH  13  14
BRANCH  13  18
HETATM   18  C26 UNL     1      12.965  17.411   1.847  1.00  0.00     0.043 C 
BRANCH  18  19
HETATM   19  C27 UNL     1      13.943  17.698   0.758  1.00  0.00     0.022 C 
BRANCH  19  20
HETATM   20  C28 UNL     1      15.121  16.713   0.962  1.00  0.00     0.122 C 
BRANCH  20  21
HETATM   21  N6  UNL     1      14.668  15.361   0.920  1.00  0.00    -0.367 N 
HETATM   22  C29 UNL     1      14.983  14.538  -0.051  1.00  0.00     0.196 C 
HETATM   23  N7  UNL     1      14.502  13.205  -0.034  1.00  0.00    -0.067 NA
HETATM   24  N8  UNL     1      15.801  14.959  -1.128  1.00  0.00    -0.067 NA
ATOM     25  H6  UNL     1      14.076  15.020   1.678  1.00  0.00     0.161 HD
ENDBRANCH  20  21
ENDBRANCH  19  20
ENDBRANCH  18  19
ENDBRANCH  13  18
ENDBRANCH  10  13
ENDBRANCH   8  10
ENDBRANCH   4   5
ENDBRANCH   2   4
ENDBRANCH   1   2
BRANCH   1  26
HETATM   26  C4  UNL     1      13.299  17.512  10.612  1.00  0.00     0.005 C 
BRANCH  26  27
HETATM   27  C5  UNL     1      14.302  16.575  11.294  1.00  0.00     0.040 C 
BRANCH  27  28
HETATM   28  C6  UNL     1      15.052  17.500  12.237  1.00  0.00    -0.043 A 
HETATM   29  C7  UNL     1      14.904  18.863  12.167  1.00  0.00     0.010 A 
HETATM   30  C8  UNL     1      15.581  19.687  13.050  1.00  0.00     0.026 A 
HETATM   31  C9  UNL     1      16.409  19.120  14.004  1.00  0.00     0.013 A 
HETATM   32  N3  UNL     1      16.552  17.802  14.071  1.00  0.00    -0.368 N 
HETATM   33  C19 UNL     1      15.893  17.012  13.212  1.00  0.00     0.095 A 
ATOM     34  H3  UNL     1      17.164  17.391  14.776  1.00  0.00     0.165 HD
BRANCH  31  35
HETATM   35  C10 UNL     1      17.108  20.059  14.942  1.00  0.00     0.041 C 
HETATM   36  C11 UNL     1      18.603  19.829  14.850  1.00  0.00     0.011 C 
HETATM   37  C12 UNL     1      19.226  20.415  13.618  1.00  0.00     0.001 C 
HETATM   38  C13 UNL     1      18.822  21.872  13.442  1.00  0.00     0.000 C 
HETATM   39  C14 UNL     1      18.011  22.316  14.633  1.00  0.00     0.007 C 
HETATM   40  C15 UNL     1      16.727  21.472  14.644  1.00  0.00     0.021 C 
BRANCH  40  41
HETATM   41  C16 UNL     1      15.783  22.024  15.684  1.00  0.00     0.237 C 
BRANCH  41  42
HETATM   42  N1  UNL     1      15.818  21.294  16.899  1.00  0.00    -0.073 N 
ATOM     43  H12 UNL     1      16.352  20.432  16.793  1.00  0.00     0.277 HD
ATOM     44  H11 UNL     1      16.400  21.764  17.592  1.00  0.00     0.277 HD
BRANCH  42  45
HETATM   45  C17 UNL     1      14.510  21.030  17.419  1.00  0.00     0.260 C 
BRANCH  45  46
HETATM   46  C18 UNL     1      13.617  20.285  16.458  1.00  0.00     0.228 C 
BRANCH  46  47
HETATM   47  O1  UNL     1      14.026  18.939  16.523  1.00  0.00    -0.286 OA
BRANCH  47  48
HETATM   48  N2  UNL     1      13.266  18.203  15.713  1.00  0.00    -0.311 N 
ATOM     49  H22 UNL     1      13.205  18.333  14.704  1.00  0.00     0.184 HD
ATOM     50  H21 UNL     1      12.766  17.502  16.260  1.00  0.00     0.184 HD
ENDBRANCH  47  48
ENDBRANCH  46  47
ENDBRANCH  45  46
ENDBRANCH  42  45
ENDBRANCH  41  42
ENDBRANCH  40  41
ENDBRANCH  31  35
ENDBRANCH  27  28
ENDBRANCH  26  27
ENDBRANCH   1  26
TORSDOF 21
ENDMDL
MODEL 5
REMARK VINA RESULT: -6.709147168      4.979     10.823
REMARK  21 active torsions:
REMARK  status: ('A' for Active; 'I' for Inactive)
REMARK    1  A    between atoms: C2_2  and  C3_3 
REMARK    2  A    between atoms: C2_2  and  C20_29 
REMARK    3  A    between atoms: C3_3  and  C4_4 
REMARK    4  A    between atoms: C4_4  and  C5_5 
REMARK    5  A    between atoms: C5_5  and  C6_6 
REMARK    6  A    between atoms: C9_9  and  C10_10 
REMARK    7  A    between atoms: C15_15  and  C16_16 
REMARK    8  A    between atoms: C16_16  and  N1_17 
REMARK    9  A    between atoms: N1_17  and  C17_20 
REMARK   10  A    between atoms: C17_20  and  C18_21 
REMARK   11  A    between atoms: C18_21  and  O1_22 
REMARK   12  A    between atoms: O1_22  and  N2_23 
REMARK   13  A    between atoms: C20_29  and  C21_30 
REMARK   14  A    between atoms: N4_33  and  C24_34 
REMARK   15  A    between atoms: C24_34  and  O2_35 
REMARK   16  A    between atoms: C24_34  and  C25_37 
REMARK   17  A    between atoms: C25_37  and  N5_38 
REMARK   18  A    between atoms: C25_37  and  C26_42 
REMARK   19  A    between atoms: C26_42  and  C27_43 
REMARK   20  A    between atoms: C27_43  and  C28_44 
REMARK   21  A    between atoms: C28_44  and  N6_45 
ROOT
HETATM    1  C3  UNL     1      14.235  16.620  10.602  1.00  0.00     0.004 C 
ENDROOT
BRANCH   1   2
HETATM    2  C2  UNL     1      14.110  16.304  12.085  1.00  0.00    -0.018 C 
HETATM    3  C1  UNL     1      14.799  15.025  12.376  1.00  0.00     0.010 C 
BRANCH   2   4
HETATM    4  C20 UNL     1      14.475  17.484  12.913  1.00  0.00     0.010 C 
BRANCH   4   5
HETATM    5  C21 UNL     1      15.757  18.123  12.559  1.00  0.00     0.005 C 
HETATM    6  C22 UNL     1      15.746  19.588  12.251  1.00  0.00     0.026 C 
HETATM    7  C23 UNL     1      17.267  19.894  12.471  1.00  0.00     0.125 C 
HETATM    8  N4  UNL     1      17.385  19.367  13.797  1.00  0.00    -0.363 N 
HETATM    9  C30 UNL     1      16.772  18.013  13.695  1.00  0.00     0.129 C 
BRANCH   8  10
HETATM   10  C24 UNL     1      17.903  19.852  14.994  1.00  0.00     0.144 C 
BRANCH  10  11
HETATM   11  O2  UNL     1      18.660  19.029  15.657  1.00  0.00    -0.348 OA
ATOM     12  H2  UNL     1      18.493  18.973  16.590  1.00  0.00     0.219 HD
ENDBRANCH  10  11
BRANCH  10  13
HETATM   13  C25 UNL     1      17.727  21.147  15.624  1.00  0.00     0.257 C 
BRANCH  13  14
HETATM   14  N5  UNL     1      18.619  21.340  16.760  1.00  0.00    -0.068 N 
ATOM     15  H53 UNL     1      18.624  20.520  17.366  1.00  0.00     0.275 HD
ATOM     16  H52 UNL     1      19.595  21.332  16.466  1.00  0.00     0.275 HD
ATOM     17  H51 UNL     1      18.402  22.186  17.288  1.00  0.00     0.275 HD
ENDBRANCH  13  14
BRANCH  13  18
HETATM   18  C26 UNL     1      16.349  21.487  16.085  1.00  0.00     0.043 C 
BRANCH  18  19
HETATM   19  C27 UNL     1      15.452  22.117  15.072  1.00  0.00     0.022 C 
BRANCH  19  20
HETATM   20  C28 UNL     1      14.120  21.328  15.122  1.00  0.00     0.122 C 
BRANCH  20  21
HETATM   21  N6  UNL     1      14.299  20.062  15.755  1.00  0.00    -0.367 N 
HETATM   22  C29 UNL     1      13.352  19.156  15.806  1.00  0.00     0.196 C 
HETATM   23  N7  UNL     1      13.593  17.917  16.450  1.00  0.00    -0.067 NA
HETATM   24  N8  UNL     1      12.082  19.395  15.228  1.00  0.00    -0.067 NA
ATOM     25  H6  UNL     1      15.200  19.853  16.184  1.00  0.00     0.161 HD
ENDBRANCH  20  21
ENDBRANCH  19  20
ENDBRANCH  18  19
ENDBRANCH  13  18
ENDBRANCH  10  13
ENDBRANCH   8  10
ENDBRANCH   4   5
ENDBRANCH   2   4
ENDBRANCH   1   2
BRANCH   1  26
HETATM   26  C4  UNL     1      12.975  17.170  10.067  1.00  0.00     0.005 C 
BRANCH  26  27
HETATM   27  C5  UNL     1      11.710  16.491  10.606  1.00  0.00     0.040 C 
BRANCH  27  28
HETATM   28  C6  UNL     1      10.647  17.563  10.441  1.00  0.00    -0.043 A 
HETATM   29  C7  UNL     1       9.808  17.574   9.354  1.00  0.00     0.010 A 
HETATM   30  C8  UNL     1       8.831  18.548   9.234  1.00  0.00     0.026 A 
HETATM   31  C9  UNL     1       8.710  19.510  10.223  1.00  0.00     0.013 A 
HETATM   32  N3  UNL     1       9.522  19.499  11.273  1.00  0.00    -0.368 N 
HETATM   33  C19 UNL     1      10.465  18.552  11.381  1.00  0.00     0.095 A 
ATOM     34  H3  UNL     1       9.429  20.210  11.997  1.00  0.00     0.165 HD
BRANCH  31  35
HETATM   35  C10 UNL     1       7.628  20.533  10.047  1.00  0.00     0.041 C 
HETATM   36  C11 UNL     1       8.250  21.915  10.027  1.00  0.00     0.011 C 
HETATM   37  C12 UNL     1       8.932  22.248   8.734  1.00  0.00     0.001 C 
HETATM   38  C13 UNL     1       8.016  21.976   7.549  1.00  0.00     0.000 C 
HETATM   39  C14 UNL     1       6.654  21.566   8.049  1.00  0.00     0.007 C 
HETATM   40  C15 UNL     1       6.834  20.246   8.815  1.00  0.00     0.021 C 
BRANCH  40  41
HETATM   41  C16 UNL     1       5.476  19.680   9.148  1.00  0.00     0.237 C 
BRANCH  41  42
HETATM   42  N1  UNL     1       5.239  18.424   8.536  1.00  0.00    -0.073 N 
ATOM     43  H12 UNL     1       5.862  18.279   7.742  1.00  0.00     0.277 HD
ATOM     44  H11 UNL     1       5.554  17.659   9.133  1.00  0.00     0.277 HD
BRANCH  42  45
HETATM   45  C17 UNL     1       3.870  18.248   8.154  1.00  0.00     0.260 C 
BRANCH  45  46
HETATM   46  C18 UNL     1       2.912  18.244   9.321  1.00  0.00     0.228 C 
BRANCH  46  47
HETATM   47  O1  UNL     1       2.291  16.981   9.300  1.00  0.00    -0.286 OA
BRANCH  47  48
HETATM   48  N2  UNL     1       2.168  16.525  10.545  1.00  0.00    -0.311 N 
ATOM     49  H22 UNL     1       2.028  17.115  11.365  1.00  0.00     0.184 HD
ATOM     50  H21 UNL     1       2.236  15.507  10.543  1.00  0.00     0.184 HD
ENDBRANCH  47  48
ENDBRANCH  46  47
ENDBRANCH  45  46
ENDBRANCH  42  45
ENDBRANCH  41  42
ENDBRANCH  40  41
ENDBRANCH  31  35
ENDBRANCH  27  28
ENDBRANCH  26  27
ENDBRANCH   1  26
TORSDOF 21
ENDMDL
