MODEL 1
REMARK VINA RESULT: -6.847695543      0.000      0.000
REMARK  16 active torsions:
REMARK  status: ('A' for Active; 'I' for Inactive)
REMARK    1  A    between atoms: N1_5  and  C5_7 
REMARK    2  A    between atoms: C5_7  and  C6_8 
REMARK    3  A    between atoms: C6_8  and  C7_9 
REMARK    4  A    between atoms: C7_9  and  C8_10 
REMARK    5  A    between atoms: C8_10  and  C9_11 
REMARK    6  A    between atoms: C9_11  and  C10_12 
REMARK       I    between atoms: C10_12  and  N2_14 
REMARK    7  A    between atoms: N2_14  and  C11_16 
REMARK    8  A    between atoms: C13_18  and  N3_19 
REMARK    9  A    between atoms: N3_19  and  C14_22 
REMARK   10  A    between atoms: C14_22  and  C15_23 
REMARK   11  A    between atoms: C15_23  and  C16_24 
REMARK   12  A    between atoms: C16_24  and  N4_25 
REMARK   13  A    between atoms: N4_25  and  C17_27 
REMARK   14  A    between atoms: C17_27  and  C18_28 
REMARK   15  A    between atoms: C18_28  and  C19_29 
REMARK   16  A    between atoms: C19_29  and  N5_30 
ROOT
HETATM    1  C11 UNL     1      11.974  19.918  12.542  1.00  0.00     0.115 C 
HETATM    2  C12 UNL     1      13.244  19.239  12.141  1.00  0.00     0.060 C 
HETATM    3  C13 UNL     1      12.965  17.776  12.008  1.00  0.00     0.188 C 
HETATM    4  C21 UNL     1      11.508  17.395  12.027  1.00  0.00     0.041 C 
HETATM    5  C22 UNL     1      10.600  18.275  11.284  1.00  0.00     0.028 C 
HETATM    6  C23 UNL     1      11.047  19.737  11.306  1.00  0.00     0.149 C 
HETATM    7  O2  UNL     1      11.803  19.925  10.193  1.00  0.00    -0.383 OA
HETATM    8  C24 UNL     1      11.277  19.118   9.187  1.00  0.00     0.177 C 
HETATM    9  C25 UNL     1      10.390  18.079   9.835  1.00  0.00    -0.020 C 
HETATM   10  C26 UNL     1      10.671  16.757   9.246  1.00  0.00     0.017 C 
HETATM   11  C27 UNL     1       8.947  18.467   9.425  1.00  0.00     0.017 C 
ENDROOT
BRANCH   1  12
HETATM   12  N2  UNL     1      12.090  21.316  12.790  1.00  0.00    -0.354 N 
HETATM   13  C10 UNL     1      11.420  21.954  13.884  1.00  0.00     0.217 C 
HETATM   14  O1  UNL     1      10.717  21.235  14.607  1.00  0.00    -0.274 OA
ATOM     15  H2  UNL     1      12.667  21.881  12.167  1.00  0.00     0.162 HD
BRANCH  13  16
HETATM   16  C9  UNL     1      11.577  23.396  14.109  1.00  0.00     0.103 C 
BRANCH  16  17
HETATM   17  C8  UNL     1      12.685  23.704  15.035  1.00  0.00     0.009 C 
BRANCH  17  18
HETATM   18  C7  UNL     1      13.986  24.145  14.536  1.00  0.00     0.002 C 
BRANCH  18  19
HETATM   19  C6  UNL     1      15.078  24.477  15.482  1.00  0.00     0.020 C 
BRANCH  19  20
HETATM   20  C5  UNL     1      16.419  23.932  15.144  1.00  0.00     0.119 C 
BRANCH  20  21
HETATM   21  N1  UNL     1      16.749  22.777  15.913  1.00  0.00    -0.390 N 
HETATM   22  C4  UNL     1      17.591  21.868  15.529  1.00  0.00     0.031 A 
HETATM   23  C3  UNL     1      18.235  21.959  14.328  1.00  0.00     0.053 A 
HETATM   24  C28 UNL     1      17.839  20.795  16.334  1.00  0.00     0.046 A 
HETATM   25  C2  UNL     1      19.143  20.993  13.888  1.00  0.00     0.007 A 
HETATM   26  C1  UNL     1      19.817  21.122  12.574  1.00  0.00     0.068 C 
HETATM   27  N8  UNL     1      19.364  19.949  14.709  1.00  0.00    -0.369 N 
HETATM   28  C29 UNL     1      18.740  19.833  15.902  1.00  0.00     0.090 A 
ATOM     29  H8  UNL     1      20.021  19.224  14.422  1.00  0.00     0.165 HD
ATOM     30  H1  UNL     1      16.295  22.659  16.818  1.00  0.00     0.159 HD
ENDBRANCH  20  21
ENDBRANCH  19  20
ENDBRANCH  18  19
ENDBRANCH  17  18
ENDBRANCH  16  17
ENDBRANCH  13  16
ENDBRANCH   1  12
BRANCH   3  31
HETATM   31  N3  UNL     1      13.611  17.279  10.809  1.00  0.00    -0.070 N 
ATOM     32  H32 UNL     1      12.916  17.039  10.102  1.00  0.00     0.277 HD
ATOM     33  H31 UNL     1      14.096  18.035  10.325  1.00  0.00     0.277 HD
BRANCH  31  34
HETATM   34  C14 UNL     1      14.497  16.179  11.034  1.00  0.00     0.237 C 
BRANCH  34  35
HETATM   35  C15 UNL     1      15.716  16.564  11.835  1.00  0.00     0.072 C 
BRANCH  35  36
HETATM   36  C16 UNL     1      15.976  15.726  13.037  1.00  0.00     0.061 C 
BRANCH  36  37
HETATM   37  N4  UNL     1      15.111  15.801  14.126  1.00  0.00    -0.382 N 
ATOM     38  H4  UNL     1      14.633  14.947  14.415  1.00  0.00     0.163 HD
BRANCH  37  39
HETATM   39  C17 UNL     1      14.857  16.954  14.841  1.00  0.00     0.061 C 
BRANCH  39  40
HETATM   40  C18 UNL     1      13.865  17.022  15.922  1.00  0.00     0.064 C 
BRANCH  40  41
HETATM   41  C19 UNL     1      13.125  18.366  15.745  1.00  0.00     0.127 C 
BRANCH  41  42
HETATM   42  N5  UNL     1      13.448  19.300  16.794  1.00  0.00    -0.367 N 
HETATM   43  C20 UNL     1      14.061  20.383  16.482  1.00  0.00     0.196 C 
HETATM   44  N6  UNL     1      14.391  21.322  17.484  1.00  0.00    -0.067 NA
HETATM   45  N7  UNL     1      14.415  20.650  15.138  1.00  0.00    -0.067 NA
ATOM     46  H5  UNL     1      13.194  19.105  17.762  1.00  0.00     0.161 HD
ENDBRANCH  41  42
ENDBRANCH  40  41
ENDBRANCH  39  40
ENDBRANCH  37  39
ENDBRANCH  36  37
ENDBRANCH  35  36
ENDBRANCH  34  35
ENDBRANCH  31  34
ENDBRANCH   3  31
TORSDOF 16
ENDMDL
MODEL 2
REMARK VINA RESULT: -6.697033560      3.878      7.458
REMARK  16 active torsions:
REMARK  status: ('A' for Active; 'I' for Inactive)
REMARK    1  A    between atoms: N1_5  and  C5_7 
REMARK    2  A    between atoms: C5_7  and  C6_8 
REMARK    3  A    between atoms: C6_8  and  C7_9 
REMARK    4  A    between atoms: C7_9  and  C8_10 
REMARK    5  A    between atoms: C8_10  and  C9_11 
REMARK    6  A    between atoms: C9_11  and  C10_12 
REMARK       I    between atoms: C10_12  and  N2_14 
REMARK    7  A    between atoms: N2_14  and  C11_16 
REMARK    8  A    between atoms: C13_18  and  N3_19 
REMARK    9  A    between atoms: N3_19  and  C14_22 
REMARK   10  A    between atoms: C14_22  and  C15_23 
REMARK   11  A    between atoms: C15_23  and  C16_24 
REMARK   12  A    between atoms: C16_24  and  N4_25 
REMARK   13  A    between atoms: N4_25  and  C17_27 
REMARK   14  A    between atoms: C17_27  and  C18_28 
REMARK   15  A    between atoms: C18_28  and  C19_29 
REMARK   16  A    between atoms: C19_29  and  N5_30 
ROOT
HETATM    1  C11 UNL     1      13.438  17.637  11.915  1.00  0.00     0.115 C 
HETATM    2  C12 UNL     1      13.431  17.835  10.434  1.00  0.00     0.060 C 
HETATM    3  C13 UNL     1      12.085  17.436   9.920  1.00  0.00     0.188 C 
HETATM    4  C21 UNL     1      11.033  17.216  10.975  1.00  0.00     0.041 C 
HETATM    5  C22 UNL     1      11.019  18.176  12.085  1.00  0.00     0.028 C 
HETATM    6  C23 UNL     1      12.416  18.687  12.438  1.00  0.00     0.149 C 
HETATM    7  O2  UNL     1      12.599  19.829  11.727  1.00  0.00    -0.383 OA
HETATM    8  C24 UNL     1      11.363  20.465  11.627  1.00  0.00     0.177 C 
HETATM    9  C25 UNL     1      10.289  19.453  11.957  1.00  0.00    -0.020 C 
HETATM   10  C26 UNL     1       9.198  19.556  10.970  1.00  0.00     0.017 C 
HETATM   11  C27 UNL     1       9.715  19.904  13.324  1.00  0.00     0.017 C 
ENDROOT
BRANCH   1  12
HETATM   12  N2  UNL     1      14.685  17.899  12.552  1.00  0.00    -0.354 N 
HETATM   13  C10 UNL     1      15.347  16.921  13.364  1.00  0.00     0.217 C 
HETATM   14  O1  UNL     1      14.777  15.830  13.502  1.00  0.00    -0.274 OA
ATOM     15  H2  UNL     1      15.121  18.813  12.427  1.00  0.00     0.162 HD
BRANCH  13  16
HETATM   16  C9  UNL     1      16.637  17.230  13.992  1.00  0.00     0.103 C 
BRANCH  16  17
HETATM   17  C8  UNL     1      17.014  18.649  13.832  1.00  0.00     0.009 C 
BRANCH  17  18
HETATM   18  C7  UNL     1      18.128  19.224  14.584  1.00  0.00     0.002 C 
BRANCH  18  19
HETATM   19  C6  UNL     1      18.161  20.676  14.881  1.00  0.00     0.020 C 
BRANCH  19  20
HETATM   20  C5  UNL     1      17.501  21.096  16.145  1.00  0.00     0.119 C 
BRANCH  20  21
HETATM   21  N1  UNL     1      16.433  22.015  15.923  1.00  0.00    -0.390 N 
HETATM   22  C4  UNL     1      15.186  21.667  15.833  1.00  0.00     0.031 A 
HETATM   23  C3  UNL     1      14.803  20.361  15.947  1.00  0.00     0.053 A 
HETATM   24  C28 UNL     1      14.234  22.620  15.617  1.00  0.00     0.046 A 
HETATM   25  C2  UNL     1      13.469  19.959  15.850  1.00  0.00     0.007 A 
HETATM   26  C1  UNL     1      13.093  18.530  15.970  1.00  0.00     0.068 C 
HETATM   27  N8  UNL     1      12.557  20.927  15.637  1.00  0.00    -0.369 N 
HETATM   28  C29 UNL     1      12.908  22.226  15.520  1.00  0.00     0.090 A 
ATOM     29  H8  UNL     1      11.573  20.671  15.561  1.00  0.00     0.165 HD
ATOM     30  H1  UNL     1      16.663  23.004  15.830  1.00  0.00     0.159 HD
ENDBRANCH  20  21
ENDBRANCH  19  20
ENDBRANCH  18  19
ENDBRANCH  17  18
ENDBRANCH  16  17
ENDBRANCH  13  16
ENDBRANCH   1  12
BRANCH   3  31
HETATM   31  N3  UNL     1      11.640  18.415   8.947  1.00  0.00    -0.070 N 
ATOM     32  H32 UNL     1      11.063  19.127   9.395  1.00  0.00     0.277 HD
ATOM     33  H31 UNL     1      12.422  18.994   8.640  1.00  0.00     0.277 HD
BRANCH  31  34
HETATM   34  C14 UNL     1      10.960  17.854   7.820  1.00  0.00     0.237 C 
BRANCH  34  35
HETATM   35  C15 UNL     1      11.726  18.020   6.532  1.00  0.00     0.072 C 
BRANCH  35  36
HETATM   36  C16 UNL     1      11.734  16.829   5.641  1.00  0.00     0.061 C 
BRANCH  36  37
HETATM   37  N4  UNL     1      10.929  16.817   4.504  1.00  0.00    -0.382 N 
ATOM     38  H4  UNL     1       9.919  16.874   4.634  1.00  0.00     0.163 HD
BRANCH  37  39
HETATM   39  C17 UNL     1      11.408  16.732   3.212  1.00  0.00     0.061 C 
BRANCH  39  40
HETATM   40  C18 UNL     1      12.175  15.582   2.718  1.00  0.00     0.064 C 
BRANCH  40  41
HETATM   41  C19 UNL     1      13.526  16.143   2.224  1.00  0.00     0.127 C 
BRANCH  41  42
HETATM   42  N5  UNL     1      14.433  16.402   3.313  1.00  0.00    -0.367 N 
HETATM   43  C20 UNL     1      15.691  16.449   3.065  1.00  0.00     0.196 C 
HETATM   44  N6  UNL     1      16.608  16.702   4.109  1.00  0.00    -0.067 NA
HETATM   45  N7  UNL     1      16.175  16.246   1.750  1.00  0.00    -0.067 NA
ATOM     46  H5  UNL     1      14.083  16.546   4.260  1.00  0.00     0.161 HD
ENDBRANCH  41  42
ENDBRANCH  40  41
ENDBRANCH  39  40
ENDBRANCH  37  39
ENDBRANCH  36  37
ENDBRANCH  35  36
ENDBRANCH  34  35
ENDBRANCH  31  34
ENDBRANCH   3  31
TORSDOF 16
ENDMDL
MODEL 3
REMARK VINA RESULT: -6.635176926      3.929      7.651
REMARK  16 active torsions:
REMARK  status: ('A' for Active; 'I' for Inactive)
REMARK    1  A    between atoms: N1_5  and  C5_7 
REMARK    2  A    between atoms: C5_7  and  C6_8 
REMARK    3  A    between atoms: C6_8  and  C7_9 
REMARK    4  A    between atoms: C7_9  and  C8_10 
REMARK    5  A    between atoms: C8_10  and  C9_11 
REMARK    6  A    between atoms: C9_11  and  C10_12 
REMARK       I    between atoms: C10_12  and  N2_14 
REMARK    7  A    between atoms: N2_14  and  C11_16 
REMARK    8  A    between atoms: C13_18  and  N3_19 
REMARK    9  A    between atoms: N3_19  and  C14_22 
REMARK   10  A    between atoms: C14_22  and  C15_23 
REMARK   11  A    between atoms: C15_23  and  C16_24 
REMARK   12  A    between atoms: C16_24  and  N4_25 
REMARK   13  A    between atoms: N4_25  and  C17_27 
REMARK   14  A    between atoms: C17_27  and  C18_28 
REMARK   15  A    between atoms: C18_28  and  C19_29 
REMARK   16  A    between atoms: C19_29  and  N5_30 
ROOT
HETATM    1  C11 UNL     1      12.883  16.884  11.578  1.00  0.00     0.115 C 
HETATM    2  C12 UNL     1      13.290  17.199  10.175  1.00  0.00     0.060 C 
HETATM    3  C13 UNL     1      12.072  17.124   9.311  1.00  0.00     0.188 C 
HETATM    4  C21 UNL     1      10.763  17.037  10.052  1.00  0.00     0.041 C 
HETATM    5  C22 UNL     1      10.635  17.887  11.240  1.00  0.00     0.028 C 
HETATM    6  C23 UNL     1      11.963  18.075  11.975  1.00  0.00     0.149 C 
HETATM    7  O2  UNL     1      12.520  19.210  11.480  1.00  0.00    -0.383 OA
HETATM    8  C24 UNL     1      11.483  20.088  11.175  1.00  0.00     0.177 C 
HETATM    9  C25 UNL     1      10.199  19.292  11.110  1.00  0.00    -0.020 C 
HETATM   10  C26 UNL     1       9.434  19.693   9.915  1.00  0.00     0.017 C 
HETATM   11  C27 UNL     1       9.384  19.739  12.349  1.00  0.00     0.017 C 
ENDROOT
BRANCH   1  12
HETATM   12  N2  UNL     1      13.951  16.836  12.520  1.00  0.00    -0.354 N 
HETATM   13  C10 UNL     1      14.961  15.820  12.475  1.00  0.00     0.217 C 
HETATM   14  O1  UNL     1      14.857  14.967  11.583  1.00  0.00    -0.274 OA
ATOM     15  H2  UNL     1      13.999  17.548  13.249  1.00  0.00     0.162 HD
BRANCH  13  16
HETATM   16  C9  UNL     1      16.050  15.816  13.459  1.00  0.00     0.103 C 
BRANCH  16  17
HETATM   17  C8  UNL     1      16.752  17.113  13.526  1.00  0.00     0.009 C 
BRANCH  17  18
HETATM   18  C7  UNL     1      16.770  18.023  12.382  1.00  0.00     0.002 C 
BRANCH  18  19
HETATM   19  C6  UNL     1      17.158  19.442  12.560  1.00  0.00     0.020 C 
BRANCH  19  20
HETATM   20  C5  UNL     1      16.039  20.407  12.722  1.00  0.00     0.119 C 
BRANCH  20  21
HETATM   21  N1  UNL     1      16.039  21.033  14.004  1.00  0.00    -0.390 N 
HETATM   22  C4  UNL     1      15.265  20.678  14.983  1.00  0.00     0.031 A 
HETATM   23  C3  UNL     1      14.372  19.653  14.846  1.00  0.00     0.053 A 
HETATM   24  C28 UNL     1      15.337  21.340  16.174  1.00  0.00     0.046 A 
HETATM   25  C2  UNL     1      13.524  19.253  15.881  1.00  0.00     0.007 A 
HETATM   26  C1  UNL     1      12.561  18.142  15.692  1.00  0.00     0.068 C 
HETATM   27  N8  UNL     1      13.623  19.929  17.042  1.00  0.00    -0.369 N 
HETATM   28  C29 UNL     1      14.497  20.946  17.205  1.00  0.00     0.090 A 
ATOM     29  H8  UNL     1      13.021  19.664  17.821  1.00  0.00     0.165 HD
ATOM     30  H1  UNL     1      16.686  21.805  14.160  1.00  0.00     0.159 HD
ENDBRANCH  20  21
ENDBRANCH  19  20
ENDBRANCH  18  19
ENDBRANCH  17  18
ENDBRANCH  16  17
ENDBRANCH  13  16
ENDBRANCH   1  12
BRANCH   3  31
HETATM   31  N3  UNL     1      12.071  18.247   8.395  1.00  0.00    -0.070 N 
ATOM     32  H32 UNL     1      11.585  19.043   8.807  1.00  0.00     0.277 HD
ATOM     33  H31 UNL     1      13.009  18.641   8.312  1.00  0.00     0.277 HD
BRANCH  31  34
HETATM   34  C14 UNL     1      11.537  17.948   7.102  1.00  0.00     0.237 C 
BRANCH  34  35
HETATM   35  C15 UNL     1      11.691  19.089   6.128  1.00  0.00     0.072 C 
BRANCH  35  36
HETATM   36  C16 UNL     1      11.826  18.690   4.700  1.00  0.00     0.061 C 
BRANCH  36  37
HETATM   37  N4  UNL     1      11.096  17.605   4.219  1.00  0.00    -0.382 N 
ATOM     38  H4  UNL     1      10.311  17.273   4.779  1.00  0.00     0.163 HD
BRANCH  37  39
HETATM   39  C17 UNL     1      11.366  16.949   3.035  1.00  0.00     0.061 C 
BRANCH  39  40
HETATM   40  C18 UNL     1      12.524  17.270   2.190  1.00  0.00     0.064 C 
BRANCH  40  41
HETATM   41  C19 UNL     1      13.530  16.115   2.380  1.00  0.00     0.127 C 
BRANCH  41  42
HETATM   42  N5  UNL     1      14.463  16.381   3.445  1.00  0.00    -0.367 N 
HETATM   43  C20 UNL     1      15.713  16.448   3.164  1.00  0.00     0.196 C 
HETATM   44  N6  UNL     1      16.654  16.709   4.184  1.00  0.00    -0.067 NA
HETATM   45  N7  UNL     1      16.163  16.260   1.835  1.00  0.00    -0.067 NA
ATOM     46  H5  UNL     1      14.136  16.514   4.403  1.00  0.00     0.161 HD
ENDBRANCH  41  42
ENDBRANCH  40  41
ENDBRANCH  39  40
ENDBRANCH  37  39
ENDBRANCH  36  37
ENDBRANCH  35  36
ENDBRANCH  34  35
ENDBRANCH  31  34
ENDBRANCH   3  31
TORSDOF 16
ENDMDL
MODEL 4
REMARK VINA RESULT: -6.451296088      4.108      7.510
REMARK  16 active torsions:
REMARK  status: ('A' for Active; 'I' for Inactive)
REMARK    1  A    between atoms: N1_5  and  C5_7 
REMARK    2  A    between atoms: C5_7  and  C6_8 
REMARK    3  A    between atoms: C6_8  and  C7_9 
REMARK    4  A    between atoms: C7_9  and  C8_10 
REMARK    5  A    between atoms: C8_10  and  C9_11 
REMARK    6  A    between atoms: C9_11  and  C10_12 
REMARK       I    between atoms: C10_12  and  N2_14 
REMARK    7  A    between atoms: N2_14  and  C11_16 
REMARK    8  A    between atoms: C13_18  and  N3_19 
REMARK    9  A    between atoms: N3_19  and  C14_22 
REMARK   10  A    between atoms: C14_22  and  C15_23 
REMARK   11  A    between atoms: C15_23  and  C16_24 
REMARK   12  A    between atoms: C16_24  and  N4_25 
REMARK   13  A    between atoms: N4_25  and  C17_27 
REMARK   14  A    between atoms: C17_27  and  C18_28 
REMARK   15  A    between atoms: C18_28  and  C19_29 
REMARK   16  A    between atoms: C19_29  and  N5_30 
ROOT
HETATM    1  C11 UNL     1      13.139  16.922  11.287  1.00  0.00     0.115 C 
HETATM    2  C12 UNL     1      13.116  17.473   9.898  1.00  0.00     0.060 C 
HETATM    3  C13 UNL     1      11.694  17.507   9.437  1.00  0.00     0.188 C 
HETATM    4  C21 UNL     1      10.664  17.264  10.510  1.00  0.00     0.041 C 
HETATM    5  C22 UNL     1      10.917  17.904  11.805  1.00  0.00     0.028 C 
HETATM    6  C23 UNL     1      12.408  18.005  12.131  1.00  0.00     0.149 C 
HETATM    7  O2  UNL     1      12.818  19.221  11.686  1.00  0.00    -0.383 OA
HETATM    8  C24 UNL     1      11.757  20.109  11.853  1.00  0.00     0.177 C 
HETATM    9  C25 UNL     1      10.495  19.299  12.044  1.00  0.00    -0.020 C 
HETATM   10  C26 UNL     1       9.416  19.869  11.215  1.00  0.00     0.017 C 
HETATM   11  C27 UNL     1      10.097  19.514  13.526  1.00  0.00     0.017 C 
ENDROOT
BRANCH   1  12
HETATM   12  N2  UNL     1      14.439  16.750  11.845  1.00  0.00    -0.354 N 
HETATM   13  C10 UNL     1      14.689  15.845  12.929  1.00  0.00     0.217 C 
HETATM   14  O1  UNL     1      13.715  15.223  13.375  1.00  0.00    -0.274 OA
ATOM     15  H2  UNL     1      15.216  17.287  11.462  1.00  0.00     0.162 HD
BRANCH  13  16
HETATM   16  C9  UNL     1      16.046  15.691  13.465  1.00  0.00     0.103 C 
BRANCH  16  17
HETATM   17  C8  UNL     1      16.815  16.951  13.421  1.00  0.00     0.009 C 
BRANCH  17  18
HETATM   18  C7  UNL     1      16.398  18.117  14.197  1.00  0.00     0.002 C 
BRANCH  18  19
HETATM   19  C6  UNL     1      16.183  19.422  13.528  1.00  0.00     0.020 C 
BRANCH  19  20
HETATM   20  C5  UNL     1      17.064  20.534  13.975  1.00  0.00     0.119 C 
BRANCH  20  21
HETATM   21  N1  UNL     1      18.421  20.348  13.579  1.00  0.00    -0.390 N 
HETATM   22  C4  UNL     1      19.176  21.295  13.113  1.00  0.00     0.031 A 
HETATM   23  C3  UNL     1      18.706  22.569  12.966  1.00  0.00     0.053 A 
HETATM   24  C28 UNL     1      20.464  21.018  12.758  1.00  0.00     0.046 A 
HETATM   25  C2  UNL     1      19.495  23.607  12.464  1.00  0.00     0.007 A 
HETATM   26  C1  UNL     1      18.948  24.976  12.311  1.00  0.00     0.068 C 
HETATM   27  N8  UNL     1      20.761  23.297  12.124  1.00  0.00    -0.369 N 
HETATM   28  C29 UNL     1      21.251  22.045  12.259  1.00  0.00     0.090 A 
ATOM     29  H8  UNL     1      21.367  24.029  11.755  1.00  0.00     0.165 HD
ATOM     30  H1  UNL     1      18.822  19.415  13.667  1.00  0.00     0.159 HD
ENDBRANCH  20  21
ENDBRANCH  19  20
ENDBRANCH  18  19
ENDBRANCH  17  18
ENDBRANCH  16  17
ENDBRANCH  13  16
ENDBRANCH   1  12
BRANCH   3  31
HETATM   31  N3  UNL     1      11.445  18.765   8.761  1.00  0.00    -0.070 N 
ATOM     32  H32 UNL     1      10.575  19.182   9.092  1.00  0.00     0.277 HD
ATOM     33  H31 UNL     1      12.108  19.475   9.073  1.00  0.00     0.277 HD
BRANCH  31  34
HETATM   34  C14 UNL     1      11.445  18.672   7.333  1.00  0.00     0.237 C 
BRANCH  34  35
HETATM   35  C15 UNL     1      11.423  17.247   6.840  1.00  0.00     0.072 C 
BRANCH  35  36
HETATM   36  C16 UNL     1      11.891  17.054   5.441  1.00  0.00     0.061 C 
BRANCH  36  37
HETATM   37  N4  UNL     1      11.514  15.908   4.743  1.00  0.00    -0.382 N 
ATOM     38  H4  UNL     1      10.625  15.473   4.987  1.00  0.00     0.163 HD
BRANCH  37  39
HETATM   39  C17 UNL     1      12.265  15.323   3.743  1.00  0.00     0.061 C 
BRANCH  39  40
HETATM   40  C18 UNL     1      12.066  15.620   2.318  1.00  0.00     0.064 C 
BRANCH  40  41
HETATM   41  C19 UNL     1      13.436  16.085   1.779  1.00  0.00     0.127 C 
BRANCH  41  42
HETATM   42  N5  UNL     1      14.397  16.271   2.836  1.00  0.00    -0.367 N 
HETATM   43  C20 UNL     1      15.638  16.367   2.526  1.00  0.00     0.196 C 
HETATM   44  N6  UNL     1      16.607  16.551   3.538  1.00  0.00    -0.067 NA
HETATM   45  N7  UNL     1      16.053  16.289   1.175  1.00  0.00    -0.067 NA
ATOM     46  H5  UNL     1      14.097  16.325   3.810  1.00  0.00     0.161 HD
ENDBRANCH  41  42
ENDBRANCH  40  41
ENDBRANCH  39  40
ENDBRANCH  37  39
ENDBRANCH  36  37
ENDBRANCH  35  36
ENDBRANCH  34  35
ENDBRANCH  31  34
ENDBRANCH   3  31
TORSDOF 16
ENDMDL
MODEL 5
REMARK VINA RESULT: -6.450642752      3.932      7.068
REMARK  16 active torsions:
REMARK  status: ('A' for Active; 'I' for Inactive)
REMARK    1  A    between atoms: N1_5  and  C5_7 
REMARK    2  A    between atoms: C5_7  and  C6_8 
REMARK    3  A    between atoms: C6_8  and  C7_9 
REMARK    4  A    between atoms: C7_9  and  C8_10 
REMARK    5  A    between atoms: C8_10  and  C9_11 
REMARK    6  A    between atoms: C9_11  and  C10_12 
REMARK       I    between atoms: C10_12  and  N2_14 
REMARK    7  A    between atoms: N2_14  and  C11_16 
REMARK    8  A    between atoms: C13_18  and  N3_19 
REMARK    9  A    between atoms: N3_19  and  C14_22 
REMARK   10  A    between atoms: C14_22  and  C15_23 
REMARK   11  A    between atoms: C15_23  and  C16_24 
REMARK   12  A    between atoms: C16_24  and  N4_25 
REMARK   13  A    between atoms: N4_25  and  C17_27 
REMARK   14  A    between atoms: C17_27  and  C18_28 
REMARK   15  A    between atoms: C18_28  and  C19_29 
REMARK   16  A    between atoms: C19_29  and  N5_30 
ROOT
HETATM    1  C11 UNL     1      12.296  17.385  11.597  1.00  0.00     0.115 C 
HETATM    2  C12 UNL     1      12.991  17.485  10.278  1.00  0.00     0.060 C 
HETATM    3  C13 UNL     1      12.020  17.094   9.211  1.00  0.00     0.188 C 
HETATM    4  C21 UNL     1      10.586  16.977   9.658  1.00  0.00     0.041 C 
HETATM    5  C22 UNL     1      10.113  18.008  10.589  1.00  0.00     0.028 C 
HETATM    6  C23 UNL     1      11.211  18.498  11.532  1.00  0.00     0.149 C 
HETATM    7  O2  UNL     1      11.770  19.585  10.941  1.00  0.00    -0.383 OA
HETATM    8  C24 UNL     1      10.763  20.250  10.246  1.00  0.00     0.177 C 
HETATM    9  C25 UNL     1       9.602  19.295  10.078  1.00  0.00    -0.020 C 
HETATM   10  C26 UNL     1       9.105  19.367   8.691  1.00  0.00     0.017 C 
HETATM   11  C27 UNL     1       8.484  19.854  10.994  1.00  0.00     0.017 C 
ENDROOT
BRANCH   1  12
HETATM   12  N2  UNL     1      13.115  17.650  12.732  1.00  0.00    -0.354 N 
HETATM   13  C10 UNL     1      13.717  16.600  13.500  1.00  0.00     0.217 C 
HETATM   14  O1  UNL     1      13.482  15.438  13.140  1.00  0.00    -0.274 OA
ATOM     15  H2  UNL     1      13.278  18.619  13.008  1.00  0.00     0.162 HD
BRANCH  13  16
HETATM   16  C9  UNL     1      14.563  16.920  14.655  1.00  0.00     0.103 C 
BRANCH  16  17
HETATM   17  C8  UNL     1      14.505  18.351  15.016  1.00  0.00     0.009 C 
BRANCH  17  18
HETATM   18  C7  UNL     1      13.383  18.891  15.782  1.00  0.00     0.002 C 
BRANCH  18  19
HETATM   19  C6  UNL     1      13.618  19.900  16.843  1.00  0.00     0.020 C 
BRANCH  19  20
HETATM   20  C5  UNL     1      14.060  21.242  16.378  1.00  0.00     0.119 C 
BRANCH  20  21
HETATM   21  N1  UNL     1      15.470  21.420  16.489  1.00  0.00    -0.390 N 
HETATM   22  C4  UNL     1      16.263  21.572  15.473  1.00  0.00     0.031 A 
HETATM   23  C3  UNL     1      15.786  21.569  14.194  1.00  0.00     0.053 A 
HETATM   24  C28 UNL     1      17.602  21.734  15.681  1.00  0.00     0.046 A 
HETATM   25  C2  UNL     1      16.617  21.726  13.082  1.00  0.00     0.007 A 
HETATM   26  C1  UNL     1      16.063  21.709  11.707  1.00  0.00     0.068 C 
HETATM   27  N8  UNL     1      17.932  21.884  13.325  1.00  0.00    -0.369 N 
HETATM   28  C29 UNL     1      18.431  21.891  14.581  1.00  0.00     0.090 A 
ATOM     29  H8  UNL     1      18.569  22.003  12.539  1.00  0.00     0.165 HD
ATOM     30  H1  UNL     1      15.880  21.429  17.423  1.00  0.00     0.159 HD
ENDBRANCH  20  21
ENDBRANCH  19  20
ENDBRANCH  18  19
ENDBRANCH  17  18
ENDBRANCH  16  17
ENDBRANCH  13  16
ENDBRANCH   1  12
BRANCH   3  31
HETATM   31  N3  UNL     1      12.138  18.020   8.102  1.00  0.00    -0.070 N 
ATOM     32  H32 UNL     1      11.803  18.945   8.371  1.00  0.00     0.277 HD
ATOM     33  H31 UNL     1      13.118  18.236   7.920  1.00  0.00     0.277 HD
BRANCH  31  34
HETATM   34  C14 UNL     1      11.491  17.582   6.902  1.00  0.00     0.237 C 
BRANCH  34  35
HETATM   35  C15 UNL     1      11.848  18.426   5.704  1.00  0.00     0.072 C 
BRANCH  35  36
HETATM   36  C16 UNL     1      11.472  17.847   4.386  1.00  0.00     0.061 C 
BRANCH  36  37
HETATM   37  N4  UNL     1      11.200  16.483   4.288  1.00  0.00    -0.382 N 
ATOM     38  H4  UNL     1      10.236  16.179   4.420  1.00  0.00     0.163 HD
BRANCH  37  39
HETATM   39  C17 UNL     1      12.150  15.517   4.023  1.00  0.00     0.061 C 
BRANCH  39  40
HETATM   40  C18 UNL     1      12.407  14.999   2.673  1.00  0.00     0.064 C 
BRANCH  40  41
HETATM   41  C19 UNL     1      13.713  15.668   2.195  1.00  0.00     0.127 C 
BRANCH  41  42
HETATM   42  N5  UNL     1      14.531  16.105   3.298  1.00  0.00    -0.367 N 
HETATM   43  C20 UNL     1      15.764  16.379   3.076  1.00  0.00     0.196 C 
HETATM   44  N6  UNL     1      16.594  16.811   4.134  1.00  0.00    -0.067 NA
HETATM   45  N7  UNL     1      16.308  16.250   1.776  1.00  0.00    -0.067 NA
ATOM     46  H5  UNL     1      14.137  16.194   4.235  1.00  0.00     0.161 HD
ENDBRANCH  41  42
ENDBRANCH  40  41
ENDBRANCH  39  40
ENDBRANCH  37  39
ENDBRANCH  36  37
ENDBRANCH  35  36
ENDBRANCH  34  35
ENDBRANCH  31  34
ENDBRANCH   3  31
TORSDOF 16
ENDMDL
