MODEL 1
REMARK VINA RESULT: -6.614287444      0.000      0.000
REMARK  18 active torsions:
REMARK  status: ('A' for Active; 'I' for Inactive)
REMARK    1  A    between atoms: C2_2  and  C4_4 
REMARK    2  A    between atoms: C4_4  and  C5_5 
REMARK    3  A    between atoms: C5_5  and  N1_6 
REMARK    4  A    between atoms: C5_5  and  C9_11 
REMARK    5  A    between atoms: N1_6  and  C6_8 
REMARK       I    between atoms: C9_11  and  N2_13 
REMARK    6  A    between atoms: N2_13  and  C10_15 
REMARK    7  A    between atoms: C10_15  and  C11_16 
REMARK    8  A    between atoms: C10_15  and  C18_23 
REMARK    9  A    between atoms: C11_16  and  C12_17 
REMARK   10  A    between atoms: C18_23  and  O2_24 
REMARK   11  A    between atoms: C18_23  and  N3_26 
REMARK   12  A    between atoms: C19_28  and  C20_29 
REMARK       I    between atoms: C20_29  and  N4_31 
REMARK   13  A    between atoms: N4_31  and  C21_33 
REMARK   14  A    between atoms: C21_33  and  C22_34 
REMARK   15  A    between atoms: C21_33  and  C26_38 
REMARK   16  A    between atoms: C22_34  and  C23_35 
REMARK   17  A    between atoms: C26_38  and  N5_40 
REMARK       I    between atoms: N5_40  and  C28_41 
REMARK       I    between atoms: C28_41  and  N6_43 
REMARK   18  A    between atoms: N6_43  and  N7_45 
ROOT
HETATM    1  C18 UNL     1      12.418  20.238  14.310  1.00  0.00     0.163 C 
ENDROOT
BRANCH   1   2
HETATM    2  C10 UNL     1      12.172  18.821  14.031  1.00  0.00     0.063 C 
BRANCH   2   3
HETATM    3  N2  UNL     1      11.515  18.708  12.773  1.00  0.00    -0.325 N 
HETATM    4  C9  UNL     1      10.347  19.120  12.120  1.00  0.00     0.244 C 
HETATM    5  O1  UNL     1       9.470  19.762  12.630  1.00  0.00    -0.271 OA
ATOM      6  H2  UNL     1      12.081  18.142  12.141  1.00  0.00     0.169 HD
BRANCH   4   7
HETATM    7  C5  UNL     1      10.312  18.694  10.621  1.00  0.00     0.170 C 
BRANCH   7   8
HETATM    8  C4  UNL     1      10.629  17.306  10.419  1.00  0.00     0.038 C 
BRANCH   8   9
HETATM    9  C2  UNL     1      11.584  16.891   9.336  1.00  0.00    -0.020 C 
HETATM   10  C1  UNL     1      12.993  17.086   9.976  1.00  0.00     0.009 C 
HETATM   11  C3  UNL     1      11.704  17.673   8.092  1.00  0.00     0.009 C 
ENDBRANCH   8   9
ENDBRANCH   7   8
BRANCH   7  12
HETATM   12  N1  UNL     1       8.962  19.144  10.371  1.00  0.00    -0.406 N 
ATOM     13  H1  UNL     1       8.360  19.351  11.169  1.00  0.00     0.154 HD
BRANCH  12  14
HETATM   14  C6  UNL     1       8.447  19.307   9.092  1.00  0.00     0.069 C 
HETATM   15  C7  UNL     1       8.968  20.425   8.276  1.00  0.00     0.031 C 
HETATM   16  C8  UNL     1       6.910  19.493   9.133  1.00  0.00     0.031 C 
ENDBRANCH  12  14
ENDBRANCH   7  12
ENDBRANCH   4   7
ENDBRANCH   2   3
BRANCH   2  17
HETATM   17  C11 UNL     1      13.051  17.801  14.595  1.00  0.00     0.066 C 
BRANCH  17  18
HETATM   18  C12 UNL     1      14.153  17.271  13.718  1.00  0.00    -0.009 C 
HETATM   19  C13 UNL     1      14.219  15.808  13.506  1.00  0.00     0.005 C 
HETATM   20  C14 UNL     1      15.255  15.467  12.437  1.00  0.00     0.000 C 
HETATM   21  C15 UNL     1      16.220  16.594  12.222  1.00  0.00     0.000 C 
HETATM   22  C16 UNL     1      16.665  17.083  13.631  1.00  0.00     0.000 C 
HETATM   23  C17 UNL     1      15.498  17.751  14.318  1.00  0.00     0.005 C 
ENDBRANCH  17  18
ENDBRANCH   2  17
ENDBRANCH   1   2
BRANCH   1  24
HETATM   24  O2  UNL     1      11.401  20.869  14.925  1.00  0.00    -0.345 OA
ATOM     25  H2  UNL     1      11.641  21.690  15.340  1.00  0.00     0.219 HD
ENDBRANCH   1  24
BRANCH   1  26
HETATM   26  N3  UNL     1      13.459  21.153  14.105  1.00  0.00    -0.340 N 
HETATM   27  C19 UNL     1      13.824  21.710  13.084  1.00  0.00     0.164 C 
ATOM     28  H3  UNL     1      13.996  21.391  14.940  1.00  0.00     0.167 HD
BRANCH  27  29
HETATM   29  C20 UNL     1      14.894  22.641  12.802  1.00  0.00     0.260 C 
HETATM   30  O3  UNL     1      14.585  23.875  12.640  1.00  0.00    -0.267 OA
HETATM   31  N4  UNL     1      16.181  22.167  12.748  1.00  0.00    -0.327 N 
ATOM     32  H4  UNL     1      16.144  21.156  12.876  1.00  0.00     0.168 HD
BRANCH  31  33
HETATM   33  C21 UNL     1      17.525  22.527  12.585  1.00  0.00     0.025 C 
BRANCH  33  34
HETATM   34  C22 UNL     1      18.004  23.850  13.018  1.00  0.00     0.059 C 
BRANCH  34  35
HETATM   35  C23 UNL     1      18.475  24.750  11.884  1.00  0.00    -0.017 C 
HETATM   36  C24 UNL     1      19.944  24.517  11.577  1.00  0.00     0.010 C 
HETATM   37  C25 UNL     1      17.659  24.627  10.625  1.00  0.00     0.010 C 
ENDBRANCH  34  35
ENDBRANCH  33  34
BRANCH  33  38
HETATM   38  C26 UNL     1      18.451  21.343  12.684  1.00  0.00     0.210 C 
HETATM   39  C27 UNL     1      17.743  20.164  11.986  1.00  0.00     0.054 C 
BRANCH  38  40
HETATM   40  N5  UNL     1      18.321  20.838  14.092  1.00  0.00    -0.384 NA
HETATM   41  C28 UNL     1      18.239  20.340  15.273  1.00  0.00     0.407 C 
HETATM   42  O4  UNL     1      18.525  19.216  15.839  1.00  0.00    -0.229 OA
HETATM   43  N6  UNL     1      17.703  21.228  16.351  1.00  0.00    -0.246 N 
ATOM     44  H6  UNL     1      17.359  22.160  16.119  1.00  0.00     0.192 HD
BRANCH  43  45
HETATM   45  N7  UNL     1      17.675  20.799  17.628  1.00  0.00    -0.340 N 
ATOM     46  H72 UNL     1      16.878  20.249  17.947  1.00  0.00     0.177 HD
ATOM     47  H71 UNL     1      18.443  21.025  18.260  1.00  0.00     0.177 HD
ENDBRANCH  43  45
ENDBRANCH  38  40
ENDBRANCH  33  38
ENDBRANCH  31  33
ENDBRANCH  27  29
ENDBRANCH   1  26
TORSDOF 18
ENDMDL
MODEL 2
REMARK VINA RESULT: -6.611504381      2.097      2.934
REMARK  18 active torsions:
REMARK  status: ('A' for Active; 'I' for Inactive)
REMARK    1  A    between atoms: C2_2  and  C4_4 
REMARK    2  A    between atoms: C4_4  and  C5_5 
REMARK    3  A    between atoms: C5_5  and  N1_6 
REMARK    4  A    between atoms: C5_5  and  C9_11 
REMARK    5  A    between atoms: N1_6  and  C6_8 
REMARK       I    between atoms: C9_11  and  N2_13 
REMARK    6  A    between atoms: N2_13  and  C10_15 
REMARK    7  A    between atoms: C10_15  and  C11_16 
REMARK    8  A    between atoms: C10_15  and  C18_23 
REMARK    9  A    between atoms: C11_16  and  C12_17 
REMARK   10  A    between atoms: C18_23  and  O2_24 
REMARK   11  A    between atoms: C18_23  and  N3_26 
REMARK   12  A    between atoms: C19_28  and  C20_29 
REMARK       I    between atoms: C20_29  and  N4_31 
REMARK   13  A    between atoms: N4_31  and  C21_33 
REMARK   14  A    between atoms: C21_33  and  C22_34 
REMARK   15  A    between atoms: C21_33  and  C26_38 
REMARK   16  A    between atoms: C22_34  and  C23_35 
REMARK   17  A    between atoms: C26_38  and  N5_40 
REMARK       I    between atoms: N5_40  and  C28_41 
REMARK       I    between atoms: C28_41  and  N6_43 
REMARK   18  A    between atoms: N6_43  and  N7_45 
ROOT
HETATM    1  C18 UNL     1      11.657  18.769  13.747  1.00  0.00     0.163 C 
ENDROOT
BRANCH   1   2
HETATM    2  C10 UNL     1      11.417  17.730  12.742  1.00  0.00     0.063 C 
BRANCH   2   3
HETATM    3  N2  UNL     1      10.917  18.343  11.559  1.00  0.00    -0.325 N 
HETATM    4  C9  UNL     1       9.944  19.259  11.141  1.00  0.00     0.244 C 
HETATM    5  O1  UNL     1       9.149  19.790  11.867  1.00  0.00    -0.271 OA
ATOM      6  H2  UNL     1      11.439  18.004  10.750  1.00  0.00     0.169 HD
BRANCH   4   7
HETATM    7  C5  UNL     1      10.019  19.565   9.614  1.00  0.00     0.170 C 
BRANCH   7   8
HETATM    8  C4  UNL     1      11.201  19.036   8.988  1.00  0.00     0.038 C 
BRANCH   8   9
HETATM    9  C2  UNL     1      11.114  17.841   8.081  1.00  0.00    -0.020 C 
HETATM   10  C1  UNL     1      12.094  16.808   8.717  1.00  0.00     0.009 C 
HETATM   11  C3  UNL     1      11.603  17.908   6.692  1.00  0.00     0.009 C 
ENDBRANCH   8   9
ENDBRANCH   7   8
BRANCH   7  12
HETATM   12  N1  UNL     1       8.737  18.986   9.283  1.00  0.00    -0.406 N 
ATOM     13  H1  UNL     1       8.567  18.009   9.521  1.00  0.00     0.154 HD
BRANCH  12  14
HETATM   14  C6  UNL     1       7.727  19.703   8.656  1.00  0.00     0.069 C 
HETATM   15  C7  UNL     1       8.022  21.091   8.240  1.00  0.00     0.031 C 
HETATM   16  C8  UNL     1       6.469  19.789   9.555  1.00  0.00     0.031 C 
ENDBRANCH  12  14
ENDBRANCH   7  12
ENDBRANCH   4   7
ENDBRANCH   2   3
BRANCH   2  17
HETATM   17  C11 UNL     1      12.197  16.497  12.763  1.00  0.00     0.066 C 
BRANCH  17  18
HETATM   18  C12 UNL     1      13.697  16.624  12.779  1.00  0.00    -0.009 C 
HETATM   19  C13 UNL     1      14.441  16.120  11.604  1.00  0.00     0.005 C 
HETATM   20  C14 UNL     1      15.914  16.514  11.693  1.00  0.00     0.000 C 
HETATM   21  C15 UNL     1      16.305  16.880  13.094  1.00  0.00     0.000 C 
HETATM   22  C16 UNL     1      15.718  15.782  14.028  1.00  0.00     0.000 C 
HETATM   23  C17 UNL     1      14.213  15.897  14.046  1.00  0.00     0.005 C 
ENDBRANCH  17  18
ENDBRANCH   2  17
ENDBRANCH   1   2
BRANCH   1  24
HETATM   24  O2  UNL     1      10.564  19.136  14.441  1.00  0.00    -0.345 OA
ATOM     25  H2  UNL     1       9.841  19.440  13.904  1.00  0.00     0.219 HD
ENDBRANCH   1  24
BRANCH   1  26
HETATM   26  N3  UNL     1      12.752  19.516  14.202  1.00  0.00    -0.340 N 
HETATM   27  C19 UNL     1      13.419  19.391  15.214  1.00  0.00     0.164 C 
ATOM     28  H3  UNL     1      13.034  20.284  13.592  1.00  0.00     0.167 HD
BRANCH  27  29
HETATM   29  C20 UNL     1      14.540  20.134  15.748  1.00  0.00     0.260 C 
HETATM   30  O3  UNL     1      14.531  20.410  16.999  1.00  0.00    -0.267 OA
HETATM   31  N4  UNL     1      15.562  20.483  14.900  1.00  0.00    -0.327 N 
ATOM     32  H4  UNL     1      15.304  20.176  13.962  1.00  0.00     0.168 HD
BRANCH  31  33
HETATM   33  C21 UNL     1      16.818  21.096  14.817  1.00  0.00     0.025 C 
BRANCH  33  34
HETATM   34  C22 UNL     1      17.144  22.255  15.665  1.00  0.00     0.059 C 
BRANCH  34  35
HETATM   35  C23 UNL     1      16.558  23.574  15.179  1.00  0.00    -0.017 C 
HETATM   36  C24 UNL     1      16.490  23.615  13.663  1.00  0.00     0.010 C 
HETATM   37  C25 UNL     1      15.209  23.898  15.765  1.00  0.00     0.010 C 
ENDBRANCH  34  35
ENDBRANCH  33  34
BRANCH  33  38
HETATM   38  C26 UNL     1      17.909  20.121  14.457  1.00  0.00     0.210 C 
HETATM   39  C27 UNL     1      18.737  19.887  15.738  1.00  0.00     0.054 C 
BRANCH  38  40
HETATM   40  N5  UNL     1      18.937  20.916  13.706  1.00  0.00    -0.384 NA
HETATM   41  C28 UNL     1      19.770  21.656  13.067  1.00  0.00     0.407 C 
HETATM   42  O4  UNL     1      19.809  22.875  12.645  1.00  0.00    -0.229 OA
HETATM   43  N6  UNL     1      21.078  21.037  12.686  1.00  0.00    -0.246 N 
ATOM     44  H6  UNL     1      21.248  20.050  12.874  1.00  0.00     0.192 HD
BRANCH  43  45
HETATM   45  N7  UNL     1      22.030  21.783  12.094  1.00  0.00    -0.340 N 
ATOM     46  H72 UNL     1      21.868  22.782  11.967  1.00  0.00     0.177 HD
ATOM     47  H71 UNL     1      22.899  21.349  11.780  1.00  0.00     0.177 HD
ENDBRANCH  43  45
ENDBRANCH  38  40
ENDBRANCH  33  38
ENDBRANCH  31  33
ENDBRANCH  27  29
ENDBRANCH   1  26
TORSDOF 18
ENDMDL
MODEL 3
REMARK VINA RESULT: -6.547523919      2.217      5.179
REMARK  18 active torsions:
REMARK  status: ('A' for Active; 'I' for Inactive)
REMARK    1  A    between atoms: C2_2  and  C4_4 
REMARK    2  A    between atoms: C4_4  and  C5_5 
REMARK    3  A    between atoms: C5_5  and  N1_6 
REMARK    4  A    between atoms: C5_5  and  C9_11 
REMARK    5  A    between atoms: N1_6  and  C6_8 
REMARK       I    between atoms: C9_11  and  N2_13 
REMARK    6  A    between atoms: N2_13  and  C10_15 
REMARK    7  A    between atoms: C10_15  and  C11_16 
REMARK    8  A    between atoms: C10_15  and  C18_23 
REMARK    9  A    between atoms: C11_16  and  C12_17 
REMARK   10  A    between atoms: C18_23  and  O2_24 
REMARK   11  A    between atoms: C18_23  and  N3_26 
REMARK   12  A    between atoms: C19_28  and  C20_29 
REMARK       I    between atoms: C20_29  and  N4_31 
REMARK   13  A    between atoms: N4_31  and  C21_33 
REMARK   14  A    between atoms: C21_33  and  C22_34 
REMARK   15  A    between atoms: C21_33  and  C26_38 
REMARK   16  A    between atoms: C22_34  and  C23_35 
REMARK   17  A    between atoms: C26_38  and  N5_40 
REMARK       I    between atoms: N5_40  and  C28_41 
REMARK       I    between atoms: C28_41  and  N6_43 
REMARK   18  A    between atoms: N6_43  and  N7_45 
ROOT
HETATM    1  C18 UNL     1      13.524  16.752  13.176  1.00  0.00     0.163 C 
ENDROOT
BRANCH   1   2
HETATM    2  C10 UNL     1      12.229  17.242  12.697  1.00  0.00     0.063 C 
BRANCH   2   3
HETATM    3  N2  UNL     1      12.106  18.620  13.036  1.00  0.00    -0.325 N 
HETATM    4  C9  UNL     1      11.370  19.468  13.872  1.00  0.00     0.244 C 
HETATM    5  O1  UNL     1      10.482  19.112  14.596  1.00  0.00    -0.271 OA
ATOM      6  H2  UNL     1      12.773  19.167  12.492  1.00  0.00     0.169 HD
BRANCH   4   7
HETATM    7  C5  UNL     1      11.854  20.949  13.805  1.00  0.00     0.170 C 
BRANCH   7   8
HETATM    8  C4  UNL     1      11.692  21.654  15.047  1.00  0.00     0.038 C 
BRANCH   8   9
HETATM    9  C2  UNL     1      11.009  22.992  15.082  1.00  0.00    -0.020 C 
HETATM   10  C1  UNL     1      10.211  23.048  13.743  1.00  0.00     0.009 C 
HETATM   11  C3  UNL     1      11.789  24.241  15.023  1.00  0.00     0.009 C 
ENDBRANCH   8   9
ENDBRANCH   7   8
BRANCH   7  12
HETATM   12  N1  UNL     1      13.190  20.648  13.344  1.00  0.00    -0.406 N 
ATOM     13  H1  UNL     1      13.604  19.750  13.598  1.00  0.00     0.154 HD
BRANCH  12  14
HETATM   14  C6  UNL     1      13.936  21.527  12.571  1.00  0.00     0.069 C 
HETATM   15  C7  UNL     1      14.615  22.646  13.260  1.00  0.00     0.031 C 
HETATM   16  C8  UNL     1      13.060  22.178  11.471  1.00  0.00     0.031 C 
ENDBRANCH  12  14
ENDBRANCH   7  12
ENDBRANCH   4   7
ENDBRANCH   2   3
BRANCH   2  17
HETATM   17  C11 UNL     1      11.594  16.620  11.541  1.00  0.00     0.066 C 
BRANCH  17  18
HETATM   18  C12 UNL     1      11.324  17.490  10.343  1.00  0.00    -0.009 C 
HETATM   19  C13 UNL     1       9.920  17.634   9.900  1.00  0.00     0.005 C 
HETATM   20  C14 UNL     1       9.805  18.704   8.817  1.00  0.00     0.000 C 
HETATM   21  C15 UNL     1      11.132  18.989   8.178  1.00  0.00     0.000 C 
HETATM   22  C16 UNL     1      11.790  17.613   7.869  1.00  0.00     0.000 C 
HETATM   23  C17 UNL     1      12.165  16.938   9.166  1.00  0.00     0.005 C 
ENDBRANCH  17  18
ENDBRANCH   2  17
ENDBRANCH   1   2
BRANCH   1  24
HETATM   24  O2  UNL     1      13.684  15.419  13.086  1.00  0.00    -0.345 OA
ATOM     25  H2  UNL     1      14.559  15.113  13.292  1.00  0.00     0.219 HD
ENDBRANCH   1  24
BRANCH   1  26
HETATM   26  N3  UNL     1      14.687  17.310  13.725  1.00  0.00    -0.340 N 
HETATM   27  C19 UNL     1      15.626  17.861  13.177  1.00  0.00     0.164 C 
ATOM     28  H3  UNL     1      14.760  17.243  14.741  1.00  0.00     0.167 HD
BRANCH  27  29
HETATM   29  C20 UNL     1      16.855  18.435  13.679  1.00  0.00     0.260 C 
HETATM   30  O3  UNL     1      17.803  17.633  13.997  1.00  0.00    -0.267 OA
HETATM   31  N4  UNL     1      16.955  19.802  13.766  1.00  0.00    -0.327 N 
ATOM     32  H4  UNL     1      16.057  20.197  13.486  1.00  0.00     0.168 HD
BRANCH  31  33
HETATM   33  C21 UNL     1      17.807  20.867  14.088  1.00  0.00     0.025 C 
BRANCH  33  34
HETATM   34  C22 UNL     1      18.155  21.879  13.077  1.00  0.00     0.059 C 
BRANCH  34  35
HETATM   35  C23 UNL     1      19.628  22.266  13.056  1.00  0.00    -0.017 C 
HETATM   36  C24 UNL     1      20.496  21.088  12.655  1.00  0.00     0.010 C 
HETATM   37  C25 UNL     1      19.936  23.455  12.185  1.00  0.00     0.010 C 
ENDBRANCH  34  35
ENDBRANCH  33  34
BRANCH  33  38
HETATM   38  C26 UNL     1      17.684  21.283  15.530  1.00  0.00     0.210 C 
HETATM   39  C27 UNL     1      18.561  20.314  16.349  1.00  0.00     0.054 C 
BRANCH  38  40
HETATM   40  N5  UNL     1      16.350  20.772  15.991  1.00  0.00    -0.384 NA
HETATM   41  C28 UNL     1      15.206  20.291  16.323  1.00  0.00     0.407 C 
HETATM   42  O4  UNL     1      14.362  19.450  15.827  1.00  0.00    -0.229 OA
HETATM   43  N6  UNL     1      14.626  20.750  17.624  1.00  0.00    -0.246 N 
ATOM     44  H6  UNL     1      15.103  21.467  18.170  1.00  0.00     0.192 HD
BRANCH  43  45
HETATM   45  N7  UNL     1      13.473  20.217  18.074  1.00  0.00    -0.340 N 
ATOM     46  H72 UNL     1      13.221  19.271  17.788  1.00  0.00     0.177 HD
ATOM     47  H71 UNL     1      12.866  20.758  18.691  1.00  0.00     0.177 HD
ENDBRANCH  43  45
ENDBRANCH  38  40
ENDBRANCH  33  38
ENDBRANCH  31  33
ENDBRANCH  27  29
ENDBRANCH   1  26
TORSDOF 18
ENDMDL
MODEL 4
REMARK VINA RESULT: -6.462481621      1.923      2.297
REMARK  18 active torsions:
REMARK  status: ('A' for Active; 'I' for Inactive)
REMARK    1  A    between atoms: C2_2  and  C4_4 
REMARK    2  A    between atoms: C4_4  and  C5_5 
REMARK    3  A    between atoms: C5_5  and  N1_6 
REMARK    4  A    between atoms: C5_5  and  C9_11 
REMARK    5  A    between atoms: N1_6  and  C6_8 
REMARK       I    between atoms: C9_11  and  N2_13 
REMARK    6  A    between atoms: N2_13  and  C10_15 
REMARK    7  A    between atoms: C10_15  and  C11_16 
REMARK    8  A    between atoms: C10_15  and  C18_23 
REMARK    9  A    between atoms: C11_16  and  C12_17 
REMARK   10  A    between atoms: C18_23  and  O2_24 
REMARK   11  A    between atoms: C18_23  and  N3_26 
REMARK   12  A    between atoms: C19_28  and  C20_29 
REMARK       I    between atoms: C20_29  and  N4_31 
REMARK   13  A    between atoms: N4_31  and  C21_33 
REMARK   14  A    between atoms: C21_33  and  C22_34 
REMARK   15  A    between atoms: C21_33  and  C26_38 
REMARK   16  A    between atoms: C22_34  and  C23_35 
REMARK   17  A    between atoms: C26_38  and  N5_40 
REMARK       I    between atoms: N5_40  and  C28_41 
REMARK       I    between atoms: C28_41  and  N6_43 
REMARK   18  A    between atoms: N6_43  and  N7_45 
ROOT
HETATM    1  C18 UNL     1      13.917  19.742  16.037  1.00  0.00     0.163 C 
ENDROOT
BRANCH   1   2
HETATM    2  C10 UNL     1      13.338  18.596  15.332  1.00  0.00     0.063 C 
BRANCH   2   3
HETATM    3  N2  UNL     1      12.506  19.077  14.281  1.00  0.00    -0.325 N 
HETATM    4  C9  UNL     1      11.153  19.229  13.954  1.00  0.00     0.244 C 
HETATM    5  O1  UNL     1      10.239  18.868  14.643  1.00  0.00    -0.271 OA
ATOM      6  H2  UNL     1      13.085  19.424  13.517  1.00  0.00     0.169 HD
BRANCH   4   7
HETATM    7  C5  UNL     1      10.940  19.969  12.598  1.00  0.00     0.170 C 
BRANCH   7   8
HETATM    8  C4  UNL     1      11.546  19.294  11.483  1.00  0.00     0.038 C 
BRANCH   8   9
HETATM    9  C2  UNL     1      11.159  17.882  11.144  1.00  0.00    -0.020 C 
HETATM   10  C1  UNL     1      12.437  17.286  10.478  1.00  0.00     0.009 C 
HETATM   11  C3  UNL     1      10.128  17.604  10.128  1.00  0.00     0.009 C 
ENDBRANCH   8   9
ENDBRANCH   7   8
BRANCH   7  12
HETATM   12  N1  UNL     1       9.498  20.020  12.682  1.00  0.00    -0.406 N 
ATOM     13  H1  UNL     1       9.013  19.287  13.201  1.00  0.00     0.154 HD
BRANCH  12  14
HETATM   14  C6  UNL     1       8.744  21.022  12.088  1.00  0.00     0.069 C 
HETATM   15  C7  UNL     1       8.154  20.747  10.760  1.00  0.00     0.031 C 
HETATM   16  C8  UNL     1       9.578  22.317  11.919  1.00  0.00     0.031 C 
ENDBRANCH  12  14
ENDBRANCH   7  12
ENDBRANCH   4   7
ENDBRANCH   2   3
BRANCH   2  17
HETATM   17  C11 UNL     1      14.046  17.320  15.301  1.00  0.00     0.066 C 
BRANCH  17  18
HETATM   18  C12 UNL     1      14.590  16.858  13.976  1.00  0.00    -0.009 C 
HETATM   19  C13 UNL     1      14.520  15.412  13.672  1.00  0.00     0.005 C 
HETATM   20  C14 UNL     1      14.917  15.149  12.221  1.00  0.00     0.000 C 
HETATM   21  C15 UNL     1      15.685  16.298  11.640  1.00  0.00     0.000 C 
HETATM   22  C16 UNL     1      16.755  16.706  12.695  1.00  0.00     0.000 C 
HETATM   23  C17 UNL     1      16.067  17.316  13.892  1.00  0.00     0.005 C 
ENDBRANCH  17  18
ENDBRANCH   2  17
ENDBRANCH   1   2
BRANCH   1  24
HETATM   24  O2  UNL     1      13.699  19.747  17.365  1.00  0.00    -0.345 OA
ATOM     25  H2  UNL     1      13.474  20.598  17.723  1.00  0.00     0.219 HD
ENDBRANCH   1  24
BRANCH   1  26
HETATM   26  N3  UNL     1      14.664  20.878  15.698  1.00  0.00    -0.340 N 
HETATM   27  C19 UNL     1      14.369  22.059  15.767  1.00  0.00     0.164 C 
ATOM     28  H3  UNL     1      15.600  20.688  15.338  1.00  0.00     0.167 HD
BRANCH  27  29
HETATM   29  C20 UNL     1      15.080  23.269  15.418  1.00  0.00     0.260 C 
HETATM   30  O3  UNL     1      14.840  24.323  16.106  1.00  0.00    -0.267 OA
HETATM   31  N4  UNL     1      15.988  23.225  14.389  1.00  0.00    -0.327 N 
ATOM     32  H4  UNL     1      15.961  22.286  13.992  1.00  0.00     0.168 HD
BRANCH  31  33
HETATM   33  C21 UNL     1      16.938  23.963  13.670  1.00  0.00     0.025 C 
BRANCH  33  34
HETATM   34  C22 UNL     1      17.447  25.241  14.196  1.00  0.00     0.059 C 
BRANCH  34  35
HETATM   35  C23 UNL     1      16.911  26.473  13.480  1.00  0.00    -0.017 C 
HETATM   36  C24 UNL     1      17.514  26.602  12.093  1.00  0.00     0.010 C 
HETATM   37  C25 UNL     1      15.409  26.529  13.397  1.00  0.00     0.010 C 
ENDBRANCH  34  35
ENDBRANCH  33  34
BRANCH  33  38
HETATM   38  C26 UNL     1      17.857  23.083  12.863  1.00  0.00     0.210 C 
HETATM   39  C27 UNL     1      16.963  22.257  11.916  1.00  0.00     0.054 C 
BRANCH  38  40
HETATM   40  N5  UNL     1      18.257  21.962  13.778  1.00  0.00    -0.384 NA
HETATM   41  C28 UNL     1      18.613  20.960  14.498  1.00  0.00     0.407 C 
HETATM   42  O4  UNL     1      19.021  19.753  14.290  1.00  0.00    -0.229 OA
HETATM   43  N6  UNL     1      18.606  21.151  15.981  1.00  0.00    -0.246 N 
ATOM     44  H6  UNL     1      18.263  22.024  16.381  1.00  0.00     0.192 HD
BRANCH  43  45
HETATM   45  N7  UNL     1      19.054  20.171  16.790  1.00  0.00    -0.340 N 
ATOM     46  H72 UNL     1      19.023  19.206  16.462  1.00  0.00     0.177 HD
ATOM     47  H71 UNL     1      19.417  20.398  17.716  1.00  0.00     0.177 HD
ENDBRANCH  43  45
ENDBRANCH  38  40
ENDBRANCH  33  38
ENDBRANCH  31  33
ENDBRANCH  27  29
ENDBRANCH   1  26
TORSDOF 18
ENDMDL
MODEL 5
REMARK VINA RESULT: -6.441638684      2.142      3.621
REMARK  18 active torsions:
REMARK  status: ('A' for Active; 'I' for Inactive)
REMARK    1  A    between atoms: C2_2  and  C4_4 
REMARK    2  A    between atoms: C4_4  and  C5_5 
REMARK    3  A    between atoms: C5_5  and  N1_6 
REMARK    4  A    between atoms: C5_5  and  C9_11 
REMARK    5  A    between atoms: N1_6  and  C6_8 
REMARK       I    between atoms: C9_11  and  N2_13 
REMARK    6  A    between atoms: N2_13  and  C10_15 
REMARK    7  A    between atoms: C10_15  and  C11_16 
REMARK    8  A    between atoms: C10_15  and  C18_23 
REMARK    9  A    between atoms: C11_16  and  C12_17 
REMARK   10  A    between atoms: C18_23  and  O2_24 
REMARK   11  A    between atoms: C18_23  and  N3_26 
REMARK   12  A    between atoms: C19_28  and  C20_29 
REMARK       I    between atoms: C20_29  and  N4_31 
REMARK   13  A    between atoms: N4_31  and  C21_33 
REMARK   14  A    between atoms: C21_33  and  C22_34 
REMARK   15  A    between atoms: C21_33  and  C26_38 
REMARK   16  A    between atoms: C22_34  and  C23_35 
REMARK   17  A    between atoms: C26_38  and  N5_40 
REMARK       I    between atoms: N5_40  and  C28_41 
REMARK       I    between atoms: C28_41  and  N6_43 
REMARK   18  A    between atoms: N6_43  and  N7_45 
ROOT
HETATM    1  C18 UNL     1      11.708  18.711  14.131  1.00  0.00     0.163 C 
ENDROOT
BRANCH   1   2
HETATM    2  C10 UNL     1      11.721  17.790  12.991  1.00  0.00     0.063 C 
BRANCH   2   3
HETATM    3  N2  UNL     1      11.330  18.502  11.822  1.00  0.00    -0.325 N 
HETATM    4  C9  UNL     1      11.449  19.766  11.233  1.00  0.00     0.244 C 
HETATM    5  O1  UNL     1      11.998  20.706  11.739  1.00  0.00    -0.271 OA
ATOM      6  H2  UNL     1      10.786  17.889  11.214  1.00  0.00     0.169 HD
BRANCH   4   7
HETATM    7  C5  UNL     1      10.824  19.829   9.806  1.00  0.00     0.170 C 
BRANCH   7   8
HETATM    8  C4  UNL     1      11.645  19.212   8.801  1.00  0.00     0.038 C 
BRANCH   8   9
HETATM    9  C2  UNL     1      11.264  17.882   8.214  1.00  0.00    -0.020 C 
HETATM   10  C1  UNL     1      12.219  16.868   8.917  1.00  0.00     0.009 C 
HETATM   11  C3  UNL     1      11.503  17.587   6.790  1.00  0.00     0.009 C 
ENDBRANCH   8   9
ENDBRANCH   7   8
BRANCH   7  12
HETATM   12  N1  UNL     1       9.573  19.200  10.165  1.00  0.00    -0.406 N 
ATOM     13  H1  UNL     1       9.591  18.247  10.528  1.00  0.00     0.154 HD
BRANCH  12  14
HETATM   14  C6  UNL     1       8.346  19.838  10.037  1.00  0.00     0.069 C 
HETATM   15  C7  UNL     1       7.438  19.378   8.965  1.00  0.00     0.031 C 
HETATM   16  C8  UNL     1       8.533  21.358   9.809  1.00  0.00     0.031 C 
ENDBRANCH  12  14
ENDBRANCH   7  12
ENDBRANCH   4   7
ENDBRANCH   2   3
BRANCH   2  17
HETATM   17  C11 UNL     1      12.615  16.636  12.992  1.00  0.00     0.066 C 
BRANCH  17  18
HETATM   18  C12 UNL     1      14.090  16.900  13.135  1.00  0.00    -0.009 C 
HETATM   19  C13 UNL     1      14.783  17.556  12.005  1.00  0.00     0.005 C 
HETATM   20  C14 UNL     1      16.210  17.933  12.398  1.00  0.00     0.000 C 
HETATM   21  C15 UNL     1      16.675  17.165  13.599  1.00  0.00     0.000 C 
HETATM   22  C16 UNL     1      16.282  15.677  13.364  1.00  0.00     0.000 C 
HETATM   23  C17 UNL     1      14.779  15.544  13.425  1.00  0.00     0.005 C 
ENDBRANCH  17  18
ENDBRANCH   2  17
ENDBRANCH   1   2
BRANCH   1  24
HETATM   24  O2  UNL     1      10.585  18.667  14.870  1.00  0.00    -0.345 OA
ATOM     25  H2  UNL     1      10.566  17.970  15.516  1.00  0.00     0.219 HD
ENDBRANCH   1  24
BRANCH   1  26
HETATM   26  N3  UNL     1      12.576  19.662  14.684  1.00  0.00    -0.340 N 
HETATM   27  C19 UNL     1      13.163  19.659  15.753  1.00  0.00     0.164 C 
ATOM     28  H3  UNL     1      12.741  20.485  14.104  1.00  0.00     0.167 HD
BRANCH  27  29
HETATM   29  C20 UNL     1      14.049  20.610  16.387  1.00  0.00     0.260 C 
HETATM   30  O3  UNL     1      13.959  20.755  17.657  1.00  0.00    -0.267 OA
HETATM   31  N4  UNL     1      14.953  21.288  15.607  1.00  0.00    -0.327 N 
ATOM     32  H4  UNL     1      14.792  21.015  14.638  1.00  0.00     0.168 HD
BRANCH  31  33
HETATM   33  C21 UNL     1      16.010  22.208  15.621  1.00  0.00     0.025 C 
BRANCH  33  34
HETATM   34  C22 UNL     1      17.407  21.743  15.641  1.00  0.00     0.059 C 
BRANCH  34  35
HETATM   35  C23 UNL     1      17.691  20.563  14.721  1.00  0.00    -0.017 C 
HETATM   36  C24 UNL     1      18.214  21.035  13.376  1.00  0.00     0.010 C 
HETATM   37  C25 UNL     1      18.625  19.539  15.308  1.00  0.00     0.010 C 
ENDBRANCH  34  35
ENDBRANCH  33  34
BRANCH  33  38
HETATM   38  C26 UNL     1      15.671  23.481  14.891  1.00  0.00     0.210 C 
HETATM   39  C27 UNL     1      14.306  23.954  15.432  1.00  0.00     0.054 C 
BRANCH  38  40
HETATM   40  N5  UNL     1      15.203  23.060  13.529  1.00  0.00    -0.384 NA
HETATM   41  C28 UNL     1      14.776  22.771  12.352  1.00  0.00     0.407 C 
HETATM   42  O4  UNL     1      14.169  23.389  11.396  1.00  0.00    -0.229 OA
HETATM   43  N6  UNL     1      15.021  21.378  11.863  1.00  0.00    -0.246 N 
ATOM     44  H6  UNL     1      15.447  20.688  12.481  1.00  0.00     0.192 HD
BRANCH  43  45
HETATM   45  N7  UNL     1      14.680  21.035  10.605  1.00  0.00    -0.340 N 
ATOM     46  H72 UNL     1      15.381  21.104   9.867  1.00  0.00     0.177 HD
ATOM     47  H71 UNL     1      13.734  20.712  10.402  1.00  0.00     0.177 HD
ENDBRANCH  43  45
ENDBRANCH  38  40
ENDBRANCH  33  38
ENDBRANCH  31  33
ENDBRANCH  27  29
ENDBRANCH   1  26
TORSDOF 18
ENDMDL
