MODEL 1
REMARK VINA RESULT: -6.709623795      0.000      0.000
REMARK  16 active torsions:
REMARK  status: ('A' for Active; 'I' for Inactive)
REMARK    1  A    between atoms: C2_2  and  C3_3 
REMARK    2  A    between atoms: C3_3  and  N1_4 
REMARK    3  A    between atoms: C3_3  and  C4_8 
REMARK       I    between atoms: C4_8  and  N2_10 
REMARK    4  A    between atoms: N2_10  and  C5_12 
REMARK    5  A    between atoms: C5_12  and  C6_13 
REMARK    6  A    between atoms: C6_13  and  C7_14 
REMARK    7  A    between atoms: C6_13  and  N3_21 
REMARK    8  A    between atoms: C7_14  and  C8_15 
REMARK       I    between atoms: N3_21  and  C14_23 
REMARK    9  A    between atoms: C14_23  and  C15_25 
REMARK   10  A    between atoms: C15_25  and  C16_26 
REMARK   11  A    between atoms: C15_25  and  N4_30 
REMARK   12  A    between atoms: C16_26  and  C17_27 
REMARK       I    between atoms: N4_30  and  C20_32 
REMARK   13  A    between atoms: C20_32  and  C21_34 
REMARK   14  A    between atoms: C21_34  and  C22_35 
REMARK   15  A    between atoms: C21_34  and  N5_42 
REMARK   16  A    between atoms: C22_35  and  C23_36 
ROOT
HETATM    1  N3  UNL     1      13.921  19.456  15.411  1.00  0.00    -0.353 N 
ATOM      2  H3  UNL     1      14.400  19.468  14.510  1.00  0.00     0.163 HD
HETATM    3  C14 UNL     1      14.206  20.463  16.341  1.00  0.00     0.240 C 
HETATM    4  O2  UNL     1      13.615  20.438  17.447  1.00  0.00    -0.271 OA
ENDROOT
BRANCH   3   5
HETATM    5  C15 UNL     1      15.171  21.563  16.093  1.00  0.00     0.177 C 
BRANCH   5   6
HETATM    6  C16 UNL     1      14.599  22.921  16.374  1.00  0.00     0.038 C 
BRANCH   6   7
HETATM    7  C17 UNL     1      13.941  23.544  15.184  1.00  0.00    -0.020 C 
HETATM    8  C18 UNL     1      12.471  23.192  15.096  1.00  0.00     0.009 C 
HETATM    9  C19 UNL     1      14.028  25.055  15.194  1.00  0.00     0.009 C 
ENDBRANCH   6   7
ENDBRANCH   5   6
BRANCH   5  10
HETATM   10  N4  UNL     1      15.731  21.511  14.776  1.00  0.00    -0.346 N 
HETATM   11  C20 UNL     1      17.041  21.018  14.548  1.00  0.00     0.241 C 
HETATM   12  O3  UNL     1      17.774  20.604  15.479  1.00  0.00    -0.271 OA
ATOM     13  H4  UNL     1      15.175  21.835  13.985  1.00  0.00     0.163 HD
BRANCH  11  14
HETATM   14  C21 UNL     1      17.584  20.981  13.165  1.00  0.00     0.176 C 
BRANCH  14  15
HETATM   15  C22 UNL     1      16.542  20.903  12.104  1.00  0.00     0.039 C 
BRANCH  15  16
HETATM   16  C23 UNL     1      16.379  22.153  11.304  1.00  0.00    -0.012 C 
HETATM   17  C24 UNL     1      15.642  23.257  12.015  1.00  0.00     0.005 C 
HETATM   18  C25 UNL     1      14.232  23.432  11.499  1.00  0.00     0.000 C 
HETATM   19  C26 UNL     1      13.533  22.103  11.330  1.00  0.00     0.000 C 
HETATM   20  C27 UNL     1      14.260  21.276  10.321  1.00  0.00     0.000 C 
HETATM   21  C28 UNL     1      15.593  21.883  10.023  1.00  0.00     0.005 C 
ENDBRANCH  15  16
ENDBRANCH  14  15
BRANCH  14  22
HETATM   22  N5  UNL     1      18.433  22.173  12.948  1.00  0.00    -0.354 N 
HETATM   23  C29 UNL     1      19.679  22.064  12.694  1.00  0.00     0.197 C 
HETATM   24  N6  UNL     1      20.432  23.253  12.497  1.00  0.00    -0.067 NA
HETATM   25  N7  UNL     1      20.378  20.829  12.593  1.00  0.00    -0.067 NA
ATOM     26  H5  UNL     1      18.014  23.100  13.002  1.00  0.00     0.162 HD
ENDBRANCH  14  22
ENDBRANCH  11  14
ENDBRANCH   5  10
ENDBRANCH   3   5
BRANCH   1  27
HETATM   27  C6  UNL     1      12.933  18.354  15.691  1.00  0.00     0.102 C 
BRANCH  27  28
HETATM   28  C5  UNL     1      13.748  17.164  15.891  1.00  0.00     0.147 C 
BRANCH  28  29
HETATM   29  N2  UNL     1      14.265  16.451  14.757  1.00  0.00    -0.357 N 
HETATM   30  C4  UNL     1      15.550  16.752  14.203  1.00  0.00     0.248 C 
HETATM   31  O1  UNL     1      16.251  17.657  14.712  1.00  0.00    -0.271 OA
ATOM     32  H2  UNL     1      13.703  15.711  14.335  1.00  0.00     0.162 HD
BRANCH  30  33
HETATM   33  C3  UNL     1      16.073  16.014  13.039  1.00  0.00     0.274 C 
BRANCH  33  34
HETATM   34  C2  UNL     1      14.903  15.365  12.318  1.00  0.00     0.038 C 
HETATM   35  C1  UNL     1      14.879  15.911  10.897  1.00  0.00     0.007 C 
ENDBRANCH  33  34
BRANCH  33  36
HETATM   36  N1  UNL     1      16.796  16.862  12.123  1.00  0.00    -0.067 N 
ATOM     37  H13 UNL     1      16.597  17.851  12.276  1.00  0.00     0.275 HD
ATOM     38  H12 UNL     1      17.796  16.882  12.324  1.00  0.00     0.275 HD
ATOM     39  H11 UNL     1      16.602  16.574  11.164  1.00  0.00     0.275 HD
ENDBRANCH  33  36
ENDBRANCH  30  33
ENDBRANCH  28  29
ENDBRANCH  27  28
BRANCH  27  40
HETATM   40  C7  UNL     1      11.875  18.550  14.730  1.00  0.00     0.031 C 
BRANCH  40  41
HETATM   41  C8  UNL     1      11.841  19.358  13.525  1.00  0.00    -0.013 C 
HETATM   42  C9  UNL     1      10.471  19.658  13.023  1.00  0.00     0.005 C 
HETATM   43  C10 UNL     1      10.384  19.478  11.496  1.00  0.00     0.000 C 
HETATM   44  C11 UNL     1      10.496  18.013  11.224  1.00  0.00     0.000 C 
HETATM   45  C12 UNL     1      11.775  17.508  11.807  1.00  0.00     0.000 C 
HETATM   46  C13 UNL     1      12.604  18.592  12.430  1.00  0.00     0.005 C 
ENDBRANCH  40  41
ENDBRANCH  27  40
ENDBRANCH   1  27
TORSDOF 16
ENDMDL
MODEL 2
REMARK VINA RESULT: -6.543654827      2.322      6.075
REMARK  16 active torsions:
REMARK  status: ('A' for Active; 'I' for Inactive)
REMARK    1  A    between atoms: C2_2  and  C3_3 
REMARK    2  A    between atoms: C3_3  and  N1_4 
REMARK    3  A    between atoms: C3_3  and  C4_8 
REMARK       I    between atoms: C4_8  and  N2_10 
REMARK    4  A    between atoms: N2_10  and  C5_12 
REMARK    5  A    between atoms: C5_12  and  C6_13 
REMARK    6  A    between atoms: C6_13  and  C7_14 
REMARK    7  A    between atoms: C6_13  and  N3_21 
REMARK    8  A    between atoms: C7_14  and  C8_15 
REMARK       I    between atoms: N3_21  and  C14_23 
REMARK    9  A    between atoms: C14_23  and  C15_25 
REMARK   10  A    between atoms: C15_25  and  C16_26 
REMARK   11  A    between atoms: C15_25  and  N4_30 
REMARK   12  A    between atoms: C16_26  and  C17_27 
REMARK       I    between atoms: N4_30  and  C20_32 
REMARK   13  A    between atoms: C20_32  and  C21_34 
REMARK   14  A    between atoms: C21_34  and  C22_35 
REMARK   15  A    between atoms: C21_34  and  N5_42 
REMARK   16  A    between atoms: C22_35  and  C23_36 
ROOT
HETATM    1  N3  UNL     1      16.415  20.438  14.350  1.00  0.00    -0.353 N 
ATOM      2  H3  UNL     1      16.664  21.009  13.542  1.00  0.00     0.163 HD
HETATM    3  C14 UNL     1      15.301  20.804  15.116  1.00  0.00     0.240 C 
HETATM    4  O2  UNL     1      15.003  20.099  16.110  1.00  0.00    -0.271 OA
ENDROOT
BRANCH   3   5
HETATM    5  C15 UNL     1      14.449  21.982  14.819  1.00  0.00     0.177 C 
BRANCH   5   6
HETATM    6  C16 UNL     1      14.216  22.857  16.014  1.00  0.00     0.038 C 
BRANCH   6   7
HETATM    7  C17 UNL     1      14.708  24.257  15.829  1.00  0.00    -0.020 C 
HETATM    8  C18 UNL     1      15.761  24.352  14.745  1.00  0.00     0.009 C 
HETATM    9  C19 UNL     1      13.602  25.218  15.450  1.00  0.00     0.009 C 
ENDBRANCH   6   7
ENDBRANCH   5   6
BRANCH   5  10
HETATM   10  N4  UNL     1      13.205  21.616  14.209  1.00  0.00    -0.346 N 
HETATM   11  C20 UNL     1      13.135  21.229  12.846  1.00  0.00     0.241 C 
HETATM   12  O3  UNL     1      14.149  21.187  12.107  1.00  0.00    -0.271 OA
ATOM     13  H4  UNL     1      12.352  21.633  14.768  1.00  0.00     0.163 HD
BRANCH  11  14
HETATM   14  C21 UNL     1      11.825  20.856  12.252  1.00  0.00     0.176 C 
BRANCH  14  15
HETATM   15  C22 UNL     1      11.863  19.618  11.426  1.00  0.00     0.039 C 
BRANCH  15  16
HETATM   16  C23 UNL     1      11.151  19.727  10.118  1.00  0.00    -0.012 C 
HETATM   17  C24 UNL     1       9.719  19.260  10.146  1.00  0.00     0.005 C 
HETATM   18  C25 UNL     1       9.539  17.917   9.474  1.00  0.00     0.000 C 
HETATM   19  C26 UNL     1      10.616  16.940   9.887  1.00  0.00     0.000 C 
HETATM   20  C27 UNL     1      11.952  17.455   9.466  1.00  0.00     0.000 C 
HETATM   21  C28 UNL     1      11.844  18.886   9.048  1.00  0.00     0.005 C 
ENDBRANCH  15  16
ENDBRANCH  14  15
BRANCH  14  22
HETATM   22  N5  UNL     1      10.829  20.707  13.335  1.00  0.00    -0.354 N 
HETATM   23  C29 UNL     1       9.719  21.336  13.309  1.00  0.00     0.197 C 
HETATM   24  N6  UNL     1       8.811  21.144  14.385  1.00  0.00    -0.067 NA
HETATM   25  N7  UNL     1       9.320  22.226  12.274  1.00  0.00    -0.067 NA
ATOM     26  H5  UNL     1      11.033  20.088  14.119  1.00  0.00     0.162 HD
ENDBRANCH  14  22
ENDBRANCH  11  14
ENDBRANCH   5  10
ENDBRANCH   3   5
BRANCH   1  27
HETATM   27  C6  UNL     1      17.258  19.234  14.676  1.00  0.00     0.102 C 
BRANCH  27  28
HETATM   28  C5  UNL     1      18.599  19.762  14.883  1.00  0.00     0.147 C 
BRANCH  28  29
HETATM   29  N2  UNL     1      19.352  20.264  13.768  1.00  0.00    -0.357 N 
HETATM   30  C4  UNL     1      19.399  21.662  13.463  1.00  0.00     0.248 C 
HETATM   31  O1  UNL     1      18.772  22.477  14.178  1.00  0.00    -0.271 OA
ATOM     32  H2  UNL     1      19.867  19.610  13.180  1.00  0.00     0.162 HD
BRANCH  30  33
HETATM   33  C3  UNL     1      20.175  22.169  12.316  1.00  0.00     0.274 C 
BRANCH  33  34
HETATM   34  C2  UNL     1      20.105  23.687  12.325  1.00  0.00     0.038 C 
HETATM   35  C1  UNL     1      21.282  24.206  11.512  1.00  0.00     0.007 C 
ENDBRANCH  33  34
BRANCH  33  36
HETATM   36  N1  UNL     1      21.554  21.748  12.349  1.00  0.00    -0.067 N 
ATOM     37  H13 UNL     1      21.881  21.576  13.300  1.00  0.00     0.275 HD
ATOM     38  H12 UNL     1      21.677  20.805  11.980  1.00  0.00     0.275 HD
ATOM     39  H11 UNL     1      22.132  22.431  11.860  1.00  0.00     0.275 HD
ENDBRANCH  33  36
ENDBRANCH  30  33
ENDBRANCH  28  29
ENDBRANCH  27  28
BRANCH  27  40
HETATM   40  C7  UNL     1      16.843  18.223  13.734  1.00  0.00     0.031 C 
BRANCH  40  41
HETATM   41  C8  UNL     1      15.840  17.180  13.860  1.00  0.00    -0.013 C 
HETATM   42  C9  UNL     1      16.253  15.860  13.305  1.00  0.00     0.005 C 
HETATM   43  C10 UNL     1      15.119  15.223  12.482  1.00  0.00     0.000 C 
HETATM   44  C11 UNL     1      14.967  16.042  11.242  1.00  0.00     0.000 C 
HETATM   45  C12 UNL     1      14.693  17.459  11.628  1.00  0.00     0.000 C 
HETATM   46  C13 UNL     1      14.582  17.651  13.111  1.00  0.00     0.005 C 
ENDBRANCH  40  41
ENDBRANCH  27  40
ENDBRANCH   1  27
TORSDOF 16
ENDMDL
MODEL 3
REMARK VINA RESULT: -6.489649215      2.177      7.360
REMARK  16 active torsions:
REMARK  status: ('A' for Active; 'I' for Inactive)
REMARK    1  A    between atoms: C2_2  and  C3_3 
REMARK    2  A    between atoms: C3_3  and  N1_4 
REMARK    3  A    between atoms: C3_3  and  C4_8 
REMARK       I    between atoms: C4_8  and  N2_10 
REMARK    4  A    between atoms: N2_10  and  C5_12 
REMARK    5  A    between atoms: C5_12  and  C6_13 
REMARK    6  A    between atoms: C6_13  and  C7_14 
REMARK    7  A    between atoms: C6_13  and  N3_21 
REMARK    8  A    between atoms: C7_14  and  C8_15 
REMARK       I    between atoms: N3_21  and  C14_23 
REMARK    9  A    between atoms: C14_23  and  C15_25 
REMARK   10  A    between atoms: C15_25  and  C16_26 
REMARK   11  A    between atoms: C15_25  and  N4_30 
REMARK   12  A    between atoms: C16_26  and  C17_27 
REMARK       I    between atoms: N4_30  and  C20_32 
REMARK   13  A    between atoms: C20_32  and  C21_34 
REMARK   14  A    between atoms: C21_34  and  C22_35 
REMARK   15  A    between atoms: C21_34  and  N5_42 
REMARK   16  A    between atoms: C22_35  and  C23_36 
ROOT
HETATM    1  N3  UNL     1      17.335  20.412  13.670  1.00  0.00    -0.353 N 
ATOM      2  H3  UNL     1      16.591  20.858  13.134  1.00  0.00     0.163 HD
HETATM    3  C14 UNL     1      17.256  19.036  13.918  1.00  0.00     0.240 C 
HETATM    4  O2  UNL     1      18.174  18.496  14.582  1.00  0.00    -0.271 OA
ENDROOT
BRANCH   3   5
HETATM    5  C15 UNL     1      16.146  18.176  13.439  1.00  0.00     0.177 C 
BRANCH   5   6
HETATM    6  C16 UNL     1      16.617  16.999  12.638  1.00  0.00     0.038 C 
BRANCH   6   7
HETATM    7  C17 UNL     1      16.026  15.701  13.087  1.00  0.00    -0.020 C 
HETATM    8  C18 UNL     1      15.549  15.759  14.523  1.00  0.00     0.009 C 
HETATM    9  C19 UNL     1      14.839  15.280  12.249  1.00  0.00     0.009 C 
ENDBRANCH   6   7
ENDBRANCH   5   6
BRANCH   5  10
HETATM   10  N4  UNL     1      15.154  18.916  12.718  1.00  0.00    -0.346 N 
HETATM   11  C20 UNL     1      13.823  19.028  13.194  1.00  0.00     0.241 C 
HETATM   12  O3  UNL     1      13.444  18.489  14.263  1.00  0.00    -0.271 OA
ATOM     13  H4  UNL     1      15.411  19.373  11.844  1.00  0.00     0.163 HD
BRANCH  11  14
HETATM   14  C21 UNL     1      12.824  19.806  12.416  1.00  0.00     0.176 C 
BRANCH  14  15
HETATM   15  C22 UNL     1      12.538  19.247  11.065  1.00  0.00     0.039 C 
BRANCH  15  16
HETATM   16  C23 UNL     1      12.479  17.756  11.013  1.00  0.00    -0.012 C 
HETATM   17  C24 UNL     1      12.947  17.158   9.712  1.00  0.00     0.005 C 
HETATM   18  C25 UNL     1      11.799  16.655   8.865  1.00  0.00     0.000 C 
HETATM   19  C26 UNL     1      10.661  17.649   8.825  1.00  0.00     0.000 C 
HETATM   20  C27 UNL     1      10.122  17.853  10.202  1.00  0.00     0.000 C 
HETATM   21  C28 UNL     1      11.049  17.259  11.212  1.00  0.00     0.005 C 
ENDBRANCH  15  16
ENDBRANCH  14  15
BRANCH  14  22
HETATM   22  N5  UNL     1      11.571  19.901  13.196  1.00  0.00    -0.354 N 
HETATM   23  C29 UNL     1      11.035  21.029  13.457  1.00  0.00     0.197 C 
HETATM   24  N6  UNL     1       9.831  21.043  14.212  1.00  0.00    -0.067 NA
HETATM   25  N7  UNL     1      11.558  22.286  13.045  1.00  0.00    -0.067 NA
ATOM     26  H5  UNL     1      11.127  19.047  13.532  1.00  0.00     0.162 HD
ENDBRANCH  14  22
ENDBRANCH  11  14
ENDBRANCH   5  10
ENDBRANCH   3   5
BRANCH   1  27
HETATM   27  C6  UNL     1      18.478  21.258  14.167  1.00  0.00     0.102 C 
BRANCH  27  28
HETATM   28  C5  UNL     1      18.131  21.583  15.543  1.00  0.00     0.147 C 
BRANCH  28  29
HETATM   29  N2  UNL     1      16.954  22.358  15.822  1.00  0.00    -0.357 N 
HETATM   30  C4  UNL     1      15.714  21.737  16.177  1.00  0.00     0.248 C 
HETATM   31  O1  UNL     1      15.641  20.489  16.252  1.00  0.00    -0.271 OA
ATOM     32  H2  UNL     1      17.002  23.375  15.764  1.00  0.00     0.162 HD
BRANCH  30  33
HETATM   33  C3  UNL     1      14.511  22.540  16.462  1.00  0.00     0.274 C 
BRANCH  33  34
HETATM   34  C2  UNL     1      14.799  23.984  16.087  1.00  0.00     0.038 C 
HETATM   35  C1  UNL     1      13.586  24.516  15.337  1.00  0.00     0.007 C 
ENDBRANCH  33  34
BRANCH  33  36
HETATM   36  N1  UNL     1      13.350  22.076  15.742  1.00  0.00    -0.067 N 
ATOM     37  H13 UNL     1      12.647  22.807  15.635  1.00  0.00     0.275 HD
ATOM     38  H12 UNL     1      13.548  21.917  14.754  1.00  0.00     0.275 HD
ATOM     39  H11 UNL     1      12.975  21.244  16.198  1.00  0.00     0.275 HD
ENDBRANCH  33  36
ENDBRANCH  30  33
ENDBRANCH  28  29
ENDBRANCH  27  28
BRANCH  27  40
HETATM   40  C7  UNL     1      18.761  22.172  13.087  1.00  0.00     0.031 C 
BRANCH  40  41
HETATM   41  C8  UNL     1      18.235  23.498  12.819  1.00  0.00    -0.013 C 
HETATM   42  C9  UNL     1      17.539  23.630  11.508  1.00  0.00     0.005 C 
HETATM   43  C10 UNL     1      17.949  24.927  10.788  1.00  0.00     0.000 C 
HETATM   44  C11 UNL     1      19.372  24.759  10.363  1.00  0.00     0.000 C 
HETATM   45  C12 UNL     1      20.204  24.462  11.568  1.00  0.00     0.000 C 
HETATM   46  C13 UNL     1      19.417  24.481  12.844  1.00  0.00     0.005 C 
ENDBRANCH  40  41
ENDBRANCH  27  40
ENDBRANCH   1  27
TORSDOF 16
ENDMDL
MODEL 4
REMARK VINA RESULT: -6.469078260      1.886      2.842
REMARK  16 active torsions:
REMARK  status: ('A' for Active; 'I' for Inactive)
REMARK    1  A    between atoms: C2_2  and  C3_3 
REMARK    2  A    between atoms: C3_3  and  N1_4 
REMARK    3  A    between atoms: C3_3  and  C4_8 
REMARK       I    between atoms: C4_8  and  N2_10 
REMARK    4  A    between atoms: N2_10  and  C5_12 
REMARK    5  A    between atoms: C5_12  and  C6_13 
REMARK    6  A    between atoms: C6_13  and  C7_14 
REMARK    7  A    between atoms: C6_13  and  N3_21 
REMARK    8  A    between atoms: C7_14  and  C8_15 
REMARK       I    between atoms: N3_21  and  C14_23 
REMARK    9  A    between atoms: C14_23  and  C15_25 
REMARK   10  A    between atoms: C15_25  and  C16_26 
REMARK   11  A    between atoms: C15_25  and  N4_30 
REMARK   12  A    between atoms: C16_26  and  C17_27 
REMARK       I    between atoms: N4_30  and  C20_32 
REMARK   13  A    between atoms: C20_32  and  C21_34 
REMARK   14  A    between atoms: C21_34  and  C22_35 
REMARK   15  A    between atoms: C21_34  and  N5_42 
REMARK   16  A    between atoms: C22_35  and  C23_36 
ROOT
HETATM    1  N3  UNL     1      13.278  20.043  14.729  1.00  0.00    -0.353 N 
ATOM      2  H3  UNL     1      13.898  19.975  13.922  1.00  0.00     0.163 HD
HETATM    3  C14 UNL     1      13.274  21.226  15.478  1.00  0.00     0.240 C 
HETATM    4  O2  UNL     1      12.511  21.301  16.471  1.00  0.00    -0.271 OA
ENDROOT
BRANCH   3   5
HETATM    5  C15 UNL     1      14.122  22.403  15.163  1.00  0.00     0.177 C 
BRANCH   5   6
HETATM    6  C16 UNL     1      13.336  23.578  14.664  1.00  0.00     0.038 C 
BRANCH   6   7
HETATM    7  C17 UNL     1      13.856  24.891  15.157  1.00  0.00    -0.020 C 
HETATM    8  C18 UNL     1      14.646  25.626  14.096  1.00  0.00     0.009 C 
HETATM    9  C19 UNL     1      12.752  25.824  15.605  1.00  0.00     0.009 C 
ENDBRANCH   6   7
ENDBRANCH   5   6
BRANCH   5  10
HETATM   10  N4  UNL     1      15.185  22.082  14.258  1.00  0.00    -0.346 N 
HETATM   11  C20 UNL     1      16.541  22.339  14.588  1.00  0.00     0.241 C 
HETATM   12  O3  UNL     1      16.880  22.855  15.681  1.00  0.00    -0.271 OA
ATOM     13  H4  UNL     1      14.962  21.660  13.357  1.00  0.00     0.163 HD
BRANCH  11  14
HETATM   14  C21 UNL     1      17.614  21.990  13.620  1.00  0.00     0.176 C 
BRANCH  14  15
HETATM   15  C22 UNL     1      18.559  23.105  13.334  1.00  0.00     0.039 C 
BRANCH  15  16
HETATM   16  C23 UNL     1      17.907  24.358  12.847  1.00  0.00    -0.012 C 
HETATM   17  C24 UNL     1      17.514  24.332  11.393  1.00  0.00     0.005 C 
HETATM   18  C25 UNL     1      18.437  25.165  10.533  1.00  0.00     0.000 C 
HETATM   19  C26 UNL     1      19.888  24.928  10.884  1.00  0.00     0.000 C 
HETATM   20  C27 UNL     1      20.137  25.333  12.299  1.00  0.00     0.000 C 
HETATM   21  C28 UNL     1      18.840  25.556  13.007  1.00  0.00     0.005 C 
ENDBRANCH  15  16
ENDBRANCH  14  15
BRANCH  14  22
HETATM   22  N5  UNL     1      18.359  20.818  14.127  1.00  0.00    -0.354 N 
HETATM   23  C29 UNL     1      17.816  19.666  14.199  1.00  0.00     0.197 C 
HETATM   24  N6  UNL     1      18.593  18.585  14.697  1.00  0.00    -0.067 NA
HETATM   25  N7  UNL     1      16.476  19.379  13.817  1.00  0.00    -0.067 NA
ATOM     26  H5  UNL     1      19.327  20.933  14.425  1.00  0.00     0.162 HD
ENDBRANCH  14  22
ENDBRANCH  11  14
ENDBRANCH   5  10
ENDBRANCH   3   5
BRANCH   1  27
HETATM   27  C6  UNL     1      12.402  18.867  15.072  1.00  0.00     0.102 C 
BRANCH  27  28
HETATM   28  C5  UNL     1      13.327  17.817  15.476  1.00  0.00     0.147 C 
BRANCH  28  29
HETATM   29  N2  UNL     1      14.436  17.475  14.630  1.00  0.00    -0.357 N 
HETATM   30  C4  UNL     1      14.409  16.317  13.789  1.00  0.00     0.248 C 
HETATM   31  O1  UNL     1      13.399  15.577  13.781  1.00  0.00    -0.271 OA
ATOM     32  H2  UNL     1      15.263  18.072  14.628  1.00  0.00     0.162 HD
BRANCH  30  33
HETATM   33  C3  UNL     1      15.552  15.974  12.924  1.00  0.00     0.274 C 
BRANCH  33  34
HETATM   34  C2  UNL     1      15.435  16.773  11.637  1.00  0.00     0.038 C 
HETATM   35  C1  UNL     1      14.743  15.890  10.608  1.00  0.00     0.007 C 
ENDBRANCH  33  34
BRANCH  33  36
HETATM   36  N1  UNL     1      16.823  16.245  13.548  1.00  0.00    -0.067 N 
ATOM     37  H13 UNL     1      16.755  16.265  14.566  1.00  0.00     0.275 HD
ATOM     38  H12 UNL     1      17.470  15.461  13.460  1.00  0.00     0.275 HD
ATOM     39  H11 UNL     1      17.213  17.109  13.171  1.00  0.00     0.275 HD
ENDBRANCH  33  36
ENDBRANCH  30  33
ENDBRANCH  28  29
ENDBRANCH  27  28
BRANCH  27  40
HETATM   40  C7  UNL     1      11.415  18.820  14.021  1.00  0.00     0.031 C 
BRANCH  40  41
HETATM   41  C8  UNL     1      11.409  19.446  12.712  1.00  0.00    -0.013 C 
HETATM   42  C9  UNL     1      10.053  19.628  12.122  1.00  0.00     0.005 C 
HETATM   43  C10 UNL     1      10.034  19.230  10.635  1.00  0.00     0.000 C 
HETATM   44  C11 UNL     1      10.196  17.746  10.579  1.00  0.00     0.000 C 
HETATM   45  C12 UNL     1      11.463  17.371  11.276  1.00  0.00     0.000 C 
HETATM   46  C13 UNL     1      12.236  18.558  11.767  1.00  0.00     0.005 C 
ENDBRANCH  40  41
ENDBRANCH  27  40
ENDBRANCH   1  27
TORSDOF 16
ENDMDL
MODEL 5
REMARK VINA RESULT: -6.292340836      2.365      5.092
REMARK  16 active torsions:
REMARK  status: ('A' for Active; 'I' for Inactive)
REMARK    1  A    between atoms: C2_2  and  C3_3 
REMARK    2  A    between atoms: C3_3  and  N1_4 
REMARK    3  A    between atoms: C3_3  and  C4_8 
REMARK       I    between atoms: C4_8  and  N2_10 
REMARK    4  A    between atoms: N2_10  and  C5_12 
REMARK    5  A    between atoms: C5_12  and  C6_13 
REMARK    6  A    between atoms: C6_13  and  C7_14 
REMARK    7  A    between atoms: C6_13  and  N3_21 
REMARK    8  A    between atoms: C7_14  and  C8_15 
REMARK       I    between atoms: N3_21  and  C14_23 
REMARK    9  A    between atoms: C14_23  and  C15_25 
REMARK   10  A    between atoms: C15_25  and  C16_26 
REMARK   11  A    between atoms: C15_25  and  N4_30 
REMARK   12  A    between atoms: C16_26  and  C17_27 
REMARK       I    between atoms: N4_30  and  C20_32 
REMARK   13  A    between atoms: C20_32  and  C21_34 
REMARK   14  A    between atoms: C21_34  and  C22_35 
REMARK   15  A    between atoms: C21_34  and  N5_42 
REMARK   16  A    between atoms: C22_35  and  C23_36 
ROOT
HETATM    1  N3  UNL     1      12.376  20.498  11.901  1.00  0.00    -0.353 N 
ATOM      2  H3  UNL     1      13.057  19.776  12.140  1.00  0.00     0.163 HD
HETATM    3  C14 UNL     1      12.826  21.672  11.284  1.00  0.00     0.240 C 
HETATM    4  O2  UNL     1      11.982  22.555  10.997  1.00  0.00    -0.271 OA
ENDROOT
BRANCH   3   5
HETATM    5  C15 UNL     1      14.248  21.933  10.949  1.00  0.00     0.177 C 
BRANCH   5   6
HETATM    6  C16 UNL     1      14.464  22.232   9.496  1.00  0.00     0.038 C 
BRANCH   6   7
HETATM    7  C17 UNL     1      15.854  22.689   9.185  1.00  0.00    -0.020 C 
HETATM    8  C18 UNL     1      16.073  22.881   7.699  1.00  0.00     0.009 C 
HETATM    9  C19 UNL     1      16.198  24.003   9.851  1.00  0.00     0.009 C 
ENDBRANCH   6   7
ENDBRANCH   5   6
BRANCH   5  10
HETATM   10  N4  UNL     1      15.114  20.879  11.385  1.00  0.00    -0.346 N 
HETATM   11  C20 UNL     1      15.391  20.669  12.760  1.00  0.00     0.241 C 
HETATM   12  O3  UNL     1      14.898  21.390  13.662  1.00  0.00    -0.271 OA
ATOM     13  H4  UNL     1      15.539  20.265  10.691  1.00  0.00     0.163 HD
BRANCH  11  14
HETATM   14  C21 UNL     1      16.295  19.563  13.170  1.00  0.00     0.176 C 
BRANCH  14  15
HETATM   15  C22 UNL     1      16.127  18.315  12.374  1.00  0.00     0.039 C 
BRANCH  15  16
HETATM   16  C23 UNL     1      15.274  17.278  13.026  1.00  0.00    -0.012 C 
HETATM   17  C24 UNL     1      15.740  15.862  12.813  1.00  0.00     0.005 C 
HETATM   18  C25 UNL     1      14.878  15.116  11.819  1.00  0.00     0.000 C 
HETATM   19  C26 UNL     1      14.578  15.960  10.601  1.00  0.00     0.000 C 
HETATM   20  C27 UNL     1      13.813  17.176  11.006  1.00  0.00     0.000 C 
HETATM   21  C28 UNL     1      13.844  17.333  12.492  1.00  0.00     0.005 C 
ENDBRANCH  15  16
ENDBRANCH  14  15
BRANCH  14  22
HETATM   22  N5  UNL     1      17.697  20.028  13.085  1.00  0.00    -0.354 N 
HETATM   23  C29 UNL     1      18.539  19.772  14.008  1.00  0.00     0.197 C 
HETATM   24  N6  UNL     1      19.868  20.252  13.859  1.00  0.00    -0.067 NA
HETATM   25  N7  UNL     1      18.243  19.036  15.189  1.00  0.00    -0.067 NA
ATOM     26  H5  UNL     1      17.996  20.565  12.271  1.00  0.00     0.162 HD
ENDBRANCH  14  22
ENDBRANCH  11  14
ENDBRANCH   5  10
ENDBRANCH   3   5
BRANCH   1  27
HETATM   27  C6  UNL     1      10.925  20.260  12.225  1.00  0.00     0.102 C 
BRANCH  27  28
HETATM   28  C5  UNL     1      10.793  20.615  13.631  1.00  0.00     0.147 C 
BRANCH  28  29
HETATM   29  N2  UNL     1      11.927  20.509  14.506  1.00  0.00    -0.357 N 
HETATM   30  C4  UNL     1      12.242  19.287  15.182  1.00  0.00     0.248 C 
HETATM   31  O1  UNL     1      11.519  18.278  15.014  1.00  0.00    -0.271 OA
ATOM     32  H2  UNL     1      12.523  21.324  14.649  1.00  0.00     0.162 HD
BRANCH  30  33
HETATM   33  C3  UNL     1      13.409  19.188  16.078  1.00  0.00     0.274 C 
BRANCH  33  34
HETATM   34  C2  UNL     1      13.361  20.349  17.057  1.00  0.00     0.038 C 
HETATM   35  C1  UNL     1      14.765  20.928  17.153  1.00  0.00     0.007 C 
ENDBRANCH  33  34
BRANCH  33  36
HETATM   36  N1  UNL     1      13.446  17.943  16.805  1.00  0.00    -0.067 N 
ATOM     37  H13 UNL     1      14.400  17.618  16.961  1.00  0.00     0.275 HD
ATOM     38  H12 UNL     1      13.170  18.058  17.780  1.00  0.00     0.275 HD
ATOM     39  H11 UNL     1      12.876  17.248  16.323  1.00  0.00     0.275 HD
ENDBRANCH  33  36
ENDBRANCH  30  33
ENDBRANCH  28  29
ENDBRANCH  27  28
BRANCH  27  40
HETATM   40  C7  UNL     1      10.604  19.002  11.596  1.00  0.00     0.031 C 
BRANCH  40  41
HETATM   41  C8  UNL     1       9.861  18.724  10.381  1.00  0.00    -0.013 C 
HETATM   42  C9  UNL     1      10.068  17.353   9.833  1.00  0.00     0.005 C 
HETATM   43  C10 UNL     1      10.267  17.387   8.307  1.00  0.00     0.000 C 
HETATM   44  C11 UNL     1      11.596  18.021   8.055  1.00  0.00     0.000 C 
HETATM   45  C12 UNL     1      11.613  19.376   8.684  1.00  0.00     0.000 C 
HETATM   46  C13 UNL     1      10.306  19.744   9.320  1.00  0.00     0.005 C 
ENDBRANCH  40  41
ENDBRANCH  27  40
ENDBRANCH   1  27
TORSDOF 16
ENDMDL
