MODEL 1
REMARK VINA RESULT: -6.204210465      0.000      0.000
REMARK  20 active torsions:
REMARK  status: ('A' for Active; 'I' for Inactive)
REMARK    1  A    between atoms: N1_2  and  C2_5 
REMARK    2  A    between atoms: C2_5  and  C3_6 
REMARK    3  A    between atoms: C3_6  and  C4_7 
REMARK    4  A    between atoms: C4_7  and  C5_8 
REMARK    5  A    between atoms: C5_8  and  C6_9 
REMARK    6  A    between atoms: C6_9  and  C7_10 
REMARK    7  A    between atoms: C7_10  and  N2_11 
REMARK    8  A    between atoms: N2_11  and  C8_13 
REMARK    9  A    between atoms: C9_16  and  N4_17 
REMARK   10  A    between atoms: N4_17  and  C10_19 
REMARK   11  A    between atoms: C10_19  and  C11_20 
REMARK   12  A    between atoms: C11_20  and  C12_21 
REMARK   13  A    between atoms: C12_21  and  N5_22 
REMARK   14  A    between atoms: N5_22  and  C13_24 
REMARK   15  A    between atoms: C18_31  and  O1_32 
REMARK   16  A    between atoms: O1_32  and  C19_33 
REMARK   17  A    between atoms: C25_41  and  N8_42 
REMARK   18  A    between atoms: N8_42  and  C26_44 
REMARK   19  A    between atoms: C26_44  and  C27_45 
REMARK   20  A    between atoms: C27_45  and  N9_46 
ROOT
HETATM    1  C8  UNL     1      11.770  18.324  14.001  1.00  0.00     0.707 A 
HETATM    2  N3  UNL     1      12.458  17.297  13.563  1.00  0.00    -0.021 N 
ATOM      3  H3  UNL     1      12.135  16.833  12.713  1.00  0.00     0.203 HD
HETATM    4  C9  UNL     1      13.582  16.806  14.173  1.00  0.00     0.710 A 
HETATM    5  N7  UNL     1      13.942  17.471  15.288  1.00  0.00    -0.021 N 
ATOM      6  H7  UNL     1      14.772  17.150  15.787  1.00  0.00     0.203 HD
HETATM    7  C25 UNL     1      13.282  18.530  15.788  1.00  0.00     0.707 A 
HETATM    8  N10 UNL     1      12.200  18.943  15.133  1.00  0.00    -0.022 N 
ATOM      9  H10 UNL     1      11.679  19.744  15.489  1.00  0.00     0.203 HD
ENDROOT
BRANCH   4  10
HETATM   10  N4  UNL     1      14.146  15.840  13.669  1.00  0.00    -0.204 N 
ATOM     11  H4  UNL     1      14.133  15.063  14.329  1.00  0.00     0.183 HD
BRANCH  10  12
HETATM   12  C10 UNL     1      14.789  15.448  12.520  1.00  0.00     0.080 C 
BRANCH  12  13
HETATM   13  C11 UNL     1      15.496  16.460  11.677  1.00  0.00     0.065 C 
BRANCH  13  14
HETATM   14  C12 UNL     1      16.677  17.119  12.339  1.00  0.00     0.125 C 
BRANCH  14  15
HETATM   15  N5  UNL     1      16.381  18.460  12.718  1.00  0.00    -0.389 N 
ATOM     16  H5  UNL     1      15.482  18.827  12.408  1.00  0.00     0.159 HD
BRANCH  15  17
HETATM   17  C13 UNL     1      17.110  19.258  13.401  1.00  0.00     0.042 A 
HETATM   18  C14 UNL     1      17.783  18.847  14.523  1.00  0.00     0.047 A 
HETATM   19  C15 UNL     1      18.569  19.757  15.241  1.00  0.00     0.090 A 
HETATM   20  N6  UNL     1      18.640  21.020  14.804  1.00  0.00    -0.365 N 
HETATM   21  C16 UNL     1      17.995  21.461  13.710  1.00  0.00     0.047 A 
ATOM     22  H6  UNL     1      19.212  21.681  15.328  1.00  0.00     0.165 HD
HETATM   23  C17 UNL     1      18.089  22.782  13.286  1.00  0.00     0.067 A 
HETATM   24  C24 UNL     1      17.221  20.568  13.002  1.00  0.00     0.017 A 
HETATM   25  C18 UNL     1      17.450  23.262  12.189  1.00  0.00     0.071 A 
HETATM   26  C22 UNL     1      16.662  22.360  11.463  1.00  0.00     0.038 A 
HETATM   27  C23 UNL     1      16.555  21.043  11.867  1.00  0.00     0.019 A 
BRANCH  25  28
HETATM   28  O1  UNL     1      17.485  24.545  11.697  1.00  0.00    -0.347 OA
BRANCH  28  29
HETATM   29  C19 UNL     1      18.033  24.956  10.492  1.00  0.00     0.120 C 
HETATM   30  C20 UNL     1      17.410  26.222   9.948  1.00  0.00     0.040 C 
HETATM   31  C21 UNL     1      19.527  25.115  10.694  1.00  0.00     0.040 C 
ENDBRANCH  28  29
ENDBRANCH  25  28
ENDBRANCH  15  17
ENDBRANCH  14  15
ENDBRANCH  13  14
ENDBRANCH  12  13
ENDBRANCH  10  12
ENDBRANCH   4  10
BRANCH   1  32
HETATM   32  N2  UNL     1      10.729  18.765  13.414  1.00  0.00    -0.225 N 
ATOM     33  H2  UNL     1       9.820  18.634  13.857  1.00  0.00     0.177 HD
BRANCH  32  34
HETATM   34  C7  UNL     1      10.796  19.438  12.150  1.00  0.00     0.138 C 
BRANCH  34  35
HETATM   35  C6  UNL     1       9.909  18.809  11.091  1.00  0.00     0.020 C 
BRANCH  35  36
HETATM   36  C5  UNL     1      10.519  17.579  10.500  1.00  0.00     0.002 C 
BRANCH  36  37
HETATM   37  C4  UNL     1      10.110  17.298   9.087  1.00  0.00     0.002 C 
BRANCH  37  38
HETATM   38  C3  UNL     1      11.379  17.402   8.240  1.00  0.00     0.027 C 
BRANCH  38  39
HETATM   39  C2  UNL     1      11.406  18.685   7.445  1.00  0.00     0.231 C 
BRANCH  39  40
HETATM   40  N1  UNL     1      11.401  18.454   6.029  1.00  0.00    -0.079 N 
HETATM   41  C1  UNL     1      11.778  17.100   5.684  1.00  0.00     0.266 C 
ATOM     42  H12 UNL     1      11.989  19.132   5.545  1.00  0.00     0.276 HD
ATOM     43  H11 UNL     1      10.498  18.697   5.621  1.00  0.00     0.276 HD
ENDBRANCH  39  40
ENDBRANCH  38  39
ENDBRANCH  37  38
ENDBRANCH  36  37
ENDBRANCH  35  36
ENDBRANCH  34  35
ENDBRANCH  32  34
ENDBRANCH   1  32
BRANCH   7  44
HETATM   44  N8  UNL     1      13.615  19.191  16.834  1.00  0.00    -0.223 N 
ATOM     45  H8  UNL     1      13.813  18.689  17.699  1.00  0.00     0.177 HD
BRANCH  44  46
HETATM   46  C26 UNL     1      13.715  20.622  16.812  1.00  0.00     0.168 C 
BRANCH  46  47
HETATM   47  C27 UNL     1      15.052  21.073  16.248  1.00  0.00     0.291 C 
BRANCH  47  48
HETATM   48  N9  UNL     1      14.910  22.160  15.343  1.00  0.00     0.081 N 
HETATM   49  C28 UNL     1      14.814  23.440  15.972  1.00  0.00     0.309 C 
HETATM   50  C29 UNL     1      13.973  21.990  14.280  1.00  0.00     0.309 C 
ENDBRANCH  47  48
ENDBRANCH  46  47
ENDBRANCH  44  46
ENDBRANCH   7  44
TORSDOF 20
ENDMDL
MODEL 2
REMARK VINA RESULT: -6.171509350      2.046      6.208
REMARK  20 active torsions:
REMARK  status: ('A' for Active; 'I' for Inactive)
REMARK    1  A    between atoms: N1_2  and  C2_5 
REMARK    2  A    between atoms: C2_5  and  C3_6 
REMARK    3  A    between atoms: C3_6  and  C4_7 
REMARK    4  A    between atoms: C4_7  and  C5_8 
REMARK    5  A    between atoms: C5_8  and  C6_9 
REMARK    6  A    between atoms: C6_9  and  C7_10 
REMARK    7  A    between atoms: C7_10  and  N2_11 
REMARK    8  A    between atoms: N2_11  and  C8_13 
REMARK    9  A    between atoms: C9_16  and  N4_17 
REMARK   10  A    between atoms: N4_17  and  C10_19 
REMARK   11  A    between atoms: C10_19  and  C11_20 
REMARK   12  A    between atoms: C11_20  and  C12_21 
REMARK   13  A    between atoms: C12_21  and  N5_22 
REMARK   14  A    between atoms: N5_22  and  C13_24 
REMARK   15  A    between atoms: C18_31  and  O1_32 
REMARK   16  A    between atoms: O1_32  and  C19_33 
REMARK   17  A    between atoms: C25_41  and  N8_42 
REMARK   18  A    between atoms: N8_42  and  C26_44 
REMARK   19  A    between atoms: C26_44  and  C27_45 
REMARK   20  A    between atoms: C27_45  and  N9_46 
ROOT
HETATM    1  C8  UNL     1      12.973  20.249  15.455  1.00  0.00     0.707 A 
HETATM    2  N3  UNL     1      13.749  19.220  15.701  1.00  0.00    -0.021 N 
ATOM      3  H3  UNL     1      14.544  19.360  16.324  1.00  0.00     0.203 HD
HETATM    4  C9  UNL     1      13.559  17.969  15.175  1.00  0.00     0.710 A 
HETATM    5  N7  UNL     1      12.488  17.867  14.363  1.00  0.00    -0.021 N 
ATOM      6  H7  UNL     1      12.297  16.958  13.940  1.00  0.00     0.203 HD
HETATM    7  C25 UNL     1      11.655  18.881  14.072  1.00  0.00     0.707 A 
HETATM    8  N10 UNL     1      11.911  20.062  14.626  1.00  0.00    -0.022 N 
ATOM      9  H10 UNL     1      11.296  20.850  14.423  1.00  0.00     0.203 HD
ENDROOT
BRANCH   4  10
HETATM   10  N4  UNL     1      14.348  17.081  15.479  1.00  0.00    -0.204 N 
ATOM     11  H4  UNL     1      14.808  17.328  16.355  1.00  0.00     0.183 HD
BRANCH  10  12
HETATM   12  C10 UNL     1      14.825  15.868  15.044  1.00  0.00     0.080 C 
BRANCH  12  13
HETATM   13  C11 UNL     1      15.923  15.816  14.030  1.00  0.00     0.065 C 
BRANCH  13  14
HETATM   14  C12 UNL     1      15.487  15.414  12.647  1.00  0.00     0.125 C 
BRANCH  14  15
HETATM   15  N5  UNL     1      15.585  16.501  11.732  1.00  0.00    -0.389 N 
ATOM     16  H5  UNL     1      16.527  16.756  11.436  1.00  0.00     0.159 HD
BRANCH  15  17
HETATM   17  C13 UNL     1      14.633  17.196  11.238  1.00  0.00     0.042 A 
HETATM   18  C14 UNL     1      13.689  16.648  10.406  1.00  0.00     0.047 A 
HETATM   19  C15 UNL     1      12.664  17.448   9.888  1.00  0.00     0.090 A 
HETATM   20  N6  UNL     1      12.635  18.743  10.223  1.00  0.00    -0.365 N 
HETATM   21  C16 UNL     1      13.541  19.317  11.034  1.00  0.00     0.047 A 
ATOM     22  H6  UNL     1      11.888  19.324   9.843  1.00  0.00     0.165 HD
HETATM   23  C17 UNL     1      13.483  20.668  11.358  1.00  0.00     0.067 A 
HETATM   24  C24 UNL     1      14.551  18.532  11.545  1.00  0.00     0.017 A 
HETATM   25  C18 UNL     1      14.381  21.281  12.171  1.00  0.00     0.071 A 
HETATM   26  C22 UNL     1      15.410  20.489  12.697  1.00  0.00     0.038 A 
HETATM   27  C23 UNL     1      15.486  19.144  12.386  1.00  0.00     0.019 A 
BRANCH  25  28
HETATM   28  O1  UNL     1      14.403  22.603  12.546  1.00  0.00    -0.347 OA
BRANCH  28  29
HETATM   29  C19 UNL     1      14.417  23.703  11.703  1.00  0.00     0.120 C 
HETATM   30  C20 UNL     1      13.995  24.987  12.381  1.00  0.00     0.040 C 
HETATM   31  C21 UNL     1      15.809  23.817  11.115  1.00  0.00     0.040 C 
ENDBRANCH  28  29
ENDBRANCH  25  28
ENDBRANCH  15  17
ENDBRANCH  14  15
ENDBRANCH  13  14
ENDBRANCH  12  13
ENDBRANCH  10  12
ENDBRANCH   4  10
BRANCH   1  32
HETATM   32  N2  UNL     1      13.167  21.401  15.960  1.00  0.00    -0.225 N 
ATOM     33  H2  UNL     1      12.361  21.968  16.221  1.00  0.00     0.177 HD
BRANCH  32  34
HETATM   34  C7  UNL     1      14.484  21.928  16.172  1.00  0.00     0.138 C 
BRANCH  34  35
HETATM   35  C6  UNL     1      14.578  23.420  15.914  1.00  0.00     0.020 C 
BRANCH  35  36
HETATM   36  C5  UNL     1      15.923  23.821  15.395  1.00  0.00     0.002 C 
BRANCH  36  37
HETATM   37  C4  UNL     1      16.933  22.716  15.365  1.00  0.00     0.002 C 
BRANCH  37  38
HETATM   38  C3  UNL     1      17.824  22.977  14.150  1.00  0.00     0.027 C 
BRANCH  38  39
HETATM   39  C2  UNL     1      18.731  21.804  13.869  1.00  0.00     0.231 C 
BRANCH  39  40
HETATM   40  N1  UNL     1      18.953  20.992  15.032  1.00  0.00    -0.079 N 
HETATM   41  C1  UNL     1      18.629  19.599  14.808  1.00  0.00     0.266 C 
ATOM     42  H12 UNL     1      18.449  21.360  15.838  1.00  0.00     0.276 HD
ATOM     43  H11 UNL     1      19.908  21.095  15.374  1.00  0.00     0.276 HD
ENDBRANCH  39  40
ENDBRANCH  38  39
ENDBRANCH  37  38
ENDBRANCH  36  37
ENDBRANCH  35  36
ENDBRANCH  34  35
ENDBRANCH  32  34
ENDBRANCH   1  32
BRANCH   7  44
HETATM   44  N8  UNL     1      10.621  18.803  13.320  1.00  0.00    -0.223 N 
ATOM     45  H8  UNL     1      10.232  17.887  13.098  1.00  0.00     0.177 HD
BRANCH  44  46
HETATM   46  C26 UNL     1      10.000  19.980  12.783  1.00  0.00     0.168 C 
BRANCH  46  47
HETATM   47  C27 UNL     1       9.434  19.720  11.396  1.00  0.00     0.291 C 
BRANCH  47  48
HETATM   48  N9  UNL     1       8.224  20.432  11.172  1.00  0.00     0.081 N 
HETATM   49  C28 UNL     1       7.475  20.708  12.358  1.00  0.00     0.309 C 
HETATM   50  C29 UNL     1       7.408  19.982  10.090  1.00  0.00     0.309 C 
ENDBRANCH  47  48
ENDBRANCH  46  47
ENDBRANCH  44  46
ENDBRANCH   7  44
TORSDOF 20
ENDMDL
MODEL 3
REMARK VINA RESULT: -6.023305862      2.503      7.160
REMARK  20 active torsions:
REMARK  status: ('A' for Active; 'I' for Inactive)
REMARK    1  A    between atoms: N1_2  and  C2_5 
REMARK    2  A    between atoms: C2_5  and  C3_6 
REMARK    3  A    between atoms: C3_6  and  C4_7 
REMARK    4  A    between atoms: C4_7  and  C5_8 
REMARK    5  A    between atoms: C5_8  and  C6_9 
REMARK    6  A    between atoms: C6_9  and  C7_10 
REMARK    7  A    between atoms: C7_10  and  N2_11 
REMARK    8  A    between atoms: N2_11  and  C8_13 
REMARK    9  A    between atoms: C9_16  and  N4_17 
REMARK   10  A    between atoms: N4_17  and  C10_19 
REMARK   11  A    between atoms: C10_19  and  C11_20 
REMARK   12  A    between atoms: C11_20  and  C12_21 
REMARK   13  A    between atoms: C12_21  and  N5_22 
REMARK   14  A    between atoms: N5_22  and  C13_24 
REMARK   15  A    between atoms: C18_31  and  O1_32 
REMARK   16  A    between atoms: O1_32  and  C19_33 
REMARK   17  A    between atoms: C25_41  and  N8_42 
REMARK   18  A    between atoms: N8_42  and  C26_44 
REMARK   19  A    between atoms: C26_44  and  C27_45 
REMARK   20  A    between atoms: C27_45  and  N9_46 
ROOT
HETATM    1  C8  UNL     1      12.934  19.519  10.307  1.00  0.00     0.707 A 
HETATM    2  N3  UNL     1      13.506  18.654  11.110  1.00  0.00    -0.021 N 
ATOM      3  H3  UNL     1      14.010  19.015  11.920  1.00  0.00     0.203 HD
HETATM    4  C9  UNL     1      13.471  17.296  10.930  1.00  0.00     0.710 A 
HETATM    5  N7  UNL     1      12.787  16.900   9.838  1.00  0.00    -0.021 N 
ATOM      6  H7  UNL     1      12.728  15.898   9.651  1.00  0.00     0.203 HD
HETATM    7  C25 UNL     1      12.178  17.735   8.978  1.00  0.00     0.707 A 
HETATM    8  N10 UNL     1      12.261  19.038   9.228  1.00  0.00    -0.022 N 
ATOM      9  H10 UNL     1      11.808  19.695   8.592  1.00  0.00     0.203 HD
ENDROOT
BRANCH   4  10
HETATM   10  N4  UNL     1      14.041  16.583  11.749  1.00  0.00    -0.204 N 
ATOM     11  H4  UNL     1      13.486  16.546  12.604  1.00  0.00     0.183 HD
BRANCH  10  12
HETATM   12  C10 UNL     1      15.170  15.816  11.909  1.00  0.00     0.080 C 
BRANCH  12  13
HETATM   13  C11 UNL     1      16.446  16.451  12.361  1.00  0.00     0.065 C 
BRANCH  13  14
HETATM   14  C12 UNL     1      16.370  17.135  13.699  1.00  0.00     0.125 C 
BRANCH  14  15
HETATM   15  N5  UNL     1      16.399  18.554  13.563  1.00  0.00    -0.389 N 
ATOM     16  H5  UNL     1      16.341  18.915  12.611  1.00  0.00     0.159 HD
BRANCH  15  17
HETATM   17  C13 UNL     1      16.489  19.426  14.493  1.00  0.00     0.042 A 
HETATM   18  C14 UNL     1      17.682  19.716  15.105  1.00  0.00     0.047 A 
HETATM   19  C15 UNL     1      17.732  20.679  16.120  1.00  0.00     0.090 A 
HETATM   20  N6  UNL     1      16.597  21.296  16.469  1.00  0.00    -0.365 N 
HETATM   21  C16 UNL     1      15.409  21.040  15.894  1.00  0.00     0.047 A 
ATOM     22  H6  UNL     1      16.636  21.997  17.209  1.00  0.00     0.165 HD
HETATM   23  C17 UNL     1      14.248  21.699  16.284  1.00  0.00     0.067 A 
HETATM   24  C24 UNL     1      15.357  20.093  14.895  1.00  0.00     0.017 A 
HETATM   25  C18 UNL     1      13.033  21.463  15.728  1.00  0.00     0.071 A 
HETATM   26  C22 UNL     1      12.971  20.503  14.710  1.00  0.00     0.038 A 
HETATM   27  C23 UNL     1      14.114  19.836  14.308  1.00  0.00     0.019 A 
BRANCH  25  28
HETATM   28  O1  UNL     1      11.838  22.063  16.047  1.00  0.00    -0.347 OA
BRANCH  28  29
HETATM   29  C19 UNL     1      11.137  22.976  15.275  1.00  0.00     0.120 C 
HETATM   30  C20 UNL     1       9.875  23.482  15.937  1.00  0.00     0.040 C 
HETATM   31  C21 UNL     1      12.079  24.114  14.935  1.00  0.00     0.040 C 
ENDBRANCH  28  29
ENDBRANCH  25  28
ENDBRANCH  15  17
ENDBRANCH  14  15
ENDBRANCH  13  14
ENDBRANCH  12  13
ENDBRANCH  10  12
ENDBRANCH   4  10
BRANCH   1  32
HETATM   32  N2  UNL     1      12.977  20.777  10.498  1.00  0.00    -0.225 N 
ATOM     33  H2  UNL     1      12.141  21.333  10.317  1.00  0.00     0.177 HD
BRANCH  32  34
HETATM   34  C7  UNL     1      14.162  21.438  10.960  1.00  0.00     0.138 C 
BRANCH  34  35
HETATM   35  C6  UNL     1      13.872  22.668  11.799  1.00  0.00     0.020 C 
BRANCH  35  36
HETATM   36  C5  UNL     1      15.042  23.070  12.639  1.00  0.00     0.002 C 
BRANCH  36  37
HETATM   37  C4  UNL     1      16.341  22.445  12.236  1.00  0.00     0.002 C 
BRANCH  37  38
HETATM   38  C3  UNL     1      17.400  22.989  13.195  1.00  0.00     0.027 C 
BRANCH  38  39
HETATM   39  C2  UNL     1      18.787  22.873  12.609  1.00  0.00     0.231 C 
BRANCH  39  40
HETATM   40  N1  UNL     1      19.657  22.063  13.413  1.00  0.00    -0.079 N 
HETATM   41  C1  UNL     1      20.236  20.964  12.672  1.00  0.00     0.266 C 
ATOM     42  H12 UNL     1      19.177  21.729  14.249  1.00  0.00     0.276 HD
ATOM     43  H11 UNL     1      20.381  22.630  13.854  1.00  0.00     0.276 HD
ENDBRANCH  39  40
ENDBRANCH  38  39
ENDBRANCH  37  38
ENDBRANCH  36  37
ENDBRANCH  35  36
ENDBRANCH  34  35
ENDBRANCH  32  34
ENDBRANCH   1  32
BRANCH   7  44
HETATM   44  N8  UNL     1      11.507  17.382   7.946  1.00  0.00    -0.223 N 
ATOM     45  H8  UNL     1      10.797  16.655   8.036  1.00  0.00     0.177 HD
BRANCH  44  46
HETATM   46  C26 UNL     1      11.734  17.988   6.665  1.00  0.00     0.168 C 
BRANCH  46  47
HETATM   47  C27 UNL     1      11.743  16.948   5.556  1.00  0.00     0.291 C 
BRANCH  47  48
HETATM   48  N9  UNL     1      12.416  17.414   4.394  1.00  0.00     0.081 N 
HETATM   49  C28 UNL     1      13.452  16.548   3.927  1.00  0.00     0.309 C 
HETATM   50  C29 UNL     1      12.792  18.791   4.382  1.00  0.00     0.309 C 
ENDBRANCH  47  48
ENDBRANCH  46  47
ENDBRANCH  44  46
ENDBRANCH   7  44
TORSDOF 20
ENDMDL
MODEL 4
REMARK VINA RESULT: -5.980439512      2.456      5.291
REMARK  20 active torsions:
REMARK  status: ('A' for Active; 'I' for Inactive)
REMARK    1  A    between atoms: N1_2  and  C2_5 
REMARK    2  A    between atoms: C2_5  and  C3_6 
REMARK    3  A    between atoms: C3_6  and  C4_7 
REMARK    4  A    between atoms: C4_7  and  C5_8 
REMARK    5  A    between atoms: C5_8  and  C6_9 
REMARK    6  A    between atoms: C6_9  and  C7_10 
REMARK    7  A    between atoms: C7_10  and  N2_11 
REMARK    8  A    between atoms: N2_11  and  C8_13 
REMARK    9  A    between atoms: C9_16  and  N4_17 
REMARK   10  A    between atoms: N4_17  and  C10_19 
REMARK   11  A    between atoms: C10_19  and  C11_20 
REMARK   12  A    between atoms: C11_20  and  C12_21 
REMARK   13  A    between atoms: C12_21  and  N5_22 
REMARK   14  A    between atoms: N5_22  and  C13_24 
REMARK   15  A    between atoms: C18_31  and  O1_32 
REMARK   16  A    between atoms: O1_32  and  C19_33 
REMARK   17  A    between atoms: C25_41  and  N8_42 
REMARK   18  A    between atoms: N8_42  and  C26_44 
REMARK   19  A    between atoms: C26_44  and  C27_45 
REMARK   20  A    between atoms: C27_45  and  N9_46 
ROOT
HETATM    1  C8  UNL     1      11.582  17.820   8.617  1.00  0.00     0.707 A 
HETATM    2  N3  UNL     1      11.292  18.770   9.475  1.00  0.00    -0.021 N 
ATOM      3  H3  UNL     1      10.558  19.432   9.223  1.00  0.00     0.203 HD
HETATM    4  C9  UNL     1      11.911  18.929  10.687  1.00  0.00     0.710 A 
HETATM    5  N7  UNL     1      12.867  18.015  10.944  1.00  0.00    -0.021 N 
ATOM      6  H7  UNL     1      13.364  18.084  11.833  1.00  0.00     0.203 HD
HETATM    7  C25 UNL     1      13.211  17.019  10.110  1.00  0.00     0.707 A 
HETATM    8  N10 UNL     1      12.560  16.936   8.953  1.00  0.00    -0.022 N 
ATOM      9  H10 UNL     1      12.800  16.191   8.300  1.00  0.00     0.203 HD
ENDROOT
BRANCH   4  10
HETATM   10  N4  UNL     1      11.552  19.853  11.409  1.00  0.00    -0.204 N 
ATOM     11  H4  UNL     1      11.145  20.590  10.833  1.00  0.00     0.183 HD
BRANCH  10  12
HETATM   12  C10 UNL     1      11.510  20.235  12.729  1.00  0.00     0.080 C 
BRANCH  12  13
HETATM   13  C11 UNL     1      10.865  19.347  13.743  1.00  0.00     0.065 C 
BRANCH  13  14
HETATM   14  C12 UNL     1      11.824  18.630  14.655  1.00  0.00     0.125 C 
BRANCH  14  15
HETATM   15  N5  UNL     1      13.174  19.007  14.393  1.00  0.00    -0.389 N 
ATOM     16  H5  UNL     1      13.598  18.605  13.557  1.00  0.00     0.159 HD
BRANCH  15  17
HETATM   17  C13 UNL     1      13.914  19.788  15.082  1.00  0.00     0.042 A 
HETATM   18  C14 UNL     1      13.669  20.041  16.408  1.00  0.00     0.047 A 
HETATM   19  C15 UNL     1      14.507  20.906  17.122  1.00  0.00     0.090 A 
HETATM   20  N6  UNL     1      15.538  21.468  16.480  1.00  0.00    -0.365 N 
HETATM   21  C16 UNL     1      15.811  21.246  15.183  1.00  0.00     0.047 A 
ATOM     22  H6  UNL     1      16.146  22.098  17.002  1.00  0.00     0.165 HD
HETATM   23  C17 UNL     1      16.889  21.851  14.546  1.00  0.00     0.067 A 
HETATM   24  C24 UNL     1      14.987  20.396  14.478  1.00  0.00     0.017 A 
HETATM   25  C18 UNL     1      17.192  21.652  13.238  1.00  0.00     0.071 A 
HETATM   26  C22 UNL     1      16.361  20.788  12.514  1.00  0.00     0.038 A 
HETATM   27  C23 UNL     1      15.284  20.177  13.128  1.00  0.00     0.019 A 
BRANCH  25  28
HETATM   28  O1  UNL     1      18.232  22.204  12.528  1.00  0.00    -0.347 OA
BRANCH  28  29
HETATM   29  C19 UNL     1      19.557  22.282  12.927  1.00  0.00     0.120 C 
HETATM   30  C20 UNL     1      20.328  20.999  12.711  1.00  0.00     0.040 C 
HETATM   31  C21 UNL     1      20.195  23.443  12.190  1.00  0.00     0.040 C 
ENDBRANCH  28  29
ENDBRANCH  25  28
ENDBRANCH  15  17
ENDBRANCH  14  15
ENDBRANCH  13  14
ENDBRANCH  12  13
ENDBRANCH  10  12
ENDBRANCH   4  10
BRANCH   1  32
HETATM   32  N2  UNL     1      10.990  17.690   7.498  1.00  0.00    -0.225 N 
ATOM     33  H2  UNL     1      10.003  17.433   7.489  1.00  0.00     0.177 HD
BRANCH  32  34
HETATM   34  C7  UNL     1      11.666  17.894   6.250  1.00  0.00     0.138 C 
BRANCH  34  35
HETATM   35  C6  UNL     1      11.472  16.749   5.273  1.00  0.00     0.020 C 
BRANCH  35  36
HETATM   36  C5  UNL     1      12.732  16.410   4.542  1.00  0.00     0.002 C 
BRANCH  36  37
HETATM   37  C4  UNL     1      12.664  15.150   3.736  1.00  0.00     0.002 C 
BRANCH  37  38
HETATM   38  C3  UNL     1      13.357  15.449   2.406  1.00  0.00     0.027 C 
BRANCH  38  39
HETATM   39  C2  UNL     1      14.316  16.608   2.532  1.00  0.00     0.231 C 
BRANCH  39  40
HETATM   40  N1  UNL     1      15.559  16.368   1.857  1.00  0.00    -0.079 N 
HETATM   41  C1  UNL     1      15.434  16.438   0.417  1.00  0.00     0.266 C 
ATOM     42  H12 UNL     1      15.967  15.479   2.146  1.00  0.00     0.276 HD
ATOM     43  H11 UNL     1      16.286  16.999   2.193  1.00  0.00     0.276 HD
ENDBRANCH  39  40
ENDBRANCH  38  39
ENDBRANCH  37  38
ENDBRANCH  36  37
ENDBRANCH  35  36
ENDBRANCH  34  35
ENDBRANCH  32  34
ENDBRANCH   1  32
BRANCH   7  44
HETATM   44  N8  UNL     1      14.102  16.129  10.340  1.00  0.00    -0.223 N 
ATOM     45  H8  UNL     1      14.105  15.271   9.789  1.00  0.00     0.177 HD
BRANCH  44  46
HETATM   46  C26 UNL     1      15.097  16.314  11.357  1.00  0.00     0.168 C 
BRANCH  46  47
HETATM   47  C27 UNL     1      14.864  15.379  12.534  1.00  0.00     0.291 C 
BRANCH  47  48
HETATM   48  N9  UNL     1      15.690  15.703  13.644  1.00  0.00     0.081 N 
HETATM   49  C28 UNL     1      14.982  15.875  14.874  1.00  0.00     0.309 C 
HETATM   50  C29 UNL     1      16.686  16.703  13.430  1.00  0.00     0.309 C 
ENDBRANCH  47  48
ENDBRANCH  46  47
ENDBRANCH  44  46
ENDBRANCH   7  44
TORSDOF 20
ENDMDL
MODEL 5
REMARK VINA RESULT: -5.903807577      1.746      2.991
REMARK  20 active torsions:
REMARK  status: ('A' for Active; 'I' for Inactive)
REMARK    1  A    between atoms: N1_2  and  C2_5 
REMARK    2  A    between atoms: C2_5  and  C3_6 
REMARK    3  A    between atoms: C3_6  and  C4_7 
REMARK    4  A    between atoms: C4_7  and  C5_8 
REMARK    5  A    between atoms: C5_8  and  C6_9 
REMARK    6  A    between atoms: C6_9  and  C7_10 
REMARK    7  A    between atoms: C7_10  and  N2_11 
REMARK    8  A    between atoms: N2_11  and  C8_13 
REMARK    9  A    between atoms: C9_16  and  N4_17 
REMARK   10  A    between atoms: N4_17  and  C10_19 
REMARK   11  A    between atoms: C10_19  and  C11_20 
REMARK   12  A    between atoms: C11_20  and  C12_21 
REMARK   13  A    between atoms: C12_21  and  N5_22 
REMARK   14  A    between atoms: N5_22  and  C13_24 
REMARK   15  A    between atoms: C18_31  and  O1_32 
REMARK   16  A    between atoms: O1_32  and  C19_33 
REMARK   17  A    between atoms: C25_41  and  N8_42 
REMARK   18  A    between atoms: N8_42  and  C26_44 
REMARK   19  A    between atoms: C26_44  and  C27_45 
REMARK   20  A    between atoms: C27_45  and  N9_46 
ROOT
HETATM    1  C8  UNL     1      11.831  19.115  14.201  1.00  0.00     0.707 A 
HETATM    2  N3  UNL     1      12.652  18.138  14.504  1.00  0.00    -0.021 N 
ATOM      3  H3  UNL     1      12.427  17.202  14.164  1.00  0.00     0.203 HD
HETATM    4  C9  UNL     1      13.792  18.292  15.248  1.00  0.00     0.710 A 
HETATM    5  N7  UNL     1      14.018  19.555  15.659  1.00  0.00    -0.021 N 
ATOM      6  H7  UNL     1      14.853  19.732  16.219  1.00  0.00     0.203 HD
HETATM    7  C25 UNL     1      13.218  20.599  15.382  1.00  0.00     0.707 A 
HETATM    8  N10 UNL     1      12.131  20.362  14.653  1.00  0.00    -0.022 N 
ATOM      9  H10 UNL     1      11.506  21.136  14.427  1.00  0.00     0.203 HD
ENDROOT
BRANCH   4  10
HETATM   10  N4  UNL     1      14.486  17.305  15.465  1.00  0.00    -0.204 N 
ATOM     11  H4  UNL     1      15.269  17.570  16.062  1.00  0.00     0.183 HD
BRANCH  10  12
HETATM   12  C10 UNL     1      14.569  15.963  15.179  1.00  0.00     0.080 C 
BRANCH  12  13
HETATM   13  C11 UNL     1      15.496  15.483  14.109  1.00  0.00     0.065 C 
BRANCH  13  14
HETATM   14  C12 UNL     1      14.899  15.446  12.728  1.00  0.00     0.125 C 
BRANCH  14  15
HETATM   15  N5  UNL     1      15.421  16.487  11.906  1.00  0.00    -0.389 N 
ATOM     16  H5  UNL     1      16.278  16.272  11.398  1.00  0.00     0.159 HD
BRANCH  15  17
HETATM   17  C13 UNL     1      14.941  17.658  11.731  1.00  0.00     0.042 A 
HETATM   18  C14 UNL     1      13.797  17.875  11.005  1.00  0.00     0.047 A 
HETATM   19  C15 UNL     1      13.309  19.177  10.838  1.00  0.00     0.090 A 
HETATM   20  N6  UNL     1      13.984  20.186  11.400  1.00  0.00    -0.365 N 
HETATM   21  C16 UNL     1      15.108  20.016  12.118  1.00  0.00     0.047 A 
ATOM     22  H6  UNL     1      13.628  21.134  11.277  1.00  0.00     0.165 HD
HETATM   23  C17 UNL     1      15.786  21.089  12.685  1.00  0.00     0.067 A 
HETATM   24  C24 UNL     1      15.590  18.736  12.283  1.00  0.00     0.017 A 
HETATM   25  C18 UNL     1      16.925  20.954  13.412  1.00  0.00     0.071 A 
HETATM   26  C22 UNL     1      17.420  19.655  13.586  1.00  0.00     0.038 A 
HETATM   27  C23 UNL     1      16.762  18.575  13.031  1.00  0.00     0.019 A 
BRANCH  25  28
HETATM   28  O1  UNL     1      17.659  21.951  14.008  1.00  0.00    -0.347 OA
BRANCH  28  29
HETATM   29  C19 UNL     1      18.775  22.584  13.484  1.00  0.00     0.120 C 
HETATM   30  C20 UNL     1      19.780  21.628  12.881  1.00  0.00     0.040 C 
HETATM   31  C21 UNL     1      18.297  23.600  12.467  1.00  0.00     0.040 C 
ENDBRANCH  28  29
ENDBRANCH  25  28
ENDBRANCH  15  17
ENDBRANCH  14  15
ENDBRANCH  13  14
ENDBRANCH  12  13
ENDBRANCH  10  12
ENDBRANCH   4  10
BRANCH   1  32
HETATM   32  N2  UNL     1      10.779  18.948  13.504  1.00  0.00    -0.225 N 
ATOM     33  H2  UNL     1      10.294  18.052  13.550  1.00  0.00     0.177 HD
BRANCH  32  34
HETATM   34  C7  UNL     1      10.254  19.979  12.657  1.00  0.00     0.138 C 
BRANCH  34  35
HETATM   35  C6  UNL     1       9.168  19.485  11.719  1.00  0.00     0.020 C 
BRANCH  35  36
HETATM   36  C5  UNL     1       9.704  19.132  10.369  1.00  0.00     0.002 C 
BRANCH  36  37
HETATM   37  C4  UNL     1      10.077  17.692  10.204  1.00  0.00     0.002 C 
BRANCH  37  38
HETATM   38  C3  UNL     1       9.999  17.392   8.707  1.00  0.00     0.027 C 
BRANCH  38  39
HETATM   39  C2  UNL     1      11.326  17.627   8.027  1.00  0.00     0.231 C 
BRANCH  39  40
HETATM   40  N1  UNL     1      11.190  18.334   6.786  1.00  0.00    -0.079 N 
HETATM   41  C1  UNL     1      11.253  19.770   6.953  1.00  0.00     0.266 C 
ATOM     42  H12 UNL     1      10.337  18.059   6.300  1.00  0.00     0.276 HD
ATOM     43  H11 UNL     1      11.878  18.014   6.105  1.00  0.00     0.276 HD
ENDBRANCH  39  40
ENDBRANCH  38  39
ENDBRANCH  37  38
ENDBRANCH  36  37
ENDBRANCH  35  36
ENDBRANCH  34  35
ENDBRANCH  32  34
ENDBRANCH   1  32
BRANCH   7  44
HETATM   44  N8  UNL     1      13.422  21.811  15.744  1.00  0.00    -0.223 N 
ATOM     45  H8  UNL     1      12.636  22.460  15.778  1.00  0.00     0.177 HD
BRANCH  44  46
HETATM   46  C26 UNL     1      14.732  22.272  16.104  1.00  0.00     0.168 C 
BRANCH  46  47
HETATM   47  C27 UNL     1      14.826  23.787  16.018  1.00  0.00     0.291 C 
BRANCH  47  48
HETATM   48  N9  UNL     1      14.087  24.306  14.921  1.00  0.00     0.081 N 
HETATM   49  C28 UNL     1      14.858  24.509  13.735  1.00  0.00     0.309 C 
HETATM   50  C29 UNL     1      13.202  25.390  15.202  1.00  0.00     0.309 C 
ENDBRANCH  47  48
ENDBRANCH  46  47
ENDBRANCH  44  46
ENDBRANCH   7  44
TORSDOF 20
ENDMDL
