MODEL 1
REMARK VINA RESULT: -7.925774809      0.000      0.000
REMARK  17 active torsions:
REMARK  status: ('A' for Active; 'I' for Inactive)
REMARK    1  A    between atoms: N1_1  and  C1_5 
REMARK    2  A    between atoms: C1_5  and  C2_6 
REMARK    3  A    between atoms: C2_6  and  C3_7 
REMARK    4  A    between atoms: C3_7  and  C4_8 
REMARK    5  A    between atoms: C4_8  and  C5_9 
REMARK    6  A    between atoms: C5_9  and  N2_10 
REMARK       I    between atoms: N2_10  and  C6_12 
REMARK       I    between atoms: C6_12  and  N3_13 
REMARK       I    between atoms: C6_12  and  N4_17 
REMARK    7  A    between atoms: N4_17  and  N5_19 
REMARK    8  A    between atoms: N5_19  and  C7_21 
REMARK    9  A    between atoms: C8_22  and  O1_23 
REMARK   10  A    between atoms: C9_25  and  N6_26 
REMARK   11  A    between atoms: C10_30  and  O2_31 
REMARK   12  A    between atoms: O2_31  and  C11_32 
REMARK   13  A    between atoms: C12_34  and  C13_35 
REMARK   14  A    between atoms: C13_35  and  O4_36 
REMARK   15  A    between atoms: C14_38  and  N7_39 
REMARK   16  A    between atoms: C15_43  and  N8_44 
REMARK   17  A    between atoms: C16_48  and  O5_49 
ROOT
HETATM    1  C7  UNL     1       7.465 104.777  79.711  1.00  0.00     0.161 C 
HETATM    2  C8  UNL     1       7.944 104.845  78.304  1.00  0.00     0.178 C 
HETATM    3  C9  UNL     1       8.452 106.236  78.026  1.00  0.00     0.245 C 
HETATM    4  C10 UNL     1       8.484 106.889  79.360  1.00  0.00     0.188 C 
HETATM    5  C16 UNL     1       7.395 106.216  80.184  1.00  0.00     0.176 C 
ENDROOT
BRANCH   1   6
HETATM    6  N5  UNL     1       6.219 104.083  79.909  1.00  0.00    -0.328 N 
ATOM      7  H5  UNL     1       5.662 103.748  79.122  1.00  0.00     0.180 HD
BRANCH   6   8
HETATM    8  N4  UNL     1       5.821 103.896  81.190  1.00  0.00    -0.294 N 
HETATM    9  C6  UNL     1       5.753 102.592  81.729  1.00  0.00     0.396 C 
HETATM   10  N2  UNL     1       6.930 101.834  81.876  1.00  0.00    -0.379 N 
HETATM   11  N3  UNL     1       5.047 102.611  83.041  1.00  0.00    -0.040 N 
ATOM     12  H2  UNL     1       7.218 101.481  82.789  1.00  0.00     0.157 HD
ATOM     13  H33 UNL     1       4.870 101.676  83.406  1.00  0.00     0.279 HD
ATOM     14  H32 UNL     1       5.638 102.946  83.802  1.00  0.00     0.279 HD
ATOM     15  H31 UNL     1       4.194 103.160  82.934  1.00  0.00     0.279 HD
ATOM     16  H4  UNL     1       5.571 104.699  81.768  1.00  0.00     0.184 HD
BRANCH  10  17
HETATM   17  C5  UNL     1       7.700 101.578  80.720  1.00  0.00     0.117 C 
BRANCH  17  18
HETATM   18  C4  UNL     1       7.954 100.097  80.493  1.00  0.00     0.019 C 
BRANCH  18  19
HETATM   19  C3  UNL     1       9.186  99.644  81.246  1.00  0.00     0.003 C 
BRANCH  19  20
HETATM   20  C2  UNL     1       9.292  98.146  81.324  1.00  0.00     0.027 C 
BRANCH  20  21
HETATM   21  C1  UNL     1       8.197  97.449  80.545  1.00  0.00     0.229 C 
BRANCH  21  22
HETATM   22  N1  UNL     1       8.725  96.745  79.403  1.00  0.00    -0.079 N 
ATOM     23  H13 UNL     1       9.649  96.360  79.597  1.00  0.00     0.274 HD
ATOM     24  H12 UNL     1       8.222  95.873  79.236  1.00  0.00     0.274 HD
ATOM     25  H11 UNL     1       8.734  97.335  78.571  1.00  0.00     0.274 HD
ENDBRANCH  21  22
ENDBRANCH  20  21
ENDBRANCH  19  20
ENDBRANCH  18  19
ENDBRANCH  17  18
ENDBRANCH  10  17
ENDBRANCH   6   8
ENDBRANCH   1   6
BRANCH   2  26
HETATM   26  O1  UNL     1       9.011 103.951  78.092  1.00  0.00    -0.391 OA
ATOM     27  H1  UNL     1       8.705 103.148  77.689  1.00  0.00     0.210 HD
ENDBRANCH   2  26
BRANCH   5  28
HETATM   28  O5  UNL     1       7.763 106.330  81.520  1.00  0.00    -0.391 OA
ATOM     29  H5  UNL     1       8.436 106.989  81.640  1.00  0.00     0.210 HD
ENDBRANCH   5  28
BRANCH   3  30
HETATM   30  N6  UNL     1       7.616 106.931  77.064  1.00  0.00    -0.070 N 
ATOM     31  H63 UNL     1       7.245 106.290  76.363  1.00  0.00     0.274 HD
ATOM     32  H62 UNL     1       6.737 107.232  77.485  1.00  0.00     0.274 HD
ATOM     33  H61 UNL     1       8.109 107.712  76.632  1.00  0.00     0.274 HD
ENDBRANCH   3  30
BRANCH   4  34
HETATM   34  O2  UNL     1       8.293 108.268  79.308  1.00  0.00    -0.349 OA
BRANCH  34  35
HETATM   35  C11 UNL     1       9.408 108.927  79.823  1.00  0.00     0.293 C 
HETATM   36  O3  UNL     1       9.567 108.697  81.180  1.00  0.00    -0.349 OA
HETATM   37  C12 UNL     1       9.494 109.883  81.854  1.00  0.00     0.180 C 
HETATM   38  C14 UNL     1       9.947 110.962  80.898  1.00  0.00     0.249 C 
HETATM   39  C15 UNL     1       9.421 110.396  79.575  1.00  0.00     0.271 C 
BRANCH  37  40
HETATM   40  C13 UNL     1       8.113 110.125  82.392  1.00  0.00     0.198 C 
BRANCH  40  41
HETATM   41  O4  UNL     1       7.172 109.225  81.929  1.00  0.00    -0.398 OA
ATOM     42  H4  UNL     1       7.005 109.294  80.996  1.00  0.00     0.209 HD
ENDBRANCH  40  41
ENDBRANCH  37  40
BRANCH  38  43
HETATM   43  N7  UNL     1      11.390 110.995  80.773  1.00  0.00    -0.070 N 
ATOM     44  H73 UNL     1      11.821 111.469  81.567  1.00  0.00     0.274 HD
ATOM     45  H72 UNL     1      11.795 110.068  80.902  1.00  0.00     0.274 HD
ATOM     46  H71 UNL     1      11.682 111.410  79.888  1.00  0.00     0.274 HD
ENDBRANCH  38  43
BRANCH  39  47
HETATM   47  N8  UNL     1       8.144 110.938  79.221  1.00  0.00    -0.068 N 
ATOM     48  H83 UNL     1       7.525 110.203  78.880  1.00  0.00     0.275 HD
ATOM     49  H82 UNL     1       7.631 111.222  80.056  1.00  0.00     0.275 HD
ATOM     50  H81 UNL     1       8.191 111.705  78.551  1.00  0.00     0.275 HD
ENDBRANCH  39  47
ENDBRANCH  34  35
ENDBRANCH   4  34
TORSDOF 17
ENDMDL
MODEL 2
REMARK VINA RESULT: -7.624484164      1.315      1.626
REMARK  17 active torsions:
REMARK  status: ('A' for Active; 'I' for Inactive)
REMARK    1  A    between atoms: N1_1  and  C1_5 
REMARK    2  A    between atoms: C1_5  and  C2_6 
REMARK    3  A    between atoms: C2_6  and  C3_7 
REMARK    4  A    between atoms: C3_7  and  C4_8 
REMARK    5  A    between atoms: C4_8  and  C5_9 
REMARK    6  A    between atoms: C5_9  and  N2_10 
REMARK       I    between atoms: N2_10  and  C6_12 
REMARK       I    between atoms: C6_12  and  N3_13 
REMARK       I    between atoms: C6_12  and  N4_17 
REMARK    7  A    between atoms: N4_17  and  N5_19 
REMARK    8  A    between atoms: N5_19  and  C7_21 
REMARK    9  A    between atoms: C8_22  and  O1_23 
REMARK   10  A    between atoms: C9_25  and  N6_26 
REMARK   11  A    between atoms: C10_30  and  O2_31 
REMARK   12  A    between atoms: O2_31  and  C11_32 
REMARK   13  A    between atoms: C12_34  and  C13_35 
REMARK   14  A    between atoms: C13_35  and  O4_36 
REMARK   15  A    between atoms: C14_38  and  N7_39 
REMARK   16  A    between atoms: C15_43  and  N8_44 
REMARK   17  A    between atoms: C16_48  and  O5_49 
ROOT
HETATM    1  C7  UNL     1       7.465 104.387  80.070  1.00  0.00     0.161 C 
HETATM    2  C8  UNL     1       7.958 104.668  78.695  1.00  0.00     0.178 C 
HETATM    3  C9  UNL     1       8.334 106.124  78.597  1.00  0.00     0.245 C 
HETATM    4  C10 UNL     1       8.281 106.612  79.998  1.00  0.00     0.188 C 
HETATM    5  C16 UNL     1       7.249 105.746  80.707  1.00  0.00     0.176 C 
ENDROOT
BRANCH   1   6
HETATM    6  N5  UNL     1       6.289 103.560  80.150  1.00  0.00    -0.328 N 
ATOM      7  H5  UNL     1       5.948 103.034  79.345  1.00  0.00     0.180 HD
BRANCH   6   8
HETATM    8  N4  UNL     1       5.656 103.514  81.347  1.00  0.00    -0.294 N 
HETATM    9  C6  UNL     1       5.184 102.282  81.853  1.00  0.00     0.396 C 
HETATM   10  N2  UNL     1       6.100 101.266  82.184  1.00  0.00    -0.379 N 
HETATM   11  N3  UNL     1       4.302 102.512  83.031  1.00  0.00    -0.040 N 
ATOM     12  H2  UNL     1       6.141 100.881  83.128  1.00  0.00     0.157 HD
ATOM     13  H33 UNL     1       3.844 101.659  83.353  1.00  0.00     0.279 HD
ATOM     14  H32 UNL     1       4.826 102.716  83.882  1.00  0.00     0.279 HD
ATOM     15  H31 UNL     1       3.637 103.249  82.791  1.00  0.00     0.279 HD
ATOM     16  H4  UNL     1       5.520 104.371  81.884  1.00  0.00     0.184 HD
BRANCH  10  17
HETATM   17  C5  UNL     1       6.961 100.796  81.167  1.00  0.00     0.117 C 
BRANCH  17  18
HETATM   18  C4  UNL     1       8.431 100.886  81.547  1.00  0.00     0.019 C 
BRANCH  18  19
HETATM   19  C3  UNL     1       9.153  99.605  81.193  1.00  0.00     0.003 C 
BRANCH  19  20
HETATM   20  C2  UNL     1       8.236  98.413  81.186  1.00  0.00     0.027 C 
BRANCH  20  21
HETATM   21  C1  UNL     1       8.948  97.140  80.779  1.00  0.00     0.229 C 
BRANCH  21  22
HETATM   22  N1  UNL     1       8.648  96.778  79.416  1.00  0.00    -0.079 N 
ATOM     23  H13 UNL     1       7.924  96.061  79.371  1.00  0.00     0.274 HD
ATOM     24  H12 UNL     1       8.157  97.528  78.930  1.00  0.00     0.274 HD
ATOM     25  H11 UNL     1       9.487  96.493  78.911  1.00  0.00     0.274 HD
ENDBRANCH  21  22
ENDBRANCH  20  21
ENDBRANCH  19  20
ENDBRANCH  18  19
ENDBRANCH  17  18
ENDBRANCH  10  17
ENDBRANCH   6   8
ENDBRANCH   1   6
BRANCH   2  26
HETATM   26  O1  UNL     1       9.111 103.910  78.409  1.00  0.00    -0.391 OA
ATOM     27  H1  UNL     1       9.791 104.456  78.034  1.00  0.00     0.210 HD
ENDBRANCH   2  26
BRANCH   5  28
HETATM   28  O5  UNL     1       7.582 105.733  82.057  1.00  0.00    -0.391 OA
ATOM     29  H5  UNL     1       8.277 105.111  82.237  1.00  0.00     0.210 HD
ENDBRANCH   5  28
BRANCH   3  30
HETATM   30  N6  UNL     1       7.451 106.847  77.700  1.00  0.00    -0.070 N 
ATOM     31  H63 UNL     1       7.264 106.313  76.851  1.00  0.00     0.274 HD
ATOM     32  H62 UNL     1       6.502 106.893  78.071  1.00  0.00     0.274 HD
ATOM     33  H61 UNL     1       7.812 107.776  77.484  1.00  0.00     0.274 HD
ENDBRANCH   3  30
BRANCH   4  34
HETATM   34  O2  UNL     1       7.959 107.963  80.104  1.00  0.00    -0.349 OA
BRANCH  34  35
HETATM   35  C11 UNL     1       8.150 108.402  81.413  1.00  0.00     0.293 C 
HETATM   36  O3  UNL     1       7.356 109.497  81.715  1.00  0.00    -0.349 OA
HETATM   37  C12 UNL     1       8.150 110.559  82.043  1.00  0.00     0.180 C 
HETATM   38  C14 UNL     1       9.436 109.992  82.598  1.00  0.00     0.249 C 
HETATM   39  C15 UNL     1       9.565 108.721  81.752  1.00  0.00     0.271 C 
BRANCH  37  40
HETATM   40  C13 UNL     1       8.373 111.462  80.864  1.00  0.00     0.198 C 
BRANCH  40  41
HETATM   41  O4  UNL     1       7.906 110.943  79.672  1.00  0.00    -0.398 OA
ATOM     42  H4  UNL     1       7.194 111.445  79.291  1.00  0.00     0.209 HD
ENDBRANCH  40  41
ENDBRANCH  37  40
BRANCH  38  43
HETATM   43  N7  UNL     1       9.278 109.547  83.967  1.00  0.00    -0.070 N 
ATOM     44  H73 UNL     1       8.595 108.792  84.036  1.00  0.00     0.274 HD
ATOM     45  H72 UNL     1      10.104 109.045  84.293  1.00  0.00     0.274 HD
ATOM     46  H71 UNL     1       9.042 110.319  84.590  1.00  0.00     0.274 HD
ENDBRANCH  38  43
BRANCH  39  47
HETATM   47  N8  UNL     1      10.409 108.911  80.611  1.00  0.00    -0.068 N 
ATOM     48  H83 UNL     1      10.759 108.015  80.272  1.00  0.00     0.275 HD
ATOM     49  H82 UNL     1       9.858 109.198  79.801  1.00  0.00     0.275 HD
ATOM     50  H81 UNL     1      11.180 109.560  80.768  1.00  0.00     0.275 HD
ENDBRANCH  39  47
ENDBRANCH  34  35
ENDBRANCH   4  34
TORSDOF 17
ENDMDL
MODEL 3
REMARK VINA RESULT: -7.425398302      2.466      8.641
REMARK  17 active torsions:
REMARK  status: ('A' for Active; 'I' for Inactive)
REMARK    1  A    between atoms: N1_1  and  C1_5 
REMARK    2  A    between atoms: C1_5  and  C2_6 
REMARK    3  A    between atoms: C2_6  and  C3_7 
REMARK    4  A    between atoms: C3_7  and  C4_8 
REMARK    5  A    between atoms: C4_8  and  C5_9 
REMARK    6  A    between atoms: C5_9  and  N2_10 
REMARK       I    between atoms: N2_10  and  C6_12 
REMARK       I    between atoms: C6_12  and  N3_13 
REMARK       I    between atoms: C6_12  and  N4_17 
REMARK    7  A    between atoms: N4_17  and  N5_19 
REMARK    8  A    between atoms: N5_19  and  C7_21 
REMARK    9  A    between atoms: C8_22  and  O1_23 
REMARK   10  A    between atoms: C9_25  and  N6_26 
REMARK   11  A    between atoms: C10_30  and  O2_31 
REMARK   12  A    between atoms: O2_31  and  C11_32 
REMARK   13  A    between atoms: C12_34  and  C13_35 
REMARK   14  A    between atoms: C13_35  and  O4_36 
REMARK   15  A    between atoms: C14_38  and  N7_39 
REMARK   16  A    between atoms: C15_43  and  N8_44 
REMARK   17  A    between atoms: C16_48  and  O5_49 
ROOT
HETATM    1  C7  UNL     1       7.654 107.293  79.845  1.00  0.00     0.161 C 
HETATM    2  C8  UNL     1       8.050 106.530  78.632  1.00  0.00     0.178 C 
HETATM    3  C9  UNL     1       8.030 105.058  78.949  1.00  0.00     0.245 C 
HETATM    4  C10 UNL     1       7.382 104.978  80.283  1.00  0.00     0.188 C 
HETATM    5  C16 UNL     1       7.700 106.292  80.984  1.00  0.00     0.176 C 
ENDROOT
BRANCH   1   6
HETATM    6  N5  UNL     1       8.442 108.465  80.126  1.00  0.00    -0.328 N 
ATOM      7  H5  UNL     1       9.042 108.889  79.418  1.00  0.00     0.180 HD
BRANCH   6   8
HETATM    8  N4  UNL     1       8.347 108.979  81.376  1.00  0.00    -0.294 N 
HETATM    9  C6  UNL     1       9.516 109.266  82.116  1.00  0.00     0.396 C 
HETATM   10  N2  UNL     1      10.402 110.262  81.664  1.00  0.00    -0.379 N 
HETATM   11  N3  UNL     1       9.169 109.563  83.535  1.00  0.00    -0.040 N 
ATOM     12  H2  UNL     1      10.633 111.065  82.249  1.00  0.00     0.157 HD
ATOM     13  H33 UNL     1       9.992 109.657  84.129  1.00  0.00     0.279 HD
ATOM     14  H32 UNL     1       8.800 110.505  83.661  1.00  0.00     0.279 HD
ATOM     15  H31 UNL     1       8.527 108.841  83.862  1.00  0.00     0.279 HD
ATOM     16  H4  UNL     1       7.429 109.160  81.784  1.00  0.00     0.184 HD
BRANCH  10  17
HETATM   17  C5  UNL     1      10.962 110.113  80.376  1.00  0.00     0.117 C 
BRANCH  17  18
HETATM   18  C4  UNL     1      10.646 111.280  79.454  1.00  0.00     0.019 C 
BRANCH  18  19
HETATM   19  C3  UNL     1      10.939 112.597  80.140  1.00  0.00     0.003 C 
BRANCH  19  20
HETATM   20  C2  UNL     1       9.783 113.555  80.057  1.00  0.00     0.027 C 
BRANCH  20  21
HETATM   21  C1  UNL     1       8.444 112.852  80.116  1.00  0.00     0.229 C 
BRANCH  21  22
HETATM   22  N1  UNL     1       8.021 112.631  81.477  1.00  0.00    -0.079 N 
ATOM     23  H13 UNL     1       7.757 111.659  81.633  1.00  0.00     0.274 HD
ATOM     24  H12 UNL     1       8.807 112.687  82.126  1.00  0.00     0.274 HD
ATOM     25  H11 UNL     1       7.272 113.269  81.744  1.00  0.00     0.274 HD
ENDBRANCH  21  22
ENDBRANCH  20  21
ENDBRANCH  19  20
ENDBRANCH  18  19
ENDBRANCH  17  18
ENDBRANCH  10  17
ENDBRANCH   6   8
ENDBRANCH   1   6
BRANCH   2  26
HETATM   26  O1  UNL     1       7.141 106.752  77.579  1.00  0.00    -0.391 OA
ATOM     27  H1  UNL     1       7.092 107.675  77.362  1.00  0.00     0.210 HD
ENDBRANCH   2  26
BRANCH   5  28
HETATM   28  O5  UNL     1       6.683 106.523  81.904  1.00  0.00    -0.391 OA
ATOM     29  H5  UNL     1       6.754 107.388  82.290  1.00  0.00     0.210 HD
ENDBRANCH   5  28
BRANCH   3  30
HETATM   30  N6  UNL     1       9.363 104.484  78.921  1.00  0.00    -0.070 N 
ATOM     31  H63 UNL     1       9.754 104.498  77.978  1.00  0.00     0.274 HD
ATOM     32  H62 UNL     1      10.040 105.092  79.381  1.00  0.00     0.274 HD
ATOM     33  H61 UNL     1       9.377 103.544  79.316  1.00  0.00     0.274 HD
ENDBRANCH   3  30
BRANCH   4  34
HETATM   34  O2  UNL     1       7.806 103.890  81.043  1.00  0.00    -0.349 OA
BRANCH  34  35
HETATM   35  C11 UNL     1       7.093 102.747  80.685  1.00  0.00     0.293 C 
HETATM   36  O3  UNL     1       5.732 102.990  80.598  1.00  0.00    -0.349 OA
HETATM   37  C12 UNL     1       5.071 102.204  81.498  1.00  0.00     0.180 C 
HETATM   38  C14 UNL     1       5.920 100.972  81.714  1.00  0.00     0.249 C 
HETATM   39  C15 UNL     1       7.321 101.577  81.577  1.00  0.00     0.271 C 
BRANCH  37  40
HETATM   40  C13 UNL     1       4.788 102.946  82.772  1.00  0.00     0.198 C 
BRANCH  40  41
HETATM   41  O4  UNL     1       5.539 104.096  82.923  1.00  0.00    -0.398 OA
ATOM     42  H4  UNL     1       6.054 104.113  83.721  1.00  0.00     0.209 HD
ENDBRANCH  40  41
ENDBRANCH  37  40
BRANCH  38  43
HETATM   43  N7  UNL     1       5.783 100.030  80.623  1.00  0.00    -0.070 N 
ATOM     44  H73 UNL     1       5.744  99.069  80.964  1.00  0.00     0.274 HD
ATOM     45  H72 UNL     1       4.859 100.086  80.197  1.00  0.00     0.274 HD
ATOM     46  H71 UNL     1       6.521 100.147  79.928  1.00  0.00     0.274 HD
ENDBRANCH  38  43
BRANCH  39  47
HETATM   47  N8  UNL     1       7.894 101.915  82.845  1.00  0.00    -0.068 N 
ATOM     48  H83 UNL     1       7.255 102.500  83.383  1.00  0.00     0.275 HD
ATOM     49  H82 UNL     1       7.930 101.095  83.452  1.00  0.00     0.275 HD
ATOM     50  H81 UNL     1       8.813 102.353  82.782  1.00  0.00     0.275 HD
ENDBRANCH  39  47
ENDBRANCH  34  35
ENDBRANCH   4  34
TORSDOF 17
ENDMDL
MODEL 4
REMARK VINA RESULT: -7.400285682      2.508      8.848
REMARK  17 active torsions:
REMARK  status: ('A' for Active; 'I' for Inactive)
REMARK    1  A    between atoms: N1_1  and  C1_5 
REMARK    2  A    between atoms: C1_5  and  C2_6 
REMARK    3  A    between atoms: C2_6  and  C3_7 
REMARK    4  A    between atoms: C3_7  and  C4_8 
REMARK    5  A    between atoms: C4_8  and  C5_9 
REMARK    6  A    between atoms: C5_9  and  N2_10 
REMARK       I    between atoms: N2_10  and  C6_12 
REMARK       I    between atoms: C6_12  and  N3_13 
REMARK       I    between atoms: C6_12  and  N4_17 
REMARK    7  A    between atoms: N4_17  and  N5_19 
REMARK    8  A    between atoms: N5_19  and  C7_21 
REMARK    9  A    between atoms: C8_22  and  O1_23 
REMARK   10  A    between atoms: C9_25  and  N6_26 
REMARK   11  A    between atoms: C10_30  and  O2_31 
REMARK   12  A    between atoms: O2_31  and  C11_32 
REMARK   13  A    between atoms: C12_34  and  C13_35 
REMARK   14  A    between atoms: C13_35  and  O4_36 
REMARK   15  A    between atoms: C14_38  and  N7_39 
REMARK   16  A    between atoms: C15_43  and  N8_44 
REMARK   17  A    between atoms: C16_48  and  O5_49 
ROOT
HETATM    1  C7  UNL     1       7.182 107.183  80.182  1.00  0.00     0.161 C 
HETATM    2  C8  UNL     1       7.632 106.618  78.883  1.00  0.00     0.178 C 
HETATM    3  C9  UNL     1       7.854 105.136  79.043  1.00  0.00     0.245 C 
HETATM    4  C10 UNL     1       7.289 104.822  80.381  1.00  0.00     0.188 C 
HETATM    5  C16 UNL     1       7.434 106.093  81.206  1.00  0.00     0.176 C 
ENDROOT
BRANCH   1   6
HETATM    6  N5  UNL     1       7.792 108.431  80.561  1.00  0.00    -0.328 N 
ATOM      7  H5  UNL     1       8.112 109.104  79.864  1.00  0.00     0.180 HD
BRANCH   6   8
HETATM    8  N4  UNL     1       7.922 108.669  81.888  1.00  0.00    -0.294 N 
HETATM    9  C6  UNL     1       8.838 109.641  82.348  1.00  0.00     0.396 C 
HETATM   10  N2  UNL     1       8.642 110.996  82.022  1.00  0.00    -0.379 N 
HETATM   11  N3  UNL     1       9.000 109.540  83.827  1.00  0.00    -0.040 N 
ATOM     12  H2  UNL     1       8.544 111.704  82.749  1.00  0.00     0.157 HD
ATOM     13  H33 UNL     1       9.741 110.142  84.184  1.00  0.00     0.279 HD
ATOM     14  H32 UNL     1       8.224 109.960  84.337  1.00  0.00     0.279 HD
ATOM     15  H31 UNL     1       9.142 108.558  84.063  1.00  0.00     0.279 HD
ATOM     16  H4  UNL     1       7.357 108.146  82.557  1.00  0.00     0.184 HD
BRANCH  10  17
HETATM   17  C5  UNL     1       8.587 111.344  80.654  1.00  0.00     0.117 C 
BRANCH  17  18
HETATM   18  C4  UNL     1       8.265 112.813  80.429  1.00  0.00     0.019 C 
BRANCH  18  19
HETATM   19  C3  UNL     1       9.449 113.532  79.819  1.00  0.00     0.003 C 
BRANCH  19  20
HETATM   20  C2  UNL     1      10.161 112.696  78.792  1.00  0.00     0.027 C 
BRANCH  20  21
HETATM   21  C1  UNL     1      11.659 112.670  79.006  1.00  0.00     0.229 C 
BRANCH  21  22
HETATM   22  N1  UNL     1      12.004 112.968  80.375  1.00  0.00    -0.079 N 
ATOM     23  H13 UNL     1      11.651 113.882  80.657  1.00  0.00     0.274 HD
ATOM     24  H12 UNL     1      11.477 112.387  81.027  1.00  0.00     0.274 HD
ATOM     25  H11 UNL     1      13.008 112.890  80.533  1.00  0.00     0.274 HD
ENDBRANCH  21  22
ENDBRANCH  20  21
ENDBRANCH  19  20
ENDBRANCH  18  19
ENDBRANCH  17  18
ENDBRANCH  10  17
ENDBRANCH   6   8
ENDBRANCH   1   6
BRANCH   2  26
HETATM   26  O1  UNL     1       6.651 106.797  77.889  1.00  0.00    -0.391 OA
ATOM     27  H1  UNL     1       6.854 107.547  77.343  1.00  0.00     0.210 HD
ENDBRANCH   2  26
BRANCH   5  28
HETATM   28  O5  UNL     1       6.439 106.068  82.177  1.00  0.00    -0.391 OA
ATOM     29  H5  UNL     1       5.671 106.553  81.899  1.00  0.00     0.210 HD
ENDBRANCH   5  28
BRANCH   3  30
HETATM   30  N6  UNL     1       9.256 104.785  78.913  1.00  0.00    -0.070 N 
ATOM     31  H63 UNL     1       9.803 105.567  78.552  1.00  0.00     0.274 HD
ATOM     32  H62 UNL     1       9.701 104.687  79.825  1.00  0.00     0.274 HD
ATOM     33  H61 UNL     1       9.384 103.948  78.344  1.00  0.00     0.274 HD
ENDBRANCH   3  30
BRANCH   4  34
HETATM   34  O2  UNL     1       7.911 103.744  81.007  1.00  0.00    -0.349 OA
BRANCH  34  35
HETATM   35  C11 UNL     1       7.267 102.556  80.669  1.00  0.00     0.293 C 
HETATM   36  O3  UNL     1       5.904 102.734  80.494  1.00  0.00    -0.349 OA
HETATM   37  C12 UNL     1       5.225 101.964  81.396  1.00  0.00     0.180 C 
HETATM   38  C14 UNL     1       6.111 100.783  81.720  1.00  0.00     0.249 C 
HETATM   39  C15 UNL     1       7.491 101.441  81.630  1.00  0.00     0.271 C 
BRANCH  37  40
HETATM   40  C13 UNL     1       4.840 102.754  82.613  1.00  0.00     0.198 C 
BRANCH  40  41
HETATM   41  O4  UNL     1       3.569 103.290  82.546  1.00  0.00    -0.398 OA
ATOM     42  H4  UNL     1       3.532 104.214  82.768  1.00  0.00     0.209 HD
ENDBRANCH  40  41
ENDBRANCH  37  40
BRANCH  38  43
HETATM   43  N7  UNL     1       6.075  99.784  80.672  1.00  0.00    -0.070 N 
ATOM     44  H73 UNL     1       5.161  99.750  80.221  1.00  0.00     0.274 HD
ATOM     45  H72 UNL     1       6.638 100.065  79.870  1.00  0.00     0.274 HD
ATOM     46  H71 UNL     1       6.353  98.865  81.017  1.00  0.00     0.274 HD
ENDBRANCH  38  43
BRANCH  39  47
HETATM   47  N8  UNL     1       7.976 101.864  82.909  1.00  0.00    -0.068 N 
ATOM     48  H83 UNL     1       7.938 101.095  83.578  1.00  0.00     0.275 HD
ATOM     49  H82 UNL     1       8.985 102.015  82.878  1.00  0.00     0.275 HD
ATOM     50  H81 UNL     1       7.502 102.686  83.282  1.00  0.00     0.275 HD
ENDBRANCH  39  47
ENDBRANCH  34  35
ENDBRANCH   4  34
TORSDOF 17
ENDMDL
MODEL 5
REMARK VINA RESULT: -7.380830811      1.768      1.998
REMARK  17 active torsions:
REMARK  status: ('A' for Active; 'I' for Inactive)
REMARK    1  A    between atoms: N1_1  and  C1_5 
REMARK    2  A    between atoms: C1_5  and  C2_6 
REMARK    3  A    between atoms: C2_6  and  C3_7 
REMARK    4  A    between atoms: C3_7  and  C4_8 
REMARK    5  A    between atoms: C4_8  and  C5_9 
REMARK    6  A    between atoms: C5_9  and  N2_10 
REMARK       I    between atoms: N2_10  and  C6_12 
REMARK       I    between atoms: C6_12  and  N3_13 
REMARK       I    between atoms: C6_12  and  N4_17 
REMARK    7  A    between atoms: N4_17  and  N5_19 
REMARK    8  A    between atoms: N5_19  and  C7_21 
REMARK    9  A    between atoms: C8_22  and  O1_23 
REMARK   10  A    between atoms: C9_25  and  N6_26 
REMARK   11  A    between atoms: C10_30  and  O2_31 
REMARK   12  A    between atoms: O2_31  and  C11_32 
REMARK   13  A    between atoms: C12_34  and  C13_35 
REMARK   14  A    between atoms: C13_35  and  O4_36 
REMARK   15  A    between atoms: C14_38  and  N7_39 
REMARK   16  A    between atoms: C15_43  and  N8_44 
REMARK   17  A    between atoms: C16_48  and  O5_49 
ROOT
HETATM    1  C7  UNL     1       8.016 106.430  80.441  1.00  0.00     0.161 C 
HETATM    2  C8  UNL     1       8.031 106.130  78.984  1.00  0.00     0.178 C 
HETATM    3  C9  UNL     1       8.150 107.422  78.218  1.00  0.00     0.245 C 
HETATM    4  C10 UNL     1       8.448 108.440  79.258  1.00  0.00     0.188 C 
HETATM    5  C16 UNL     1       7.808 107.929  80.542  1.00  0.00     0.176 C 
ENDROOT
BRANCH   1   6
HETATM    6  N5  UNL     1       7.047 105.698  81.215  1.00  0.00    -0.328 N 
ATOM      7  H5  UNL     1       6.142 105.431  80.826  1.00  0.00     0.180 HD
BRANCH   6   8
HETATM    8  N4  UNL     1       7.395 105.380  82.485  1.00  0.00    -0.294 N 
HETATM    9  C6  UNL     1       6.853 104.231  83.102  1.00  0.00     0.396 C 
HETATM   10  N2  UNL     1       7.156 102.954  82.592  1.00  0.00    -0.379 N 
HETATM   11  N3  UNL     1       7.163 104.232  84.560  1.00  0.00    -0.040 N 
ATOM     12  H2  UNL     1       7.601 102.246  83.176  1.00  0.00     0.157 HD
ATOM     13  H33 UNL     1       6.689 103.484  85.064  1.00  0.00     0.279 HD
ATOM     14  H32 UNL     1       8.122 103.946  84.759  1.00  0.00     0.279 HD
ATOM     15  H31 UNL     1       6.944 105.158  84.930  1.00  0.00     0.279 HD
ATOM     16  H4  UNL     1       8.050 105.971  82.996  1.00  0.00     0.184 HD
BRANCH  10  17
HETATM   17  C5  UNL     1       6.823 102.685  81.246  1.00  0.00     0.117 C 
BRANCH  17  18
HETATM   18  C4  UNL     1       7.834 101.785  80.554  1.00  0.00     0.019 C 
BRANCH  18  19
HETATM   19  C3  UNL     1       8.509 100.872  81.555  1.00  0.00     0.003 C 
BRANCH  19  20
HETATM   20  C2  UNL     1       8.966  99.580  80.934  1.00  0.00     0.027 C 
BRANCH  20  21
HETATM   21  C1  UNL     1       7.815  98.767  80.381  1.00  0.00     0.229 C 
BRANCH  21  22
HETATM   22  N1  UNL     1       8.283  97.650  79.599  1.00  0.00    -0.079 N 
ATOM     23  H13 UNL     1       7.508  97.126  79.194  1.00  0.00     0.274 HD
ATOM     24  H12 UNL     1       8.731  97.960  78.737  1.00  0.00     0.274 HD
ATOM     25  H11 UNL     1       8.899  97.044  80.142  1.00  0.00     0.274 HD
ENDBRANCH  21  22
ENDBRANCH  20  21
ENDBRANCH  19  20
ENDBRANCH  18  19
ENDBRANCH  17  18
ENDBRANCH  10  17
ENDBRANCH   6   8
ENDBRANCH   1   6
BRANCH   2  26
HETATM   26  O1  UNL     1       9.142 105.331  78.647  1.00  0.00    -0.391 OA
ATOM     27  H1  UNL     1       9.472 105.556  77.785  1.00  0.00     0.210 HD
ENDBRANCH   2  26
BRANCH   5  28
HETATM   28  O5  UNL     1       8.526 108.471  81.602  1.00  0.00    -0.391 OA
ATOM     29  H5  UNL     1       8.101 108.298  82.433  1.00  0.00     0.210 HD
ENDBRANCH   5  28
BRANCH   3  30
HETATM   30  N6  UNL     1       6.946 107.708  77.459  1.00  0.00    -0.070 N 
ATOM     31  H63 UNL     1       6.208 107.035  77.664  1.00  0.00     0.274 HD
ATOM     32  H62 UNL     1       6.487 108.554  77.796  1.00  0.00     0.274 HD
ATOM     33  H61 UNL     1       7.135 107.760  76.458  1.00  0.00     0.274 HD
ENDBRANCH   3  30
BRANCH   4  34
HETATM   34  O2  UNL     1       7.982 109.713  78.938  1.00  0.00    -0.349 OA
BRANCH  34  35
HETATM   35  C11 UNL     1       9.036 110.625  78.942  1.00  0.00     0.293 C 
HETATM   36  O3  UNL     1       9.521 110.852  80.220  1.00  0.00    -0.349 OA
HETATM   37  C12 UNL     1       9.370 112.173  80.536  1.00  0.00     0.180 C 
HETATM   38  C14 UNL     1       9.398 112.942  79.235  1.00  0.00     0.249 C 
HETATM   39  C15 UNL     1       8.718 111.932  78.304  1.00  0.00     0.271 C 
BRANCH  37  40
HETATM   40  C13 UNL     1       8.115 112.410  81.325  1.00  0.00     0.198 C 
BRANCH  40  41
HETATM   41  O4  UNL     1       7.684 111.301  82.027  1.00  0.00    -0.398 OA
ATOM     42  H4  UNL     1       7.842 111.356  82.962  1.00  0.00     0.209 HD
ENDBRANCH  40  41
ENDBRANCH  37  40
BRANCH  38  43
HETATM   43  N7  UNL     1      10.748 113.101  78.735  1.00  0.00    -0.070 N 
ATOM     44  H73 UNL     1      11.402 113.306  79.491  1.00  0.00     0.274 HD
ATOM     45  H72 UNL     1      11.137 112.211  78.424  1.00  0.00     0.274 HD
ATOM     46  H71 UNL     1      10.797 113.806  78.000  1.00  0.00     0.274 HD
ENDBRANCH  38  43
BRANCH  39  47
HETATM   47  N8  UNL     1       7.317 112.184  78.158  1.00  0.00    -0.068 N 
ATOM     48  H83 UNL     1       6.830 111.339  77.861  1.00  0.00     0.275 HD
ATOM     49  H82 UNL     1       6.880 112.322  79.070  1.00  0.00     0.275 HD
ATOM     50  H81 UNL     1       7.097 112.961  77.535  1.00  0.00     0.275 HD
ENDBRANCH  39  47
ENDBRANCH  34  35
ENDBRANCH   4  34
TORSDOF 17
ENDMDL
