MODEL 1
REMARK VINA RESULT: -7.300614567      0.000      0.000
REMARK  15 active torsions:
REMARK  status: ('A' for Active; 'I' for Inactive)
REMARK       I    between atoms: C1_4  and  N3_6 
REMARK    1  A    between atoms: N3_6  and  C2_8 
REMARK    2  A    between atoms: C2_8  and  C3_9 
REMARK    3  A    between atoms: N4_10  and  C4_12 
REMARK    4  A    between atoms: C5_13  and  O1_14 
REMARK    5  A    between atoms: C6_16  and  N5_17 
REMARK    6  A    between atoms: C7_21  and  O2_22 
REMARK    7  A    between atoms: C8_24  and  O3_25 
REMARK    8  A    between atoms: O3_25  and  C9_26 
REMARK    9  A    between atoms: C10_28  and  N6_29 
REMARK   10  A    between atoms: N6_29  and  N7_30 
REMARK   11  A    between atoms: C11_33  and  N8_34 
REMARK   12  A    between atoms: N8_34  and  C12_37 
REMARK   13  A    between atoms: C12_37  and  C13_38 
REMARK   14  A    between atoms: C13_38  and  C14_39 
REMARK   15  A    between atoms: C14_39  and  N9_40 
REMARK       I    between atoms: N9_40  and  C15_43 
REMARK       I    between atoms: C15_43  and  N10_44 
REMARK       I    between atoms: C15_43  and  N11_48 
ROOT
HETATM    1  C9  UNL     1       7.906 110.156  78.358  1.00  0.00     0.297 C 
HETATM    2  O4  UNL     1       6.687 110.077  77.676  1.00  0.00    -0.334 OA
HETATM    3  C10 UNL     1       7.291 109.051  76.915  1.00  0.00     0.272 C 
HETATM    4  C11 UNL     1       8.084 108.668  78.139  1.00  0.00     0.286 C 
ENDROOT
BRANCH   1   5
HETATM    5  O3  UNL     1       7.847 110.571  79.663  1.00  0.00    -0.349 OA
BRANCH   5   6
HETATM    6  C8  UNL     1       8.733 111.592  79.877  1.00  0.00     0.180 C 
HETATM    7  C4  UNL     1       8.807 112.600  78.748  1.00  0.00     0.143 C 
HETATM    8  C5  UNL     1      10.002 113.435  79.229  1.00  0.00     0.176 C 
HETATM    9  C6  UNL     1      11.008 112.322  79.532  1.00  0.00     0.245 C 
HETATM   10  C7  UNL     1      10.164 111.171  80.061  1.00  0.00     0.182 C 
BRANCH   7  11
HETATM   11  N4  UNL     1       7.630 113.415  78.790  1.00  0.00    -0.391 N 
HETATM   12  C3  UNL     1       7.146 113.968  77.723  1.00  0.00     0.075 C 
ATOM     13  H4  UNL     1       7.160 113.564  79.683  1.00  0.00     0.159 HD
BRANCH  12  14
HETATM   14  C2  UNL     1       7.779 113.797  76.384  1.00  0.00     0.166 C 
BRANCH  14  15
HETATM   15  N3  UNL     1       6.792 113.609  75.347  1.00  0.00    -0.360 N 
HETATM   16  C1  UNL     1       6.305 112.300  75.107  1.00  0.00     0.182 C 
HETATM   17  N1  UNL     1       5.304 111.853  75.747  1.00  0.00    -0.374 N 
HETATM   18  N2  UNL     1       6.951 111.488  74.138  1.00  0.00    -0.064 NA
ATOM     19  H12 UNL     1       4.954 110.912  75.574  1.00  0.00     0.158 HD
ATOM     20  H11 UNL     1       4.840 112.437  76.443  1.00  0.00     0.158 HD
ATOM     21  H3  UNL     1       6.452 114.400  74.801  1.00  0.00     0.162 HD
ENDBRANCH  14  15
ENDBRANCH  12  14
ENDBRANCH   7  11
BRANCH   8  22
HETATM   22  O1  UNL     1       9.631 114.031  80.417  1.00  0.00    -0.391 OA
ATOM     23  H1  UNL     1      10.373 114.544  80.716  1.00  0.00     0.210 HD
ENDBRANCH   8  22
BRANCH   9  24
HETATM   24  N5  UNL     1      11.959 112.721  80.537  1.00  0.00    -0.070 N 
ATOM     25  H53 UNL     1      11.533 113.341  81.227  1.00  0.00     0.274 HD
ATOM     26  H52 UNL     1      12.200 111.943  81.151  1.00  0.00     0.274 HD
ATOM     27  H51 UNL     1      12.793 113.141  80.125  1.00  0.00     0.274 HD
ENDBRANCH   9  24
BRANCH  10  28
HETATM   28  O2  UNL     1      10.428 110.975  81.416  1.00  0.00    -0.391 OA
ATOM     29  H2  UNL     1      11.363 110.868  81.549  1.00  0.00     0.210 HD
ENDBRANCH  10  28
ENDBRANCH   5   6
ENDBRANCH   1   5
BRANCH   4  30
HETATM   30  N8  UNL     1       7.439 107.813  79.084  1.00  0.00    -0.062 N 
ATOM     31  H82 UNL     1       7.250 108.278  79.971  1.00  0.00     0.277 HD
ATOM     32  H81 UNL     1       6.474 107.603  78.831  1.00  0.00     0.277 HD
BRANCH  30  33
HETATM   33  C12 UNL     1       8.251 106.618  79.238  1.00  0.00     0.235 C 
BRANCH  33  34
HETATM   34  C13 UNL     1       7.877 105.867  80.497  1.00  0.00     0.055 C 
BRANCH  34  35
HETATM   35  C14 UNL     1       7.196 106.747  81.507  1.00  0.00     0.238 C 
BRANCH  35  36
HETATM   36  N9  UNL     1       8.062 107.119  82.589  1.00  0.00    -0.022 N 
HETATM   37  C15 UNL     1       8.608 108.455  82.418  1.00  0.00     0.575 C 
HETATM   38  N10 UNL     1       7.599 109.469  82.345  1.00  0.00    -0.026 N 
HETATM   39  N11 UNL     1       9.525 108.789  83.491  1.00  0.00    -0.026 N 
ATOM     40 3H10 UNL     1       6.922 109.257  81.612  1.00  0.00     0.278 HD
ATOM     41 2H10 UNL     1       6.984 109.429  83.158  1.00  0.00     0.278 HD
ATOM     42 1H10 UNL     1       7.983 110.407  82.225  1.00  0.00     0.278 HD
ATOM     43 3H11 UNL     1       9.087 108.678  84.406  1.00  0.00     0.278 HD
ATOM     44 2H11 UNL     1      10.263 108.092  83.584  1.00  0.00     0.278 HD
ATOM     45 1H11 UNL     1       9.908 109.726  83.371  1.00  0.00     0.278 HD
ATOM     46  H92 UNL     1       7.590 107.025  83.488  1.00  0.00     0.281 HD
ATOM     47  H91 UNL     1       8.803 106.431  82.722  1.00  0.00     0.281 HD
ENDBRANCH  35  36
ENDBRANCH  34  35
ENDBRANCH  33  34
ENDBRANCH  30  33
ENDBRANCH   4  30
BRANCH   3  48
HETATM   48  N6  UNL     1       6.331 108.112  76.429  1.00  0.00    -0.114 NA
BRANCH  48  49
HETATM   49  N7  UNL     1       6.012 108.502  75.102  1.00  0.00    -0.346 N 
ATOM     50  H72 UNL     1       6.198 107.959  74.259  1.00  0.00     0.172 HD
ATOM     51  H71 UNL     1       5.568 109.418  75.162  1.00  0.00     0.172 HD
ENDBRANCH  48  49
ENDBRANCH   3  48
TORSDOF 15
ENDMDL
MODEL 2
REMARK VINA RESULT: -7.197698149      2.160      2.843
REMARK  15 active torsions:
REMARK  status: ('A' for Active; 'I' for Inactive)
REMARK       I    between atoms: C1_4  and  N3_6 
REMARK    1  A    between atoms: N3_6  and  C2_8 
REMARK    2  A    between atoms: C2_8  and  C3_9 
REMARK    3  A    between atoms: N4_10  and  C4_12 
REMARK    4  A    between atoms: C5_13  and  O1_14 
REMARK    5  A    between atoms: C6_16  and  N5_17 
REMARK    6  A    between atoms: C7_21  and  O2_22 
REMARK    7  A    between atoms: C8_24  and  O3_25 
REMARK    8  A    between atoms: O3_25  and  C9_26 
REMARK    9  A    between atoms: C10_28  and  N6_29 
REMARK   10  A    between atoms: N6_29  and  N7_30 
REMARK   11  A    between atoms: C11_33  and  N8_34 
REMARK   12  A    between atoms: N8_34  and  C12_37 
REMARK   13  A    between atoms: C12_37  and  C13_38 
REMARK   14  A    between atoms: C13_38  and  C14_39 
REMARK   15  A    between atoms: C14_39  and  N9_40 
REMARK       I    between atoms: N9_40  and  C15_43 
REMARK       I    between atoms: C15_43  and  N10_44 
REMARK       I    between atoms: C15_43  and  N11_48 
ROOT
HETATM    1  C9  UNL     1       8.608 109.297  79.008  1.00  0.00     0.297 C 
HETATM    2  O4  UNL     1       7.799 109.128  77.879  1.00  0.00    -0.334 OA
HETATM    3  C10 UNL     1       8.463 107.893  77.709  1.00  0.00     0.272 C 
HETATM    4  C11 UNL     1       8.579 107.797  79.209  1.00  0.00     0.286 C 
ENDROOT
BRANCH   1   5
HETATM    5  O3  UNL     1       8.083 110.053  80.024  1.00  0.00    -0.349 OA
BRANCH   5   6
HETATM    6  C8  UNL     1       8.821 111.192  80.199  1.00  0.00     0.180 C 
HETATM    7  C4  UNL     1       8.546 112.276  79.177  1.00  0.00     0.143 C 
HETATM    8  C5  UNL     1       9.658 113.266  79.548  1.00  0.00     0.176 C 
HETATM    9  C6  UNL     1      10.863 112.323  79.584  1.00  0.00     0.245 C 
HETATM   10  C7  UNL     1      10.311 111.010  80.121  1.00  0.00     0.182 C 
BRANCH   7  11
HETATM   11  N4  UNL     1       7.279 112.872  79.477  1.00  0.00    -0.391 N 
HETATM   12  C3  UNL     1       6.615 113.543  78.590  1.00  0.00     0.075 C 
ATOM     13  H4  UNL     1       6.890 112.766  80.414  1.00  0.00     0.159 HD
BRANCH  12  14
HETATM   14  C2  UNL     1       7.120 113.741  77.201  1.00  0.00     0.166 C 
BRANCH  14  15
HETATM   15  N3  UNL     1       6.244 113.141  76.224  1.00  0.00    -0.360 N 
HETATM   16  C1  UNL     1       6.621 111.903  75.647  1.00  0.00     0.182 C 
HETATM   17  N1  UNL     1       6.294 110.807  76.196  1.00  0.00    -0.374 N 
HETATM   18  N2  UNL     1       7.374 111.900  74.444  1.00  0.00    -0.064 NA
ATOM     19  H12 UNL     1       6.566 109.916  75.781  1.00  0.00     0.158 HD
ATOM     20  H11 UNL     1       5.753 110.809  77.061  1.00  0.00     0.158 HD
ATOM     21  H3  UNL     1       5.373 113.598  75.954  1.00  0.00     0.162 HD
ENDBRANCH  14  15
ENDBRANCH  12  14
ENDBRANCH   7  11
BRANCH   8  22
HETATM   22  O1  UNL     1       9.402 113.704  80.831  1.00  0.00    -0.391 OA
ATOM     23  H1  UNL     1       9.618 114.629  80.860  1.00  0.00     0.210 HD
ENDBRANCH   8  22
BRANCH   9  24
HETATM   24  N5  UNL     1      11.894 112.806  80.466  1.00  0.00    -0.070 N 
ATOM     25  H53 UNL     1      11.517 113.454  81.158  1.00  0.00     0.274 HD
ATOM     26  H52 UNL     1      12.218 112.072  81.096  1.00  0.00     0.274 HD
ATOM     27  H51 UNL     1      12.669 113.222  79.950  1.00  0.00     0.274 HD
ENDBRANCH   9  24
BRANCH  10  28
HETATM   28  O2  UNL     1      10.825 110.766  81.393  1.00  0.00    -0.391 OA
ATOM     29  H2  UNL     1      10.358 110.043  81.795  1.00  0.00     0.210 HD
ENDBRANCH  10  28
ENDBRANCH   5   6
ENDBRANCH   1   5
BRANCH   4  30
HETATM   30  N8  UNL     1       7.448 107.279  79.911  1.00  0.00    -0.062 N 
ATOM     31  H82 UNL     1       7.041 107.956  80.556  1.00  0.00     0.277 HD
ATOM     32  H81 UNL     1       6.633 107.156  79.310  1.00  0.00     0.277 HD
BRANCH  30  33
HETATM   33  C12 UNL     1       7.850 106.048  80.569  1.00  0.00     0.235 C 
BRANCH  33  34
HETATM   34  C13 UNL     1       7.194 104.849  79.923  1.00  0.00     0.055 C 
BRANCH  34  35
HETATM   35  C14 UNL     1       7.101 103.674  80.856  1.00  0.00     0.238 C 
BRANCH  35  36
HETATM   36  N9  UNL     1       5.969 103.754  81.734  1.00  0.00    -0.022 N 
HETATM   37  C15 UNL     1       5.228 102.506  81.786  1.00  0.00     0.575 C 
HETATM   38  N10 UNL     1       6.017 101.402  82.248  1.00  0.00    -0.026 N 
HETATM   39  N11 UNL     1       4.057 102.624  82.634  1.00  0.00    -0.026 N 
ATOM     40 3H10 UNL     1       6.863 101.300  81.687  1.00  0.00     0.278 HD
ATOM     41 2H10 UNL     1       6.440 101.612  83.153  1.00  0.00     0.278 HD
ATOM     42 1H10 UNL     1       5.496 100.526  82.285  1.00  0.00     0.278 HD
ATOM     43 3H11 UNL     1       4.302 102.954  83.568  1.00  0.00     0.278 HD
ATOM     44 2H11 UNL     1       3.462 103.401  82.345  1.00  0.00     0.278 HD
ATOM     45 1H11 UNL     1       3.536 101.748  82.670  1.00  0.00     0.278 HD
ATOM     46  H92 UNL     1       6.247 104.058  82.668  1.00  0.00     0.281 HD
ATOM     47  H91 UNL     1       5.362 104.534  81.484  1.00  0.00     0.281 HD
ENDBRANCH  35  36
ENDBRANCH  34  35
ENDBRANCH  33  34
ENDBRANCH  30  33
ENDBRANCH   4  30
BRANCH   3  48
HETATM   48  N6  UNL     1       7.641 106.933  77.047  1.00  0.00    -0.114 NA
BRANCH  48  49
HETATM   49  N7  UNL     1       7.764 107.178  75.653  1.00  0.00    -0.346 N 
ATOM     50  H72 UNL     1       8.533 106.870  75.059  1.00  0.00     0.172 HD
ATOM     51  H71 UNL     1       6.943 107.715  75.375  1.00  0.00     0.172 HD
ENDBRANCH  48  49
ENDBRANCH   3  48
TORSDOF 15
ENDMDL
MODEL 3
REMARK VINA RESULT: -7.134043778      1.319      1.641
REMARK  15 active torsions:
REMARK  status: ('A' for Active; 'I' for Inactive)
REMARK       I    between atoms: C1_4  and  N3_6 
REMARK    1  A    between atoms: N3_6  and  C2_8 
REMARK    2  A    between atoms: C2_8  and  C3_9 
REMARK    3  A    between atoms: N4_10  and  C4_12 
REMARK    4  A    between atoms: C5_13  and  O1_14 
REMARK    5  A    between atoms: C6_16  and  N5_17 
REMARK    6  A    between atoms: C7_21  and  O2_22 
REMARK    7  A    between atoms: C8_24  and  O3_25 
REMARK    8  A    between atoms: O3_25  and  C9_26 
REMARK    9  A    between atoms: C10_28  and  N6_29 
REMARK   10  A    between atoms: N6_29  and  N7_30 
REMARK   11  A    between atoms: C11_33  and  N8_34 
REMARK   12  A    between atoms: N8_34  and  C12_37 
REMARK   13  A    between atoms: C12_37  and  C13_38 
REMARK   14  A    between atoms: C13_38  and  C14_39 
REMARK   15  A    between atoms: C14_39  and  N9_40 
REMARK       I    between atoms: N9_40  and  C15_43 
REMARK       I    between atoms: C15_43  and  N10_44 
REMARK       I    between atoms: C15_43  and  N11_48 
ROOT
HETATM    1  C9  UNL     1       7.879 109.046  77.660  1.00  0.00     0.297 C 
HETATM    2  O4  UNL     1       6.691 109.101  76.922  1.00  0.00    -0.334 OA
HETATM    3  C10 UNL     1       7.401 108.412  75.913  1.00  0.00     0.272 C 
HETATM    4  C11 UNL     1       8.186 107.720  76.999  1.00  0.00     0.286 C 
ENDROOT
BRANCH   1   5
HETATM    5  O3  UNL     1       7.745 109.025  79.024  1.00  0.00    -0.349 OA
BRANCH   5   6
HETATM    6  C8  UNL     1       8.559 109.965  79.595  1.00  0.00     0.180 C 
HETATM    7  C4  UNL     1       8.639 111.270  78.829  1.00  0.00     0.143 C 
HETATM    8  C5  UNL     1       9.756 111.963  79.619  1.00  0.00     0.176 C 
HETATM    9  C6  UNL     1      10.805 110.850  79.645  1.00  0.00     0.245 C 
HETATM   10  C7  UNL     1      10.000 109.561  79.745  1.00  0.00     0.182 C 
BRANCH   7  11
HETATM   11  N4  UNL     1       7.416 111.989  79.030  1.00  0.00    -0.391 N 
HETATM   12  C3  UNL     1       6.992 112.863  78.174  1.00  0.00     0.075 C 
ATOM     13  H4  UNL     1       6.866 111.808  79.870  1.00  0.00     0.159 HD
BRANCH  12  14
HETATM   14  C2  UNL     1       7.741 113.181  76.925  1.00  0.00     0.166 C 
BRANCH  14  15
HETATM   15  N3  UNL     1       6.865 113.256  75.780  1.00  0.00    -0.360 N 
HETATM   16  C1  UNL     1       6.428 112.048  75.183  1.00  0.00     0.182 C 
HETATM   17  N1  UNL     1       5.379 111.465  75.592  1.00  0.00    -0.374 N 
HETATM   18  N2  UNL     1       7.182 111.491  74.116  1.00  0.00    -0.064 NA
ATOM     19  H12 UNL     1       5.064 110.595  75.162  1.00  0.00     0.158 HD
ATOM     20  H11 UNL     1       4.837 111.865  76.359  1.00  0.00     0.158 HD
ATOM     21  H3  UNL     1       6.567 114.158  75.410  1.00  0.00     0.162 HD
ENDBRANCH  14  15
ENDBRANCH  12  14
ENDBRANCH   7  11
BRANCH   8  22
HETATM   22  O1  UNL     1       9.287 112.158  80.903  1.00  0.00    -0.391 OA
ATOM     23  H1  UNL     1       8.851 113.002  80.917  1.00  0.00     0.210 HD
ENDBRANCH   8  22
BRANCH   9  24
HETATM   24  N5  UNL     1      11.675 110.961  80.787  1.00  0.00    -0.070 N 
ATOM     25  H53 UNL     1      12.530 111.465  80.556  1.00  0.00     0.274 HD
ATOM     26  H52 UNL     1      11.295 111.604  81.482  1.00  0.00     0.274 HD
ATOM     27  H51 UNL     1      11.880 110.049  81.197  1.00  0.00     0.274 HD
ENDBRANCH   9  24
BRANCH  10  28
HETATM   28  O2  UNL     1      10.199 108.975  80.993  1.00  0.00    -0.391 OA
ATOM     29  H2  UNL     1      10.307 108.036  80.894  1.00  0.00     0.210 HD
ENDBRANCH  10  28
ENDBRANCH   5   6
ENDBRANCH   1   5
BRANCH   4  30
HETATM   30  N8  UNL     1       7.587 106.568  77.593  1.00  0.00    -0.062 N 
ATOM     31  H82 UNL     1       7.211 106.754  78.522  1.00  0.00     0.277 HD
ATOM     32  H81 UNL     1       6.713 106.301  77.141  1.00  0.00     0.277 HD
BRANCH  30  33
HETATM   33  C12 UNL     1       8.569 105.496  77.591  1.00  0.00     0.235 C 
BRANCH  33  34
HETATM   34  C13 UNL     1       8.765 104.938  78.982  1.00  0.00     0.055 C 
BRANCH  34  35
HETATM   35  C14 UNL     1       7.812 105.535  79.978  1.00  0.00     0.238 C 
BRANCH  35  36
HETATM   36  N9  UNL     1       8.432 106.524  80.813  1.00  0.00    -0.022 N 
HETATM   37  C15 UNL     1       7.560 106.950  81.895  1.00  0.00     0.575 C 
HETATM   38  N10 UNL     1       7.177 105.877  82.763  1.00  0.00    -0.026 N 
HETATM   39  N11 UNL     1       8.182 107.991  82.691  1.00  0.00    -0.026 N 
ATOM     40 3H10 UNL     1       6.753 105.114  82.234  1.00  0.00     0.278 HD
ATOM     41 2H10 UNL     1       7.998 105.393  83.127  1.00  0.00     0.278 HD
ATOM     42 1H10 UNL     1       6.566 106.176  83.523  1.00  0.00     0.278 HD
ATOM     43 3H11 UNL     1       9.097 107.701  83.039  1.00  0.00     0.278 HD
ATOM     44 2H11 UNL     1       8.475 108.779  82.115  1.00  0.00     0.278 HD
ATOM     45 1H11 UNL     1       7.570 108.291  83.451  1.00  0.00     0.278 HD
ATOM     46  H92 UNL     1       9.330 106.197  81.168  1.00  0.00     0.281 HD
ATOM     47  H91 UNL     1       8.755 107.321  80.263  1.00  0.00     0.281 HD
ENDBRANCH  35  36
ENDBRANCH  34  35
ENDBRANCH  33  34
ENDBRANCH  30  33
ENDBRANCH   4  30
BRANCH   3  48
HETATM   48  N6  UNL     1       6.538 107.609  75.107  1.00  0.00    -0.114 NA
BRANCH  48  49
HETATM   49  N7  UNL     1       6.179 108.396  73.981  1.00  0.00    -0.346 N 
ATOM     50  H72 UNL     1       6.390 108.177  73.008  1.00  0.00     0.172 HD
ATOM     51  H71 UNL     1       5.678 109.209  74.338  1.00  0.00     0.172 HD
ENDBRANCH  48  49
ENDBRANCH   3  48
TORSDOF 15
ENDMDL
MODEL 4
REMARK VINA RESULT: -7.057784445      1.880      3.250
REMARK  15 active torsions:
REMARK  status: ('A' for Active; 'I' for Inactive)
REMARK       I    between atoms: C1_4  and  N3_6 
REMARK    1  A    between atoms: N3_6  and  C2_8 
REMARK    2  A    between atoms: C2_8  and  C3_9 
REMARK    3  A    between atoms: N4_10  and  C4_12 
REMARK    4  A    between atoms: C5_13  and  O1_14 
REMARK    5  A    between atoms: C6_16  and  N5_17 
REMARK    6  A    between atoms: C7_21  and  O2_22 
REMARK    7  A    between atoms: C8_24  and  O3_25 
REMARK    8  A    between atoms: O3_25  and  C9_26 
REMARK    9  A    between atoms: C10_28  and  N6_29 
REMARK   10  A    between atoms: N6_29  and  N7_30 
REMARK   11  A    between atoms: C11_33  and  N8_34 
REMARK   12  A    between atoms: N8_34  and  C12_37 
REMARK   13  A    between atoms: C12_37  and  C13_38 
REMARK   14  A    between atoms: C13_38  and  C14_39 
REMARK   15  A    between atoms: C14_39  and  N9_40 
REMARK       I    between atoms: N9_40  and  C15_43 
REMARK       I    between atoms: C15_43  and  N10_44 
REMARK       I    between atoms: C15_43  and  N11_48 
ROOT
HETATM    1  C9  UNL     1       7.849 109.433  79.706  1.00  0.00     0.297 C 
HETATM    2  O4  UNL     1       8.538 109.105  80.878  1.00  0.00    -0.334 OA
HETATM    3  C10 UNL     1       7.742 107.939  80.905  1.00  0.00     0.272 C 
HETATM    4  C11 UNL     1       7.744 107.955  79.397  1.00  0.00     0.286 C 
ENDROOT
BRANCH   1   5
HETATM    5  O3  UNL     1       8.531 110.194  78.793  1.00  0.00    -0.349 OA
BRANCH   5   6
HETATM    6  C8  UNL     1       9.115 111.267  79.410  1.00  0.00     0.180 C 
HETATM    7  C4  UNL     1       8.692 112.612  78.854  1.00  0.00     0.143 C 
HETATM    8  C5  UNL     1       9.668 113.521  79.612  1.00  0.00     0.176 C 
HETATM    9  C6  UNL     1      10.987 112.791  79.344  1.00  0.00     0.245 C 
HETATM   10  C7  UNL     1      10.616 111.315  79.330  1.00  0.00     0.182 C 
BRANCH   7  11
HETATM   11  N4  UNL     1       7.361 112.889  79.302  1.00  0.00    -0.391 N 
HETATM   12  C3  UNL     1       6.459 113.366  78.505  1.00  0.00     0.075 C 
ATOM     13  H4  UNL     1       7.116 112.706  80.276  1.00  0.00     0.159 HD
BRANCH  12  14
HETATM   14  C2  UNL     1       6.742 113.660  77.071  1.00  0.00     0.166 C 
BRANCH  14  15
HETATM   15  N3  UNL     1       6.041 112.755  76.191  1.00  0.00    -0.360 N 
HETATM   16  C1  UNL     1       6.750 111.652  75.653  1.00  0.00     0.182 C 
HETATM   17  N1  UNL     1       6.806 110.550  76.279  1.00  0.00    -0.374 N 
HETATM   18  N2  UNL     1       7.401 111.792  74.399  1.00  0.00    -0.064 NA
ATOM     19  H12 UNL     1       7.316 109.756  75.892  1.00  0.00     0.158 HD
ATOM     20  H11 UNL     1       6.338 110.449  77.180  1.00  0.00     0.158 HD
ATOM     21  H3  UNL     1       5.059 112.905  75.963  1.00  0.00     0.162 HD
ENDBRANCH  14  15
ENDBRANCH  12  14
ENDBRANCH   7  11
BRANCH   8  22
HETATM   22  O1  UNL     1       9.368 113.411  80.955  1.00  0.00    -0.391 OA
ATOM     23  H1  UNL     1      10.150 113.652  81.438  1.00  0.00     0.210 HD
ENDBRANCH   8  22
BRANCH   9  24
HETATM   24  N5  UNL     1      11.953 113.033  80.384  1.00  0.00    -0.070 N 
ATOM     25  H53 UNL     1      11.582 113.662  81.097  1.00  0.00     0.274 HD
ATOM     26  H52 UNL     1      12.093 112.204  80.961  1.00  0.00     0.274 HD
ATOM     27  H51 UNL     1      12.836 113.378  80.007  1.00  0.00     0.274 HD
ENDBRANCH   9  24
BRANCH  10  28
HETATM   28  O2  UNL     1      11.168 110.679  80.440  1.00  0.00    -0.391 OA
ATOM     29  H2  UNL     1      10.550 110.048  80.790  1.00  0.00     0.210 HD
ENDBRANCH  10  28
ENDBRANCH   5   6
ENDBRANCH   1   5
BRANCH   4  30
HETATM   30  N8  UNL     1       8.872 107.367  78.748  1.00  0.00    -0.062 N 
ATOM     31  H82 UNL     1       9.446 108.053  78.258  1.00  0.00     0.277 HD
ATOM     32  H81 UNL     1       9.580 107.041  79.406  1.00  0.00     0.277 HD
BRANCH  30  33
HETATM   33  C12 UNL     1       8.391 106.311  77.874  1.00  0.00     0.235 C 
BRANCH  33  34
HETATM   34  C13 UNL     1       8.562 104.954  78.518  1.00  0.00     0.055 C 
BRANCH  34  35
HETATM   35  C14 UNL     1       7.247 104.292  78.816  1.00  0.00     0.238 C 
BRANCH  35  36
HETATM   36  N9  UNL     1       6.813 104.507  80.166  1.00  0.00    -0.022 N 
HETATM   37  C15 UNL     1       6.461 103.264  80.832  1.00  0.00     0.575 C 
HETATM   38  N10 UNL     1       7.551 102.337  80.905  1.00  0.00    -0.026 N 
HETATM   39  N11 UNL     1       5.970 103.508  82.175  1.00  0.00    -0.026 N 
ATOM     40 3H10 UNL     1       7.937 102.156  79.978  1.00  0.00     0.278 HD
ATOM     41 2H10 UNL     1       8.365 102.767  81.345  1.00  0.00     0.278 HD
ATOM     42 1H10 UNL     1       7.304 101.465  81.373  1.00  0.00     0.278 HD
ATOM     43 3H11 UNL     1       6.636 104.052  82.725  1.00  0.00     0.278 HD
ATOM     44 2H11 UNL     1       5.191 104.166  82.176  1.00  0.00     0.278 HD
ATOM     45 1H11 UNL     1       5.722 102.636  82.643  1.00  0.00     0.278 HD
ATOM     46  H92 UNL     1       7.509 105.027  80.700  1.00  0.00     0.281 HD
ATOM     47  H91 UNL     1       6.044 105.177  80.205  1.00  0.00     0.281 HD
ENDBRANCH  35  36
ENDBRANCH  34  35
ENDBRANCH  33  34
ENDBRANCH  30  33
ENDBRANCH   4  30
BRANCH   3  48
HETATM   48  N6  UNL     1       8.404 106.855  81.555  1.00  0.00    -0.114 NA
BRANCH  48  49
HETATM   49  N7  UNL     1       7.700 106.610  82.764  1.00  0.00    -0.346 N 
ATOM     50  H72 UNL     1       7.006 105.878  82.912  1.00  0.00     0.172 HD
ATOM     51  H71 UNL     1       8.024 107.302  83.439  1.00  0.00     0.172 HD
ENDBRANCH  48  49
ENDBRANCH   3  48
TORSDOF 15
ENDMDL
MODEL 5
REMARK VINA RESULT: -6.997614860      2.789      4.874
REMARK  15 active torsions:
REMARK  status: ('A' for Active; 'I' for Inactive)
REMARK       I    between atoms: C1_4  and  N3_6 
REMARK    1  A    between atoms: N3_6  and  C2_8 
REMARK    2  A    between atoms: C2_8  and  C3_9 
REMARK    3  A    between atoms: N4_10  and  C4_12 
REMARK    4  A    between atoms: C5_13  and  O1_14 
REMARK    5  A    between atoms: C6_16  and  N5_17 
REMARK    6  A    between atoms: C7_21  and  O2_22 
REMARK    7  A    between atoms: C8_24  and  O3_25 
REMARK    8  A    between atoms: O3_25  and  C9_26 
REMARK    9  A    between atoms: C10_28  and  N6_29 
REMARK   10  A    between atoms: N6_29  and  N7_30 
REMARK   11  A    between atoms: C11_33  and  N8_34 
REMARK   12  A    between atoms: N8_34  and  C12_37 
REMARK   13  A    between atoms: C12_37  and  C13_38 
REMARK   14  A    between atoms: C13_38  and  C14_39 
REMARK   15  A    between atoms: C14_39  and  N9_40 
REMARK       I    between atoms: N9_40  and  C15_43 
REMARK       I    between atoms: C15_43  and  N10_44 
REMARK       I    between atoms: C15_43  and  N11_48 
ROOT
HETATM    1  C9  UNL     1       7.987 108.203  79.234  1.00  0.00     0.297 C 
HETATM    2  O4  UNL     1       7.527 108.665  77.997  1.00  0.00    -0.334 OA
HETATM    3  C10 UNL     1       8.139 107.516  77.449  1.00  0.00     0.272 C 
HETATM    4  C11 UNL     1       7.816 106.786  78.729  1.00  0.00     0.286 C 
ENDROOT
BRANCH   1   5
HETATM    5  O3  UNL     1       7.238 108.548  80.329  1.00  0.00    -0.349 OA
BRANCH   5   6
HETATM    6  C8  UNL     1       8.029 108.622  81.442  1.00  0.00     0.180 C 
HETATM    7  C4  UNL     1       9.155 109.633  81.341  1.00  0.00     0.143 C 
HETATM    8  C5  UNL     1       9.919 109.295  82.628  1.00  0.00     0.176 C 
HETATM    9  C6  UNL     1      10.035 107.776  82.486  1.00  0.00     0.245 C 
HETATM   10  C7  UNL     1       8.739 107.349  81.812  1.00  0.00     0.182 C 
BRANCH   7  11
HETATM   11  N4  UNL     1       8.597 110.946  81.468  1.00  0.00    -0.391 N 
HETATM   12  C3  UNL     1       8.695 111.822  80.518  1.00  0.00     0.075 C 
ATOM     13  H4  UNL     1       8.110 111.199  82.328  1.00  0.00     0.159 HD
BRANCH  12  14
HETATM   14  C2  UNL     1       9.393 111.527  79.235  1.00  0.00     0.166 C 
BRANCH  14  15
HETATM   15  N3  UNL     1      10.803 111.290  79.435  1.00  0.00    -0.360 N 
HETATM   16  C1  UNL     1      11.696 112.384  79.315  1.00  0.00     0.182 C 
HETATM   17  N1  UNL     1      11.965 113.113  80.318  1.00  0.00    -0.374 N 
HETATM   18  N2  UNL     1      12.290 112.658  78.055  1.00  0.00    -0.064 NA
ATOM     19  H12 UNL     1      12.608 113.900  80.231  1.00  0.00     0.158 HD
ATOM     20  H11 UNL     1      11.538 112.916  81.223  1.00  0.00     0.158 HD
ATOM     21  H3  UNL     1      11.149 110.357  79.659  1.00  0.00     0.162 HD
ENDBRANCH  14  15
ENDBRANCH  12  14
ENDBRANCH   7  11
BRANCH   8  22
HETATM   22  O1  UNL     1       9.079 109.576  83.687  1.00  0.00    -0.391 OA
ATOM     23  H1  UNL     1       8.812 108.745  84.062  1.00  0.00     0.210 HD
ENDBRANCH   8  22
BRANCH   9  24
HETATM   24  N5  UNL     1      10.146 107.127  83.767  1.00  0.00    -0.070 N 
ATOM     25  H53 UNL     1      10.049 106.115  83.680  1.00  0.00     0.274 HD
ATOM     26  H52 UNL     1      11.101 107.165  84.121  1.00  0.00     0.274 HD
ATOM     27  H51 UNL     1       9.483 107.507  84.443  1.00  0.00     0.274 HD
ENDBRANCH   9  24
BRANCH  10  28
HETATM   28  O2  UNL     1       7.960 106.617  82.706  1.00  0.00    -0.391 OA
ATOM     29  H2  UNL     1       7.056 106.904  82.655  1.00  0.00     0.210 HD
ENDBRANCH  10  28
ENDBRANCH   5   6
ENDBRANCH   1   5
BRANCH   4  30
HETATM   30  N8  UNL     1       6.504 106.233  78.841  1.00  0.00    -0.062 N 
ATOM     31  H82 UNL     1       5.986 106.608  79.635  1.00  0.00     0.277 HD
ATOM     32  H81 UNL     1       5.877 106.553  78.104  1.00  0.00     0.277 HD
BRANCH  30  33
HETATM   33  C12 UNL     1       6.627 104.786  78.884  1.00  0.00     0.235 C 
BRANCH  33  34
HETATM   34  C13 UNL     1       7.579 104.354  79.977  1.00  0.00     0.055 C 
BRANCH  34  35
HETATM   35  C14 UNL     1       7.090 103.141  80.716  1.00  0.00     0.238 C 
BRANCH  35  36
HETATM   36  N9  UNL     1       6.019 103.439  81.622  1.00  0.00    -0.022 N 
HETATM   37  C15 UNL     1       5.109 102.318  81.783  1.00  0.00     0.575 C 
HETATM   38  N10 UNL     1       5.751 101.143  82.294  1.00  0.00    -0.026 N 
HETATM   39  N11 UNL     1       4.003 102.658  82.657  1.00  0.00    -0.026 N 
ATOM     40 3H10 UNL     1       6.550 100.883  81.714  1.00  0.00     0.278 HD
ATOM     41 2H10 UNL     1       6.237 101.345  83.168  1.00  0.00     0.278 HD
ATOM     42 1H10 UNL     1       5.112 100.355  82.406  1.00  0.00     0.278 HD
ATOM     43 3H11 UNL     1       4.331 103.007  83.558  1.00  0.00     0.278 HD
ATOM     44 2H11 UNL     1       3.514 103.493  82.335  1.00  0.00     0.278 HD
ATOM     45 1H11 UNL     1       3.364 101.871  82.770  1.00  0.00     0.278 HD
ATOM     46  H92 UNL     1       6.376 103.758  82.524  1.00  0.00     0.281 HD
ATOM     47  H91 UNL     1       5.519 104.282  81.339  1.00  0.00     0.281 HD
ENDBRANCH  35  36
ENDBRANCH  34  35
ENDBRANCH  33  34
ENDBRANCH  30  33
ENDBRANCH   4  30
BRANCH   3  48
HETATM   48  N6  UNL     1       7.487 107.080  76.257  1.00  0.00    -0.114 NA
BRANCH  48  49
HETATM   49  N7  UNL     1       7.830 108.009  75.239  1.00  0.00    -0.346 N 
ATOM     50  H72 UNL     1       8.714 108.513  75.163  1.00  0.00     0.172 HD
ATOM     51  H71 UNL     1       7.029 108.068  74.611  1.00  0.00     0.172 HD
ENDBRANCH  48  49
ENDBRANCH   3  48
TORSDOF 15
ENDMDL
