MODEL 1
REMARK VINA RESULT: -5.978577778      0.000      0.000
REMARK  5 active torsions:
REMARK  status: ('A' for Active; 'I' for Inactive)
REMARK    1  A    between atoms: N1_1  and  C1_5 
REMARK    2  A    between atoms: C1_5  and  C2_6 
REMARK    3  A    between atoms: C2_6  and  C3_7 
REMARK    4  A    between atoms: C4_8  and  C5_9 
REMARK    5  A    between atoms: C5_9  and  C6_10 
ROOT
HETATM    1  C2  UNL     1       1.608   0.844   4.798  1.00  0.00     0.054 C 
ENDROOT
BRANCH   1   2
HETATM    2  C1  UNL     1       1.584  -0.684   4.838  1.00  0.00     0.233 C 
BRANCH   2   3
HETATM    3  N1  UNL     1       1.956  -1.094   6.161  1.00  0.00    -0.079 N 
ATOM      4  H13 UNL     1       2.670  -0.494   6.574  1.00  0.00     0.274 HD
ATOM      5  H12 UNL     1       1.222  -0.925   6.849  1.00  0.00     0.274 HD
ATOM      6  H11 UNL     1       2.239  -2.072   6.116  1.00  0.00     0.274 HD
ENDBRANCH   2   3
ENDBRANCH   1   2
BRANCH   1   7
HETATM    7  C3  UNL     1       0.261   1.417   4.688  1.00  0.00    -0.029 C 
HETATM    8  C4  UNL     1      -0.446   1.236   3.593  1.00  0.00    -0.030 C 
BRANCH   8   9
HETATM    9  C5  UNL     1      -1.827   1.796   3.420  1.00  0.00     0.031 C 
BRANCH   9  10
HETATM   10  C6  UNL     1      -2.683   1.196   4.497  1.00  0.00    -0.011 A 
HETATM   11  C7  UNL     1      -3.198  -0.207   4.317  1.00  0.00     0.005 A 
HETATM   12  C8  UNL     1      -4.140   0.997   4.310  1.00  0.00     0.005 A 
ENDBRANCH   9  10
ENDBRANCH   8   9
ENDBRANCH   1   7
TORSDOF 5
ENDMDL
MODEL 2
REMARK VINA RESULT: -5.869155494      0.950      1.225
REMARK  5 active torsions:
REMARK  status: ('A' for Active; 'I' for Inactive)
REMARK    1  A    between atoms: N1_1  and  C1_5 
REMARK    2  A    between atoms: C1_5  and  C2_6 
REMARK    3  A    between atoms: C2_6  and  C3_7 
REMARK    4  A    between atoms: C4_8  and  C5_9 
REMARK    5  A    between atoms: C5_9  and  C6_10 
ROOT
HETATM    1  C2  UNL     1       1.635  -0.403   4.743  1.00  0.00     0.054 C 
ENDROOT
BRANCH   1   2
HETATM    2  C1  UNL     1       0.964  -0.450   6.116  1.00  0.00     0.233 C 
BRANCH   2   3
HETATM    3  N1  UNL     1       1.950  -0.859   7.072  1.00  0.00    -0.079 N 
ATOM      4  H13 UNL     1       2.882  -0.947   6.666  1.00  0.00     0.274 HD
ATOM      5  H12 UNL     1       2.167  -0.130   7.753  1.00  0.00     0.274 HD
ATOM      6  H11 UNL     1       1.624  -1.721   7.507  1.00  0.00     0.274 HD
ENDBRANCH   2   3
ENDBRANCH   1   2
BRANCH   1   7
HETATM    7  C3  UNL     1       0.789   0.246   3.734  1.00  0.00    -0.029 C 
HETATM    8  C4  UNL     1      -0.069   1.178   4.092  1.00  0.00    -0.030 C 
BRANCH   8   9
HETATM    9  C5  UNL     1      -0.960   1.877   3.108  1.00  0.00     0.031 C 
BRANCH   9  10
HETATM   10  C6  UNL     1      -2.370   1.704   3.593  1.00  0.00    -0.011 A 
HETATM   11  C7  UNL     1      -2.616   0.894   4.837  1.00  0.00     0.005 A 
HETATM   12  C8  UNL     1      -3.082   0.411   3.464  1.00  0.00     0.005 A 
ENDBRANCH   9  10
ENDBRANCH   8   9
ENDBRANCH   1   7
TORSDOF 5
ENDMDL
MODEL 3
REMARK VINA RESULT: -5.810650597      1.951      4.135
REMARK  5 active torsions:
REMARK  status: ('A' for Active; 'I' for Inactive)
REMARK    1  A    between atoms: N1_1  and  C1_5 
REMARK    2  A    between atoms: C1_5  and  C2_6 
REMARK    3  A    between atoms: C2_6  and  C3_7 
REMARK    4  A    between atoms: C4_8  and  C5_9 
REMARK    5  A    between atoms: C5_9  and  C6_10 
ROOT
HETATM    1  C2  UNL     1      -2.838   1.164   3.323  1.00  0.00     0.054 C 
ENDROOT
BRANCH   1   2
HETATM    2  C1  UNL     1      -2.662  -0.201   2.659  1.00  0.00     0.233 C 
BRANCH   2   3
HETATM    3  N1  UNL     1      -2.490  -1.175   3.696  1.00  0.00    -0.079 N 
ATOM      4  H13 UNL     1      -1.573  -1.123   4.140  1.00  0.00     0.274 HD
ATOM      5  H12 UNL     1      -3.052  -0.975   4.524  1.00  0.00     0.274 HD
ATOM      6  H11 UNL     1      -2.685  -2.093   3.298  1.00  0.00     0.274 HD
ENDBRANCH   2   3
ENDBRANCH   1   2
BRANCH   1   7
HETATM    7  C3  UNL     1      -1.774   1.449   4.294  1.00  0.00    -0.029 C 
HETATM    8  C4  UNL     1      -0.529   1.579   3.889  1.00  0.00    -0.030 C 
BRANCH   8   9
HETATM    9  C5  UNL     1       0.602   1.869   4.832  1.00  0.00     0.031 C 
BRANCH   9  10
HETATM   10  C6  UNL     1       1.551   0.710   4.751  1.00  0.00    -0.011 A 
HETATM   11  C7  UNL     1       1.302  -0.362   3.725  1.00  0.00     0.005 A 
HETATM   12  C8  UNL     1       1.168  -0.642   5.222  1.00  0.00     0.005 A 
ENDBRANCH   9  10
ENDBRANCH   8   9
ENDBRANCH   1   7
TORSDOF 5
ENDMDL
MODEL 4
REMARK VINA RESULT: -5.745291483      2.867      4.875
REMARK  5 active torsions:
REMARK  status: ('A' for Active; 'I' for Inactive)
REMARK    1  A    between atoms: N1_1  and  C1_5 
REMARK    2  A    between atoms: C1_5  and  C2_6 
REMARK    3  A    between atoms: C2_6  and  C3_7 
REMARK    4  A    between atoms: C4_8  and  C5_9 
REMARK    5  A    between atoms: C5_9  and  C6_10 
ROOT
HETATM    1  C2  UNL     1      -3.955   0.980   4.696  1.00  0.00     0.054 C 
ENDROOT
BRANCH   1   2
HETATM    2  C1  UNL     1      -4.495  -0.035   3.688  1.00  0.00     0.233 C 
BRANCH   2   3
HETATM    3  N1  UNL     1      -5.926  -0.014   3.769  1.00  0.00    -0.079 N 
ATOM      4  H13 UNL     1      -6.376  -0.181   2.869  1.00  0.00     0.274 HD
ATOM      5  H12 UNL     1      -6.306  -0.823   4.263  1.00  0.00     0.274 HD
ATOM      6  H11 UNL     1      -6.202   0.872   4.191  1.00  0.00     0.274 HD
ENDBRANCH   2   3
ENDBRANCH   1   2
BRANCH   1   7
HETATM    7  C3  UNL     1      -2.491   1.081   4.650  1.00  0.00    -0.029 C 
HETATM    8  C4  UNL     1      -1.902   1.672   3.632  1.00  0.00    -0.030 C 
BRANCH   8   9
HETATM    9  C5  UNL     1      -0.411   1.806   3.527  1.00  0.00     0.031 C 
BRANCH   9  10
HETATM   10  C6  UNL     1       0.189   0.688   4.328  1.00  0.00    -0.011 A 
HETATM   11  C7  UNL     1       1.622   0.801   4.773  1.00  0.00     0.005 A 
HETATM   12  C8  UNL     1       1.184  -0.240   3.743  1.00  0.00     0.005 A 
ENDBRANCH   9  10
ENDBRANCH   8   9
ENDBRANCH   1   7
TORSDOF 5
ENDMDL
MODEL 5
REMARK VINA RESULT: -5.743997789      1.596      2.535
REMARK  5 active torsions:
REMARK  status: ('A' for Active; 'I' for Inactive)
REMARK    1  A    between atoms: N1_1  and  C1_5 
REMARK    2  A    between atoms: C1_5  and  C2_6 
REMARK    3  A    between atoms: C2_6  and  C3_7 
REMARK    4  A    between atoms: C4_8  and  C5_9 
REMARK    5  A    between atoms: C5_9  and  C6_10 
ROOT
HETATM    1  C2  UNL     1      -0.297  -1.406   6.589  1.00  0.00     0.054 C 
ENDROOT
BRANCH   1   2
HETATM    2  C1  UNL     1       0.956  -0.560   6.361  1.00  0.00     0.233 C 
BRANCH   2   3
HETATM    3  N1  UNL     1       1.885  -0.860   7.410  1.00  0.00    -0.079 N 
ATOM      4  H13 UNL     1       2.161  -0.035   7.942  1.00  0.00     0.274 HD
ATOM      5  H12 UNL     1       1.460  -1.380   8.178  1.00  0.00     0.274 HD
ATOM      6  H11 UNL     1       2.679  -1.346   6.994  1.00  0.00     0.274 HD
ENDBRANCH   2   3
ENDBRANCH   1   2
BRANCH   1   7
HETATM    7  C3  UNL     1      -1.440  -0.926   5.804  1.00  0.00    -0.029 C 
HETATM    8  C4  UNL     1      -1.564   0.355   5.532  1.00  0.00    -0.030 C 
BRANCH   8   9
HETATM    9  C5  UNL     1      -2.709   0.907   4.735  1.00  0.00     0.031 C 
BRANCH   9  10
HETATM   10  C6  UNL     1      -2.119   1.657   3.577  1.00  0.00    -0.011 A 
HETATM   11  C7  UNL     1      -1.320   0.899   2.552  1.00  0.00     0.005 A 
HETATM   12  C8  UNL     1      -0.664   1.919   3.482  1.00  0.00     0.005 A 
ENDBRANCH   9  10
ENDBRANCH   8   9
ENDBRANCH   1   7
TORSDOF 5
ENDMDL
