MODEL 1
REMARK VINA RESULT: -5.668429010      0.000      0.000
REMARK  5 active torsions:
REMARK  status: ('A' for Active; 'I' for Inactive)
REMARK    1  A    between atoms: C2_2  and  C3_3 
REMARK    2  A    between atoms: C3_3  and  N1_4 
REMARK    3  A    between atoms: N1_4  and  C4_7 
REMARK    4  A    between atoms: C4_7  and  C5_8 
REMARK    5  A    between atoms: C5_8  and  C6_9 
ROOT
HETATM    1  N1  UNL     1       1.868  -0.874   6.316  1.00  0.00    -0.072 N 
ATOM      2  H11 UNL     1       2.106  -1.584   5.624  1.00  0.00     0.277 HD
ATOM      3  H12 UNL     1       2.739  -0.344   6.294  1.00  0.00     0.277 HD
ENDROOT
BRANCH   1   4
HETATM    4  C3  UNL     1       1.624  -1.448   7.610  1.00  0.00     0.259 C 
BRANCH   4   5
HETATM    5  C2  UNL     1       1.431  -2.940   7.504  1.00  0.00    -0.010 C 
HETATM    6  C1  UNL     1       0.194  -3.444   7.365  1.00  0.00     0.008 C 
ENDBRANCH   4   5
ENDBRANCH   1   4
BRANCH   1   7
HETATM    7  C4  UNL     1       0.751  -0.084   5.906  1.00  0.00     0.233 C 
BRANCH   7   8
HETATM    8  C5  UNL     1       1.061   0.694   4.617  1.00  0.00     0.032 C 
BRANCH   8   9
HETATM    9  C6  UNL     1      -0.021   1.740   4.507  1.00  0.00    -0.013 A 
HETATM   10  C7  UNL     1      -0.774   1.731   3.181  1.00  0.00     0.005 A 
HETATM   11  C8  UNL     1      -1.455   1.393   4.461  1.00  0.00     0.005 A 
ENDBRANCH   8   9
ENDBRANCH   7   8
ENDBRANCH   1   7
TORSDOF 5
ENDMDL
MODEL 2
REMARK VINA RESULT: -5.623560487      3.102      4.188
REMARK  5 active torsions:
REMARK  status: ('A' for Active; 'I' for Inactive)
REMARK    1  A    between atoms: C2_2  and  C3_3 
REMARK    2  A    between atoms: C3_3  and  N1_4 
REMARK    3  A    between atoms: N1_4  and  C4_7 
REMARK    4  A    between atoms: C4_7  and  C5_8 
REMARK    5  A    between atoms: C5_8  and  C6_9 
ROOT
HETATM    1  N1  UNL     1      -0.474   0.945   2.570  1.00  0.00    -0.072 N 
ATOM      2  H11 UNL     1      -0.955   0.636   1.726  1.00  0.00     0.277 HD
ATOM      3  H12 UNL     1       0.371   1.316   2.135  1.00  0.00     0.277 HD
ENDROOT
BRANCH   1   4
HETATM    4  C3  UNL     1      -0.184  -0.150   3.453  1.00  0.00     0.259 C 
BRANCH   4   5
HETATM    5  C2  UNL     1       1.286  -0.193   3.785  1.00  0.00    -0.010 C 
HETATM    6  C1  UNL     1       1.768   0.578   4.773  1.00  0.00     0.008 C 
ENDBRANCH   4   5
ENDBRANCH   1   4
BRANCH   1   7
HETATM    7  C4  UNL     1      -1.207   1.957   3.261  1.00  0.00     0.233 C 
BRANCH   7   8
HETATM    8  C5  UNL     1      -2.162   1.347   4.299  1.00  0.00     0.032 C 
BRANCH   8   9
HETATM    9  C6  UNL     1      -3.514   1.307   3.631  1.00  0.00    -0.013 A 
HETATM   10  C7  UNL     1      -4.317   0.040   3.908  1.00  0.00     0.005 A 
HETATM   11  C8  UNL     1      -4.775   1.370   4.395  1.00  0.00     0.005 A 
ENDBRANCH   8   9
ENDBRANCH   7   8
ENDBRANCH   1   7
TORSDOF 5
ENDMDL
MODEL 3
REMARK VINA RESULT: -5.612588431      1.278      1.344
REMARK  5 active torsions:
REMARK  status: ('A' for Active; 'I' for Inactive)
REMARK    1  A    between atoms: C2_2  and  C3_3 
REMARK    2  A    between atoms: C3_3  and  N1_4 
REMARK    3  A    between atoms: N1_4  and  C4_7 
REMARK    4  A    between atoms: C4_7  and  C5_8 
REMARK    5  A    between atoms: C5_8  and  C6_9 
ROOT
HETATM    1  N1  UNL     1       1.678  -0.800   5.507  1.00  0.00    -0.072 N 
ATOM      2  H11 UNL     1       1.112  -1.490   5.012  1.00  0.00     0.277 HD
ATOM      3  H12 UNL     1       2.583  -1.263   5.426  1.00  0.00     0.277 HD
ENDROOT
BRANCH   1   4
HETATM    4  C3  UNL     1       1.270  -0.656   6.876  1.00  0.00     0.259 C 
BRANCH   4   5
HETATM    5  C2  UNL     1      -0.148  -1.132   7.064  1.00  0.00    -0.010 C 
HETATM    6  C1  UNL     1      -0.654  -2.061   6.236  1.00  0.00     0.008 C 
ENDBRANCH   4   5
ENDBRANCH   1   4
BRANCH   1   7
HETATM    7  C4  UNL     1       1.667   0.468   4.850  1.00  0.00     0.233 C 
BRANCH   7   8
HETATM    8  C5  UNL     1       0.590   0.521   3.755  1.00  0.00     0.032 C 
BRANCH   8   9
HETATM    9  C6  UNL     1      -0.382   1.587   4.196  1.00  0.00    -0.013 A 
HETATM   10  C7  UNL     1      -1.625   1.708   3.320  1.00  0.00     0.005 A 
HETATM   11  C8  UNL     1      -1.717   1.264   4.738  1.00  0.00     0.005 A 
ENDBRANCH   8   9
ENDBRANCH   7   8
ENDBRANCH   1   7
TORSDOF 5
ENDMDL
MODEL 4
REMARK VINA RESULT: -5.611395719      2.639      4.204
REMARK  5 active torsions:
REMARK  status: ('A' for Active; 'I' for Inactive)
REMARK    1  A    between atoms: C2_2  and  C3_3 
REMARK    2  A    between atoms: C3_3  and  N1_4 
REMARK    3  A    between atoms: N1_4  and  C4_7 
REMARK    4  A    between atoms: C4_7  and  C5_8 
REMARK    5  A    between atoms: C5_8  and  C6_9 
ROOT
HETATM    1  N1  UNL     1      -1.901   1.695   3.488  1.00  0.00    -0.072 N 
ATOM      2  H11 UNL     1      -2.417   2.564   3.347  1.00  0.00     0.277 HD
ATOM      3  H12 UNL     1      -2.179   1.215   2.633  1.00  0.00     0.277 HD
ENDROOT
BRANCH   1   4
HETATM    4  C3  UNL     1      -2.341   0.995   4.662  1.00  0.00     0.259 C 
BRANCH   4   5
HETATM    5  C2  UNL     1      -2.923  -0.346   4.296  1.00  0.00    -0.010 C 
HETATM    6  C1  UNL     1      -2.111  -1.338   3.897  1.00  0.00     0.008 C 
ENDBRANCH   4   5
ENDBRANCH   1   4
BRANCH   1   7
HETATM    7  C4  UNL     1      -0.491   1.916   3.542  1.00  0.00     0.233 C 
BRANCH   7   8
HETATM    8  C5  UNL     1       0.075   1.581   4.930  1.00  0.00     0.032 C 
BRANCH   8   9
HETATM    9  C6  UNL     1       1.372   0.854   4.674  1.00  0.00    -0.013 A 
HETATM   10  C7  UNL     1       1.447  -0.539   5.290  1.00  0.00     0.005 A 
HETATM   11  C8  UNL     1       1.450  -0.344   3.814  1.00  0.00     0.005 A 
ENDBRANCH   8   9
ENDBRANCH   7   8
ENDBRANCH   1   7
TORSDOF 5
ENDMDL
MODEL 5
REMARK VINA RESULT: -5.608591172      2.094      2.887
REMARK  5 active torsions:
REMARK  status: ('A' for Active; 'I' for Inactive)
REMARK    1  A    between atoms: C2_2  and  C3_3 
REMARK    2  A    between atoms: C3_3  and  N1_4 
REMARK    3  A    between atoms: N1_4  and  C4_7 
REMARK    4  A    between atoms: C4_7  and  C5_8 
REMARK    5  A    between atoms: C5_8  and  C6_9 
ROOT
HETATM    1  N1  UNL     1      -1.157  -1.163   6.094  1.00  0.00    -0.072 N 
ATOM      2  H11 UNL     1      -1.647  -1.448   6.942  1.00  0.00     0.277 HD
ATOM      3  H12 UNL     1      -0.786  -2.073   5.823  1.00  0.00     0.277 HD
ENDROOT
BRANCH   1   4
HETATM    4  C3  UNL     1      -0.112  -0.219   6.370  1.00  0.00     0.259 C 
BRANCH   4   5
HETATM    5  C2  UNL     1       1.161  -0.610   5.662  1.00  0.00    -0.010 C 
HETATM    6  C1  UNL     1       1.695   0.216   4.748  1.00  0.00     0.008 C 
ENDBRANCH   4   5
ENDBRANCH   1   4
BRANCH   1   7
HETATM    7  C4  UNL     1      -2.053  -0.639   5.113  1.00  0.00     0.233 C 
BRANCH   7   8
HETATM    8  C5  UNL     1      -2.085   0.897   5.149  1.00  0.00     0.032 C 
BRANCH   8   9
HETATM    9  C6  UNL     1      -2.172   1.334   3.708  1.00  0.00    -0.013 A 
HETATM   10  C7  UNL     1      -0.951   2.098   3.207  1.00  0.00     0.005 A 
HETATM   11  C8  UNL     1      -1.309   0.763   2.656  1.00  0.00     0.005 A 
ENDBRANCH   8   9
ENDBRANCH   7   8
ENDBRANCH   1   7
TORSDOF 5
ENDMDL
