MODEL 1
REMARK VINA RESULT: -6.061462291      0.000      0.000
REMARK  4 active torsions:
REMARK  status: ('A' for Active; 'I' for Inactive)
REMARK    1  A    between atoms: C2_2  and  C3_3 
REMARK    2  A    between atoms: C3_3  and  C4_4 
REMARK    3  A    between atoms: C4_4  and  C5_5 
REMARK    4  A    between atoms: C5_5  and  C6_6 
ROOT
HETATM    1  C6  UNL     1       1.101  -0.556   5.580  1.00  0.00     0.025 A 
HETATM    2  C7  UNL     1      -0.009  -1.328   5.773  1.00  0.00     0.113 A 
HETATM    3  N1  UNL     1       0.291  -2.196   6.756  1.00  0.00    -0.360 N 
ATOM      4  H1  UNL     1      -0.347  -2.904   7.121  1.00  0.00     0.166 HD
HETATM    5  C8  UNL     1       1.547  -2.003   7.190  1.00  0.00     0.180 A 
HETATM    6  N2  UNL     1       2.030  -0.987   6.452  1.00  0.00    -0.355 N 
ATOM      7  H2  UNL     1       2.969  -0.598   6.541  1.00  0.00     0.166 HD
ENDROOT
BRANCH   1   8
HETATM    8  C5  UNL     1       1.340   0.557   4.630  1.00  0.00     0.059 C 
BRANCH   8   9
HETATM    9  C4  UNL     1       0.257   1.609   4.739  1.00  0.00     0.010 C 
BRANCH   9  10
HETATM   10  C3  UNL     1      -0.451   1.637   3.389  1.00  0.00     0.026 C 
BRANCH  10  11
HETATM   11  C2  UNL     1      -1.921   1.706   3.532  1.00  0.00    -0.037 C 
HETATM   12  C1  UNL     1      -2.515   1.086   4.526  1.00  0.00     0.007 C 
ENDBRANCH  10  11
ENDBRANCH   9  10
ENDBRANCH   8   9
ENDBRANCH   1   8
TORSDOF 4
ENDMDL
MODEL 2
REMARK VINA RESULT: -5.961986450      1.363      2.180
REMARK  4 active torsions:
REMARK  status: ('A' for Active; 'I' for Inactive)
REMARK    1  A    between atoms: C2_2  and  C3_3 
REMARK    2  A    between atoms: C3_3  and  C4_4 
REMARK    3  A    between atoms: C4_4  and  C5_5 
REMARK    4  A    between atoms: C5_5  and  C6_6 
ROOT
HETATM    1  C6  UNL     1       0.357   0.943   4.756  1.00  0.00     0.025 A 
HETATM    2  C7  UNL     1       1.630   0.465   4.626  1.00  0.00     0.113 A 
HETATM    3  N1  UNL     1       1.849  -0.343   5.679  1.00  0.00    -0.360 N 
ATOM      4  H1  UNL     1       2.718  -0.847   5.854  1.00  0.00     0.166 HD
HETATM    5  C8  UNL     1       0.763  -0.393   6.468  1.00  0.00     0.180 A 
HETATM    6  N2  UNL     1      -0.146   0.406   5.882  1.00  0.00    -0.355 N 
ATOM      7  H2  UNL     1      -1.085   0.581   6.241  1.00  0.00     0.166 HD
ENDROOT
BRANCH   1   8
HETATM    8  C5  UNL     1      -0.412   1.868   3.889  1.00  0.00     0.059 C 
BRANCH   8   9
HETATM    9  C4  UNL     1      -0.769   1.213   2.572  1.00  0.00     0.010 C 
BRANCH   9  10
HETATM   10  C3  UNL     1      -2.123   0.544   2.780  1.00  0.00     0.026 C 
BRANCH  10  11
HETATM   11  C2  UNL     1      -3.088   1.438   3.457  1.00  0.00    -0.037 C 
HETATM   12  C1  UNL     1      -3.921   0.952   4.349  1.00  0.00     0.007 C 
ENDBRANCH  10  11
ENDBRANCH   9  10
ENDBRANCH   8   9
ENDBRANCH   1   8
TORSDOF 4
ENDMDL
MODEL 3
REMARK VINA RESULT: -5.961846335      0.734      1.142
REMARK  4 active torsions:
REMARK  status: ('A' for Active; 'I' for Inactive)
REMARK    1  A    between atoms: C2_2  and  C3_3 
REMARK    2  A    between atoms: C3_3  and  C4_4 
REMARK    3  A    between atoms: C4_4  and  C5_5 
REMARK    4  A    between atoms: C5_5  and  C6_6 
ROOT
HETATM    1  C6  UNL     1       0.974  -1.121   5.949  1.00  0.00     0.025 A 
HETATM    2  C7  UNL     1      -0.108  -1.801   6.431  1.00  0.00     0.113 A 
HETATM    3  N1  UNL     1       0.148  -2.069   7.724  1.00  0.00    -0.360 N 
ATOM      4  H1  UNL     1      -0.482  -2.570   8.350  1.00  0.00     0.166 HD
HETATM    5  C8  UNL     1       1.351  -1.585   8.076  1.00  0.00     0.180 A 
HETATM    6  N2  UNL     1       1.844  -1.004   6.968  1.00  0.00    -0.355 N 
ATOM      7  H2  UNL     1       2.751  -0.540   6.908  1.00  0.00     0.166 HD
ENDROOT
BRANCH   1   8
HETATM    8  C5  UNL     1       1.237  -0.577   4.595  1.00  0.00     0.059 C 
BRANCH   8   9
HETATM    9  C4  UNL     1       1.550   0.903   4.652  1.00  0.00     0.010 C 
BRANCH   9  10
HETATM   10  C3  UNL     1       0.212   1.617   4.809  1.00  0.00     0.026 C 
BRANCH  10  11
HETATM   11  C2  UNL     1      -0.533   1.691   3.534  1.00  0.00    -0.037 C 
HETATM   12  C1  UNL     1      -1.847   1.677   3.538  1.00  0.00     0.007 C 
ENDBRANCH  10  11
ENDBRANCH   9  10
ENDBRANCH   8   9
ENDBRANCH   1   8
TORSDOF 4
ENDMDL
MODEL 4
REMARK VINA RESULT: -5.946051398      1.218      2.163
REMARK  4 active torsions:
REMARK  status: ('A' for Active; 'I' for Inactive)
REMARK    1  A    between atoms: C2_2  and  C3_3 
REMARK    2  A    between atoms: C3_3  and  C4_4 
REMARK    3  A    between atoms: C4_4  and  C5_5 
REMARK    4  A    between atoms: C5_5  and  C6_6 
ROOT
HETATM    1  C6  UNL     1       0.484   0.173   4.110  1.00  0.00     0.025 A 
HETATM    2  C7  UNL     1       1.699   0.480   4.654  1.00  0.00     0.113 A 
HETATM    3  N1  UNL     1       1.866  -0.334   5.710  1.00  0.00    -0.360 N 
ATOM      4  H1  UNL     1       2.686  -0.337   6.318  1.00  0.00     0.166 HD
HETATM    5  C8  UNL     1       0.803  -1.143   5.856  1.00  0.00     0.180 A 
HETATM    6  N2  UNL     1      -0.037  -0.815   4.859  1.00  0.00    -0.355 N 
ATOM      7  H2  UNL     1      -0.944  -1.253   4.694  1.00  0.00     0.166 HD
ENDROOT
BRANCH   1   8
HETATM    8  C5  UNL     1      -0.212   0.749   2.934  1.00  0.00     0.059 C 
BRANCH   8   9
HETATM    9  C4  UNL     1      -1.014   1.974   3.320  1.00  0.00     0.010 C 
BRANCH   9  10
HETATM   10  C3  UNL     1      -2.480   1.606   3.124  1.00  0.00     0.026 C 
BRANCH  10  11
HETATM   11  C2  UNL     1      -3.105   1.123   4.374  1.00  0.00    -0.037 C 
HETATM   12  C1  UNL     1      -4.387   0.836   4.401  1.00  0.00     0.007 C 
ENDBRANCH  10  11
ENDBRANCH   9  10
ENDBRANCH   8   9
ENDBRANCH   1   8
TORSDOF 4
ENDMDL
MODEL 5
REMARK VINA RESULT: -5.888137376      0.895      1.203
REMARK  4 active torsions:
REMARK  status: ('A' for Active; 'I' for Inactive)
REMARK    1  A    between atoms: C2_2  and  C3_3 
REMARK    2  A    between atoms: C3_3  and  C4_4 
REMARK    3  A    between atoms: C4_4  and  C5_5 
REMARK    4  A    between atoms: C5_5  and  C6_6 
ROOT
HETATM    1  C6  UNL     1       0.809  -0.513   5.798  1.00  0.00     0.025 A 
HETATM    2  C7  UNL     1       1.287  -0.762   7.053  1.00  0.00     0.113 A 
HETATM    3  N1  UNL     1       0.566  -1.785   7.544  1.00  0.00    -0.360 N 
ATOM      4  H1  UNL     1       0.695  -2.196   8.469  1.00  0.00     0.166 HD
HETATM    5  C8  UNL     1      -0.349  -2.191   6.648  1.00  0.00     0.180 A 
HETATM    6  N2  UNL     1      -0.182  -1.394   5.578  1.00  0.00    -0.355 N 
ATOM      7  H2  UNL     1      -0.732  -1.449   4.720  1.00  0.00     0.166 HD
ENDROOT
BRANCH   1   8
HETATM    8  C5  UNL     1       1.228   0.499   4.798  1.00  0.00     0.059 C 
BRANCH   8   9
HETATM    9  C4  UNL     1       0.245   1.648   4.739  1.00  0.00     0.010 C 
BRANCH   9  10
HETATM   10  C3  UNL     1      -0.500   1.508   3.416  1.00  0.00     0.026 C 
BRANCH  10  11
HETATM   11  C2  UNL     1      -1.957   1.709   3.573  1.00  0.00    -0.037 C 
HETATM   12  C1  UNL     1      -2.613   1.062   4.509  1.00  0.00     0.007 C 
ENDBRANCH  10  11
ENDBRANCH   9  10
ENDBRANCH   8   9
ENDBRANCH   1   8
TORSDOF 4
ENDMDL
