MODEL 1
REMARK VINA RESULT: -6.650865865      0.000      0.000
REMARK  11 active torsions:
REMARK  status: ('A' for Active; 'I' for Inactive)
REMARK    1  A    between atoms: N1_1  and  C1_4 
REMARK    2  A    between atoms: C2_9  and  C3_10 
REMARK    3  A    between atoms: C3_10  and  N4_11 
REMARK    4  A    between atoms: N4_11  and  C4_12 
REMARK    5  A    between atoms: N4_11  and  C6_16 
REMARK    6  A    between atoms: C4_12  and  C5_13 
REMARK    7  A    between atoms: C5_13  and  O1_14 
REMARK    8  A    between atoms: C6_16  and  C7_17 
REMARK    9  A    between atoms: C7_17  and  O2_18 
REMARK   10  A    between atoms: C8_20  and  N5_21 
REMARK   11  A    between atoms: N5_21  and  N6_23 
ROOT
HETATM    1  C1  UNL     1      20.709   7.455  30.863  1.00  0.00     0.692 A 
HETATM    2  N2  UNL     1      21.377   8.486  30.460  1.00  0.00    -0.132 N 
ATOM      3  H2  UNL     1      22.367   8.583  30.686  1.00  0.00     0.205 HD
HETATM    4  N3  UNL     1      20.735   9.443  29.728  1.00  0.00    -0.281 N 
ATOM      5  H3  UNL     1      21.283  10.251  29.431  1.00  0.00     0.187 HD
HETATM    6  C2  UNL     1      19.502   9.412  29.383  1.00  0.00     0.109 A 
HETATM    7  C8  UNL     1      18.768   8.224  29.824  1.00  0.00     0.164 A 
HETATM    8  N7  UNL     1      19.409   7.332  30.531  1.00  0.00    -0.172 N 
ATOM      9  H7  UNL     1      18.903   6.505  30.847  1.00  0.00     0.186 HD
ENDROOT
BRANCH   6  10
HETATM   10  C3  UNL     1      18.714  10.136  28.380  1.00  0.00     0.120 C 
BRANCH  10  11
HETATM   11  N4  UNL     1      18.284  11.425  28.598  1.00  0.00    -0.384 N 
BRANCH  11  12
HETATM   12  C4  UNL     1      19.188  12.473  28.303  1.00  0.00     0.148 C 
BRANCH  12  13
HETATM   13  C5  UNL     1      18.775  13.811  28.803  1.00  0.00     0.183 C 
BRANCH  13  14
HETATM   14  O1  UNL     1      18.528  13.807  30.188  1.00  0.00    -0.399 OA
ATOM     15  H1  UNL     1      17.678  14.172  30.402  1.00  0.00     0.209 HD
ENDBRANCH  13  14
ENDBRANCH  12  13
ENDBRANCH  11  12
BRANCH  11  16
HETATM   16  C6  UNL     1      16.947  11.660  28.197  1.00  0.00     0.148 C 
BRANCH  16  17
HETATM   17  C7  UNL     1      15.920  11.520  29.313  1.00  0.00     0.183 C 
BRANCH  17  18
HETATM   18  O2  UNL     1      16.541  11.294  30.544  1.00  0.00    -0.399 OA
ATOM     19  H2  UNL     1      15.969  11.533  31.264  1.00  0.00     0.209 HD
ENDBRANCH  17  18
ENDBRANCH  16  17
ENDBRANCH  11  16
ENDBRANCH  10  11
ENDBRANCH   6  10
BRANCH   7  20
HETATM   20  N5  UNL     1      17.491   8.246  29.673  1.00  0.00    -0.290 N 
ATOM     21  H5  UNL     1      16.980   8.256  28.791  1.00  0.00     0.188 HD
BRANCH  20  22
HETATM   22  N6  UNL     1      16.901   8.254  31.048  1.00  0.00    -0.344 N 
ATOM     23  H62 UNL     1      17.146   8.896  31.802  1.00  0.00     0.176 HD
ATOM     24  H61 UNL     1      16.216   7.499  31.075  1.00  0.00     0.176 HD
ENDBRANCH  20  22
ENDBRANCH   7  20
BRANCH   1  25
HETATM   25  N1  UNL     1      21.200   6.447  31.516  1.00  0.00    -0.233 N 
ATOM     26  H12 UNL     1      20.868   6.359  32.477  1.00  0.00     0.174 HD
ATOM     27  H11 UNL     1      21.819   5.735  31.129  1.00  0.00     0.174 HD
ENDBRANCH   1  25
TORSDOF 11
ENDMDL
MODEL 2
REMARK VINA RESULT: -6.604338651      1.628      1.694
REMARK  11 active torsions:
REMARK  status: ('A' for Active; 'I' for Inactive)
REMARK    1  A    between atoms: N1_1  and  C1_4 
REMARK    2  A    between atoms: C2_9  and  C3_10 
REMARK    3  A    between atoms: C3_10  and  N4_11 
REMARK    4  A    between atoms: N4_11  and  C4_12 
REMARK    5  A    between atoms: N4_11  and  C6_16 
REMARK    6  A    between atoms: C4_12  and  C5_13 
REMARK    7  A    between atoms: C5_13  and  O1_14 
REMARK    8  A    between atoms: C6_16  and  C7_17 
REMARK    9  A    between atoms: C7_17  and  O2_18 
REMARK   10  A    between atoms: C8_20  and  N5_21 
REMARK   11  A    between atoms: N5_21  and  N6_23 
ROOT
HETATM    1  C1  UNL     1      20.709   7.859  30.742  1.00  0.00     0.692 A 
HETATM    2  N2  UNL     1      21.168   8.919  30.160  1.00  0.00    -0.132 N 
ATOM      3  H2  UNL     1      22.141   9.199  30.285  1.00  0.00     0.205 HD
HETATM    4  N3  UNL     1      20.327   9.657  29.376  1.00  0.00    -0.281 N 
ATOM      5  H3  UNL     1      20.712  10.493  28.937  1.00  0.00     0.187 HD
HETATM    6  C2  UNL     1      19.096   9.388  29.148  1.00  0.00     0.109 A 
HETATM    7  C8  UNL     1      18.602   8.169  29.792  1.00  0.00     0.164 A 
HETATM    8  N7  UNL     1      19.428   7.492  30.543  1.00  0.00    -0.172 N 
ATOM      9  H7  UNL     1      19.089   6.645  31.000  1.00  0.00     0.186 HD
ENDROOT
BRANCH   6  10
HETATM   10  C3  UNL     1      18.133   9.839  28.138  1.00  0.00     0.120 C 
BRANCH  10  11
HETATM   11  N4  UNL     1      17.435  11.014  28.286  1.00  0.00    -0.384 N 
BRANCH  11  12
HETATM   12  C4  UNL     1      17.955  12.167  27.651  1.00  0.00     0.148 C 
BRANCH  12  13
HETATM   13  C5  UNL     1      17.016  12.840  26.715  1.00  0.00     0.183 C 
BRANCH  13  14
HETATM   14  O1  UNL     1      17.222  12.444  25.381  1.00  0.00    -0.399 OA
ATOM     15  H1  UNL     1      17.704  13.094  24.884  1.00  0.00     0.209 HD
ENDBRANCH  13  14
ENDBRANCH  12  13
ENDBRANCH  11  12
BRANCH  11  16
HETATM   16  C6  UNL     1      16.031  10.863  28.192  1.00  0.00     0.148 C 
BRANCH  16  17
HETATM   17  C7  UNL     1      15.289  11.017  29.514  1.00  0.00     0.183 C 
BRANCH  17  18
HETATM   18  O2  UNL     1      14.586   9.853  29.835  1.00  0.00    -0.399 OA
ATOM     19  H2  UNL     1      15.162   9.199  30.214  1.00  0.00     0.209 HD
ENDBRANCH  17  18
ENDBRANCH  16  17
ENDBRANCH  11  16
ENDBRANCH  10  11
ENDBRANCH   6  10
BRANCH   7  20
HETATM   20  N5  UNL     1      17.331   7.971  29.753  1.00  0.00    -0.290 N 
ATOM     21  H5  UNL     1      16.775   7.737  28.931  1.00  0.00     0.188 HD
BRANCH  20  22
HETATM   22  N6  UNL     1      16.829   8.151  31.151  1.00  0.00    -0.344 N 
ATOM     23  H62 UNL     1      16.032   7.672  31.568  1.00  0.00     0.176 HD
ATOM     24  H61 UNL     1      17.439   8.840  31.591  1.00  0.00     0.176 HD
ENDBRANCH  20  22
ENDBRANCH   7  20
BRANCH   1  25
HETATM   25  N1  UNL     1      21.403   7.037  31.467  1.00  0.00    -0.233 N 
ATOM     26  H12 UNL     1      22.172   7.467  31.982  1.00  0.00     0.174 HD
ATOM     27  H11 UNL     1      21.200   6.046  31.598  1.00  0.00     0.174 HD
ENDBRANCH   1  25
TORSDOF 11
ENDMDL
MODEL 3
REMARK VINA RESULT: -6.483364633      1.527      2.401
REMARK  11 active torsions:
REMARK  status: ('A' for Active; 'I' for Inactive)
REMARK    1  A    between atoms: N1_1  and  C1_4 
REMARK    2  A    between atoms: C2_9  and  C3_10 
REMARK    3  A    between atoms: C3_10  and  N4_11 
REMARK    4  A    between atoms: N4_11  and  C4_12 
REMARK    5  A    between atoms: N4_11  and  C6_16 
REMARK    6  A    between atoms: C4_12  and  C5_13 
REMARK    7  A    between atoms: C5_13  and  O1_14 
REMARK    8  A    between atoms: C6_16  and  C7_17 
REMARK    9  A    between atoms: C7_17  and  O2_18 
REMARK   10  A    between atoms: C8_20  and  N5_21 
REMARK   11  A    between atoms: N5_21  and  N6_23 
ROOT
HETATM    1  C1  UNL     1      20.677   7.882  30.740  1.00  0.00     0.692 A 
HETATM    2  N2  UNL     1      21.123   8.955  30.172  1.00  0.00    -0.132 N 
ATOM      3  H2  UNL     1      22.094   9.241  30.294  1.00  0.00     0.205 HD
HETATM    4  N3  UNL     1      20.270   9.699  29.408  1.00  0.00    -0.281 N 
ATOM      5  H3  UNL     1      20.645  10.546  28.979  1.00  0.00     0.187 HD
HETATM    6  C2  UNL     1      19.040   9.424  29.185  1.00  0.00     0.109 A 
HETATM    7  C8  UNL     1      18.560   8.191  29.812  1.00  0.00     0.164 A 
HETATM    8  N7  UNL     1      19.398   7.507  30.545  1.00  0.00    -0.172 N 
ATOM      9  H7  UNL     1      19.069   6.651  30.990  1.00  0.00     0.186 HD
ENDROOT
BRANCH   6  10
HETATM   10  C3  UNL     1      18.065   9.884  28.190  1.00  0.00     0.120 C 
BRANCH  10  11
HETATM   11  N4  UNL     1      17.470  11.121  28.286  1.00  0.00    -0.384 N 
BRANCH  11  12
HETATM   12  C4  UNL     1      16.735  11.402  29.461  1.00  0.00     0.148 C 
BRANCH  12  13
HETATM   13  C5  UNL     1      15.260  11.273  29.320  1.00  0.00     0.183 C 
BRANCH  13  14
HETATM   14  O1  UNL     1      14.768  10.110  29.938  1.00  0.00    -0.399 OA
ATOM     15  H1  UNL     1      14.736  10.193  30.884  1.00  0.00     0.209 HD
ENDBRANCH  13  14
ENDBRANCH  12  13
ENDBRANCH  11  12
BRANCH  11  16
HETATM   16  C6  UNL     1      18.278  12.184  27.818  1.00  0.00     0.148 C 
BRANCH  16  17
HETATM   17  C7  UNL     1      17.604  13.085  26.790  1.00  0.00     0.183 C 
BRANCH  17  18
HETATM   18  O2  UNL     1      17.228  12.361  25.656  1.00  0.00    -0.399 OA
ATOM     19  H2  UNL     1      16.507  11.773  25.849  1.00  0.00     0.209 HD
ENDBRANCH  17  18
ENDBRANCH  16  17
ENDBRANCH  11  16
ENDBRANCH  10  11
ENDBRANCH   6  10
BRANCH   7  20
HETATM   20  N5  UNL     1      17.291   7.983  29.779  1.00  0.00    -0.290 N 
ATOM     21  H5  UNL     1      16.733   7.738  28.961  1.00  0.00     0.188 HD
BRANCH  20  22
HETATM   22  N6  UNL     1      16.793   8.170  31.178  1.00  0.00    -0.344 N 
ATOM     23  H62 UNL     1      16.160   7.546  31.678  1.00  0.00     0.176 HD
ATOM     24  H61 UNL     1      17.211   9.035  31.521  1.00  0.00     0.176 HD
ENDBRANCH  20  22
ENDBRANCH   7  20
BRANCH   1  25
HETATM   25  N1  UNL     1      21.384   7.053  31.445  1.00  0.00    -0.233 N 
ATOM     26  H12 UNL     1      22.267   6.775  31.018  1.00  0.00     0.174 HD
ATOM     27  H11 UNL     1      21.152   6.726  32.383  1.00  0.00     0.174 HD
ENDBRANCH   1  25
TORSDOF 11
ENDMDL
MODEL 4
REMARK VINA RESULT: -6.390386068      0.647      2.208
REMARK  11 active torsions:
REMARK  status: ('A' for Active; 'I' for Inactive)
REMARK    1  A    between atoms: N1_1  and  C1_4 
REMARK    2  A    between atoms: C2_9  and  C3_10 
REMARK    3  A    between atoms: C3_10  and  N4_11 
REMARK    4  A    between atoms: N4_11  and  C4_12 
REMARK    5  A    between atoms: N4_11  and  C6_16 
REMARK    6  A    between atoms: C4_12  and  C5_13 
REMARK    7  A    between atoms: C5_13  and  O1_14 
REMARK    8  A    between atoms: C6_16  and  C7_17 
REMARK    9  A    between atoms: C7_17  and  O2_18 
REMARK   10  A    between atoms: C8_20  and  N5_21 
REMARK   11  A    between atoms: N5_21  and  N6_23 
ROOT
HETATM    1  C1  UNL     1      20.737   7.561  30.797  1.00  0.00     0.692 A 
HETATM    2  N2  UNL     1      21.318   8.636  30.374  1.00  0.00    -0.132 N 
ATOM      3  H2  UNL     1      22.304   8.804  30.571  1.00  0.00     0.205 HD
HETATM    4  N3  UNL     1      20.588   9.543  29.660  1.00  0.00    -0.281 N 
ATOM      5  H3  UNL     1      21.068  10.387  29.346  1.00  0.00     0.187 HD
HETATM    6  C2  UNL     1      19.351   9.423  29.351  1.00  0.00     0.109 A 
HETATM    7  C8  UNL     1      18.717   8.187  29.814  1.00  0.00     0.164 A 
HETATM    8  N7  UNL     1      19.440   7.346  30.504  1.00  0.00    -0.172 N 
ATOM      9  H7  UNL     1      19.003   6.485  30.835  1.00  0.00     0.186 HD
ENDROOT
BRANCH   6  10
HETATM   10  C3  UNL     1      18.484  10.086  28.371  1.00  0.00     0.120 C 
BRANCH  10  11
HETATM   11  N4  UNL     1      18.057  11.381  28.550  1.00  0.00    -0.384 N 
BRANCH  11  12
HETATM   12  C4  UNL     1      16.968  11.594  29.427  1.00  0.00     0.148 C 
BRANCH  12  13
HETATM   13  C5  UNL     1      15.647  11.164  28.897  1.00  0.00     0.183 C 
BRANCH  13  14
HETATM   14  O1  UNL     1      15.089  10.116  29.650  1.00  0.00    -0.399 OA
ATOM     15  H1  UNL     1      15.711   9.416  29.806  1.00  0.00     0.209 HD
ENDBRANCH  13  14
ENDBRANCH  12  13
ENDBRANCH  11  12
BRANCH  11  16
HETATM   16  C6  UNL     1      19.108  12.322  28.663  1.00  0.00     0.148 C 
BRANCH  16  17
HETATM   17  C7  UNL     1      18.649  13.761  28.865  1.00  0.00     0.183 C 
BRANCH  17  18
HETATM   18  O2  UNL     1      19.034  14.241  30.119  1.00  0.00    -0.399 OA
ATOM     19  H2  UNL     1      18.358  14.792  30.496  1.00  0.00     0.209 HD
ENDBRANCH  17  18
ENDBRANCH  16  17
ENDBRANCH  11  16
ENDBRANCH  10  11
ENDBRANCH   6  10
BRANCH   7  20
HETATM   20  N5  UNL     1      17.437   8.118  29.701  1.00  0.00    -0.290 N 
ATOM     21  H5  UNL     1      16.905   8.027  28.836  1.00  0.00     0.188 HD
BRANCH  20  22
HETATM   22  N6  UNL     1      16.883   8.195  31.088  1.00  0.00    -0.344 N 
ATOM     23  H62 UNL     1      16.602   7.403  31.667  1.00  0.00     0.176 HD
ATOM     24  H61 UNL     1      16.843   9.185  31.330  1.00  0.00     0.176 HD
ENDBRANCH  20  22
ENDBRANCH   7  20
BRANCH   1  25
HETATM   25  N1  UNL     1      21.317   6.593  31.437  1.00  0.00    -0.233 N 
ATOM     26  H12 UNL     1      21.413   5.728  30.905  1.00  0.00     0.174 HD
ATOM     27  H11 UNL     1      21.719   6.658  32.372  1.00  0.00     0.174 HD
ENDBRANCH   1  25
TORSDOF 11
ENDMDL
MODEL 5
REMARK VINA RESULT: -6.332826144      2.231      2.823
REMARK  11 active torsions:
REMARK  status: ('A' for Active; 'I' for Inactive)
REMARK    1  A    between atoms: N1_1  and  C1_4 
REMARK    2  A    between atoms: C2_9  and  C3_10 
REMARK    3  A    between atoms: C3_10  and  N4_11 
REMARK    4  A    between atoms: N4_11  and  C4_12 
REMARK    5  A    between atoms: N4_11  and  C6_16 
REMARK    6  A    between atoms: C4_12  and  C5_13 
REMARK    7  A    between atoms: C5_13  and  O1_14 
REMARK    8  A    between atoms: C6_16  and  C7_17 
REMARK    9  A    between atoms: C7_17  and  O2_18 
REMARK   10  A    between atoms: C8_20  and  N5_21 
REMARK   11  A    between atoms: N5_21  and  N6_23 
ROOT
HETATM    1  C1  UNL     1      19.917   7.933  30.869  1.00  0.00     0.692 A 
HETATM    2  N2  UNL     1      19.021   8.257  31.744  1.00  0.00    -0.132 N 
ATOM      3  H2  UNL     1      19.245   8.256  32.739  1.00  0.00     0.205 HD
HETATM    4  N3  UNL     1      17.772   8.601  31.313  1.00  0.00    -0.281 N 
ATOM      5  H3  UNL     1      17.082   8.843  32.024  1.00  0.00     0.187 HD
HETATM    6  C2  UNL     1      17.394   8.643  30.090  1.00  0.00     0.109 A 
HETATM    7  C8  UNL     1      18.428   8.300  29.112  1.00  0.00     0.164 A 
HETATM    8  N7  UNL     1      19.610   7.966  29.558  1.00  0.00    -0.172 N 
ATOM      9  H7  UNL     1      20.333   7.720  28.882  1.00  0.00     0.186 HD
ENDROOT
BRANCH   6  10
HETATM   10  C3  UNL     1      16.251   9.258  29.406  1.00  0.00     0.120 C 
BRANCH  10  11
HETATM   11  N4  UNL     1      16.103  10.624  29.341  1.00  0.00    -0.384 N 
BRANCH  11  12
HETATM   12  C4  UNL     1      17.264  11.396  29.102  1.00  0.00     0.148 C 
BRANCH  12  13
HETATM   13  C5  UNL     1      17.349  11.989  27.741  1.00  0.00     0.183 C 
BRANCH  13  14
HETATM   14  O1  UNL     1      17.844  11.074  26.794  1.00  0.00    -0.399 OA
ATOM     15  H1  UNL     1      18.631  10.635  27.096  1.00  0.00     0.209 HD
ENDBRANCH  13  14
ENDBRANCH  12  13
ENDBRANCH  11  12
BRANCH  11  16
HETATM   16  C6  UNL     1      14.951  11.043  28.634  1.00  0.00     0.148 C 
BRANCH  16  17
HETATM   17  C7  UNL     1      14.247   9.936  27.859  1.00  0.00     0.183 C 
BRANCH  17  18
HETATM   18  O2  UNL     1      13.421  10.465  26.865  1.00  0.00    -0.399 OA
ATOM     19  H2  UNL     1      13.714  10.201  26.000  1.00  0.00     0.209 HD
ENDBRANCH  17  18
ENDBRANCH  16  17
ENDBRANCH  11  16
ENDBRANCH  10  11
ENDBRANCH   6  10
BRANCH   7  20
HETATM   20  N5  UNL     1      18.041   8.137  27.896  1.00  0.00    -0.290 N 
ATOM     21  H5  UNL     1      17.116   7.841  27.584  1.00  0.00     0.188 HD
BRANCH  20  22
HETATM   22  N6  UNL     1      19.214   8.466  27.028  1.00  0.00    -0.344 N 
ATOM     23  H62 UNL     1      19.568   7.900  26.257  1.00  0.00     0.176 HD
ATOM     24  H61 UNL     1      19.581   9.357  27.362  1.00  0.00     0.176 HD
ENDBRANCH  20  22
ENDBRANCH   7  20
BRANCH   1  25
HETATM   25  N1  UNL     1      21.153   7.639  31.129  1.00  0.00    -0.233 N 
ATOM     26  H12 UNL     1      21.281   6.950  31.871  1.00  0.00     0.174 HD
ATOM     27  H11 UNL     1      21.965   7.990  30.621  1.00  0.00     0.174 HD
ENDBRANCH   1  25
TORSDOF 11
ENDMDL
