MODEL 1
REMARK VINA RESULT: -6.946162695      0.000      0.000
REMARK  9 active torsions:
REMARK  status: ('A' for Active; 'I' for Inactive)
REMARK    1  A    between atoms: N1_1  and  C1_4 
REMARK    2  A    between atoms: C2_7  and  N3_8 
REMARK    3  A    between atoms: N5_15  and  N6_16 
REMARK    4  A    between atoms: N6_16  and  C5_18 
REMARK    5  A    between atoms: C5_18  and  C6_19 
REMARK    6  A    between atoms: C6_19  and  N7_20 
REMARK    7  A    between atoms: N7_20  and  C7_22 
REMARK    8  A    between atoms: C7_22  and  C8_23 
REMARK    9  A    between atoms: C8_23  and  O1_24 
ROOT
HETATM    1  C1  UNL     1      14.545   9.941  28.334  1.00  0.00     0.679 A 
HETATM    2  N2  UNL     1      13.955  10.623  27.355  1.00  0.00    -0.175 N 
ATOM      3  H2  UNL     1      12.977  10.437  27.132  1.00  0.00     0.186 HD
HETATM    4  C2  UNL     1      14.627  11.552  26.655  1.00  0.00     0.145 A 
HETATM    5  C3  UNL     1      15.953  11.792  26.968  1.00  0.00     0.124 A 
HETATM    6  N4  UNL     1      16.856  12.631  26.475  1.00  0.00    -0.345 N 
ATOM      7  H4  UNL     1      16.704  13.292  25.713  1.00  0.00     0.167 HD
HETATM    8  C4  UNL     1      17.995  12.463  27.147  1.00  0.00     0.209 A 
HETATM    9  N5  UNL     1      17.875  11.501  28.115  1.00  0.00    -0.233 N 
HETATM   10  C9  UNL     1      16.601  11.091  27.993  1.00  0.00     0.174 A 
HETATM   11  N8  UNL     1      15.840  10.177  28.640  1.00  0.00    -0.173 N 
ATOM     12  H8  UNL     1      16.266   9.640  29.394  1.00  0.00     0.186 HD
ENDROOT
BRANCH   9  13
HETATM   13  N6  UNL     1      18.851  11.100  28.995  1.00  0.00    -0.305 N 
ATOM     14  H6  UNL     1      19.062  11.801  29.705  1.00  0.00     0.186 HD
BRANCH  13  15
HETATM   15  C5  UNL     1      19.620   9.928  29.126  1.00  0.00     0.100 C 
BRANCH  15  16
HETATM   16  C6  UNL     1      21.025  10.132  29.707  1.00  0.00     0.160 C 
BRANCH  16  17
HETATM   17  N7  UNL     1      21.412   8.983  30.462  1.00  0.00    -0.415 N 
ATOM     18  H7  UNL     1      22.275   8.958  31.003  1.00  0.00     0.153 HD
BRANCH  17  19
HETATM   19  C7  UNL     1      20.518   7.872  30.414  1.00  0.00     0.140 C 
BRANCH  19  20
HETATM   20  C8  UNL     1      20.535   6.925  31.557  1.00  0.00     0.183 C 
BRANCH  20  21
HETATM   21  O1  UNL     1      21.135   5.711  31.259  1.00  0.00    -0.399 OA
ATOM     22  H1  UNL     1      21.173   5.116  31.999  1.00  0.00     0.209 HD
ENDBRANCH  20  21
ENDBRANCH  19  20
ENDBRANCH  17  19
ENDBRANCH  16  17
ENDBRANCH  15  16
ENDBRANCH  13  15
ENDBRANCH   9  13
BRANCH   4  23
HETATM   23  N3  UNL     1      14.121  12.234  25.698  1.00  0.00    -0.383 N 
ATOM     24  H32 UNL     1      13.143  12.511  25.790  1.00  0.00     0.157 HD
ATOM     25  H31 UNL     1      14.636  12.519  24.864  1.00  0.00     0.157 HD
ENDBRANCH   4  23
BRANCH   1  26
HETATM   26  N1  UNL     1      13.891   9.043  29.037  1.00  0.00    -0.234 N 
ATOM     27  H12 UNL     1      13.607   9.284  29.987  1.00  0.00     0.174 HD
ATOM     28  H11 UNL     1      13.655   8.130  28.648  1.00  0.00     0.174 HD
ENDBRANCH   1  26
TORSDOF 9
ENDMDL
MODEL 2
REMARK VINA RESULT: -6.847754953      1.936      3.324
REMARK  9 active torsions:
REMARK  status: ('A' for Active; 'I' for Inactive)
REMARK    1  A    between atoms: N1_1  and  C1_4 
REMARK    2  A    between atoms: C2_7  and  N3_8 
REMARK    3  A    between atoms: N5_15  and  N6_16 
REMARK    4  A    between atoms: N6_16  and  C5_18 
REMARK    5  A    between atoms: C5_18  and  C6_19 
REMARK    6  A    between atoms: C6_19  and  N7_20 
REMARK    7  A    between atoms: N7_20  and  C7_22 
REMARK    8  A    between atoms: C7_22  and  C8_23 
REMARK    9  A    between atoms: C8_23  and  O1_24 
ROOT
HETATM    1  C1  UNL     1      17.177  12.754  28.443  1.00  0.00     0.679 A 
HETATM    2  N2  UNL     1      16.431  12.921  27.353  1.00  0.00    -0.175 N 
ATOM      3  H2  UNL     1      16.615  13.710  26.734  1.00  0.00     0.186 HD
HETATM    4  C2  UNL     1      15.439  12.066  27.056  1.00  0.00     0.145 A 
HETATM    5  C3  UNL     1      15.200  11.000  27.906  1.00  0.00     0.124 A 
HETATM    6  N4  UNL     1      14.319  10.007  27.878  1.00  0.00    -0.345 N 
ATOM      7  H4  UNL     1      13.609   9.858  27.161  1.00  0.00     0.167 HD
HETATM    8  C4  UNL     1      14.523   9.237  28.947  1.00  0.00     0.209 A 
HETATM    9  N5  UNL     1      15.556   9.702  29.717  1.00  0.00    -0.233 N 
HETATM   10  C9  UNL     1      15.968  10.799  29.059  1.00  0.00     0.174 A 
HETATM   11  N8  UNL     1      16.944  11.713  29.272  1.00  0.00    -0.173 N 
ATOM     12  H8  UNL     1      17.531  11.610  30.100  1.00  0.00     0.186 HD
ENDROOT
BRANCH   9  13
HETATM   13  N6  UNL     1      16.037   9.132  30.871  1.00  0.00    -0.305 N 
ATOM     14  H6  UNL     1      15.333   9.061  31.607  1.00  0.00     0.186 HD
BRANCH  13  15
HETATM   15  C5  UNL     1      17.293   8.624  31.255  1.00  0.00     0.100 C 
BRANCH  15  16
HETATM   16  C6  UNL     1      18.278   8.386  30.103  1.00  0.00     0.160 C 
BRANCH  16  17
HETATM   17  N7  UNL     1      19.292   7.467  30.512  1.00  0.00    -0.415 N 
ATOM     18  H7  UNL     1      19.071   6.518  30.812  1.00  0.00     0.153 HD
BRANCH  17  19
HETATM   19  C7  UNL     1      20.632   7.954  30.475  1.00  0.00     0.140 C 
BRANCH  19  20
HETATM   20  C8  UNL     1      20.882   9.231  29.762  1.00  0.00     0.183 C 
BRANCH  20  21
HETATM   21  O1  UNL     1      22.091   9.822  30.096  1.00  0.00    -0.399 OA
ATOM     22  H1  UNL     1      22.844   9.272  29.915  1.00  0.00     0.209 HD
ENDBRANCH  20  21
ENDBRANCH  19  20
ENDBRANCH  17  19
ENDBRANCH  16  17
ENDBRANCH  15  16
ENDBRANCH  13  15
ENDBRANCH   9  13
BRANCH   4  23
HETATM   23  N3  UNL     1      14.681  12.174  26.030  1.00  0.00    -0.383 N 
ATOM     24  H32 UNL     1      13.747  12.556  26.180  1.00  0.00     0.157 HD
ATOM     25  H31 UNL     1      14.958  11.911  25.084  1.00  0.00     0.157 HD
ENDBRANCH   4  23
BRANCH   1  26
HETATM   26  N1  UNL     1      18.162  13.574  28.733  1.00  0.00    -0.234 N 
ATOM     27  H12 UNL     1      17.990  14.578  28.675  1.00  0.00     0.174 HD
ATOM     28  H11 UNL     1      19.077  13.228  29.024  1.00  0.00     0.174 HD
ENDBRANCH   1  26
TORSDOF 9
ENDMDL
MODEL 3
REMARK VINA RESULT: -6.685931372      3.802      6.831
REMARK  9 active torsions:
REMARK  status: ('A' for Active; 'I' for Inactive)
REMARK    1  A    between atoms: N1_1  and  C1_4 
REMARK    2  A    between atoms: C2_7  and  N3_8 
REMARK    3  A    between atoms: N5_15  and  N6_16 
REMARK    4  A    between atoms: N6_16  and  C5_18 
REMARK    5  A    between atoms: C5_18  and  C6_19 
REMARK    6  A    between atoms: C6_19  and  N7_20 
REMARK    7  A    between atoms: N7_20  and  C7_22 
REMARK    8  A    between atoms: C7_22  and  C8_23 
REMARK    9  A    between atoms: C8_23  and  O1_24 
ROOT
HETATM    1  C1  UNL     1      18.556   8.558  27.935  1.00  0.00     0.679 A 
HETATM    2  N2  UNL     1      19.239   8.373  29.063  1.00  0.00    -0.175 N 
ATOM      3  H2  UNL     1      20.193   8.015  29.020  1.00  0.00     0.186 HD
HETATM    4  C2  UNL     1      18.690   8.651  30.257  1.00  0.00     0.145 A 
HETATM    5  C3  UNL     1      17.395   9.135  30.299  1.00  0.00     0.124 A 
HETATM    6  N4  UNL     1      16.603   9.500  31.301  1.00  0.00    -0.345 N 
ATOM      7  H4  UNL     1      16.844   9.476  32.292  1.00  0.00     0.167 HD
HETATM    8  C4  UNL     1      15.440   9.903  30.790  1.00  0.00     0.209 A 
HETATM    9  N5  UNL     1      15.432   9.819  29.422  1.00  0.00    -0.233 N 
HETATM   10  C9  UNL     1      16.653   9.340  29.130  1.00  0.00     0.174 A 
HETATM   11  N8  UNL     1      17.291   9.031  27.977  1.00  0.00    -0.173 N 
ATOM     12  H8  UNL     1      16.793   9.162  27.097  1.00  0.00     0.186 HD
ENDROOT
BRANCH   9  13
HETATM   13  N6  UNL     1      14.400  10.176  28.587  1.00  0.00    -0.305 N 
ATOM     14  H6  UNL     1      13.484   9.903  28.943  1.00  0.00     0.186 HD
BRANCH  13  15
HETATM   15  C5  UNL     1      14.339  10.838  27.346  1.00  0.00     0.100 C 
BRANCH  15  16
HETATM   16  C6  UNL     1      15.375  11.952  27.150  1.00  0.00     0.160 C 
BRANCH  16  17
HETATM   17  N7  UNL     1      15.135  12.629  25.916  1.00  0.00    -0.415 N 
ATOM     18  H7  UNL     1      14.244  12.557  25.425  1.00  0.00     0.153 HD
BRANCH  17  19
HETATM   19  C7  UNL     1      16.215  13.411  25.408  1.00  0.00     0.140 C 
BRANCH  19  20
HETATM   20  C8  UNL     1      15.899  14.447  24.395  1.00  0.00     0.183 C 
BRANCH  20  21
HETATM   21  O1  UNL     1      15.122  15.484  24.891  1.00  0.00    -0.399 OA
ATOM     22  H1  UNL     1      15.628  16.246  25.148  1.00  0.00     0.209 HD
ENDBRANCH  20  21
ENDBRANCH  19  20
ENDBRANCH  17  19
ENDBRANCH  16  17
ENDBRANCH  15  16
ENDBRANCH  13  15
ENDBRANCH   9  13
BRANCH   4  23
HETATM   23  N3  UNL     1      19.289   8.488  31.377  1.00  0.00    -0.383 N 
ATOM     24  H32 UNL     1      19.299   7.546  31.767  1.00  0.00     0.157 HD
ATOM     25  H31 UNL     1      19.757   9.236  31.889  1.00  0.00     0.157 HD
ENDBRANCH   4  23
BRANCH   1  26
HETATM   26  N1  UNL     1      19.090   8.306  26.760  1.00  0.00    -0.234 N 
ATOM     27  H12 UNL     1      20.084   8.084  26.717  1.00  0.00     0.174 HD
ATOM     28  H11 UNL     1      18.530   8.317  25.907  1.00  0.00     0.174 HD
ENDBRANCH   1  26
TORSDOF 9
ENDMDL
MODEL 4
REMARK VINA RESULT: -6.654663784      3.013      6.696
REMARK  9 active torsions:
REMARK  status: ('A' for Active; 'I' for Inactive)
REMARK    1  A    between atoms: N1_1  and  C1_4 
REMARK    2  A    between atoms: C2_7  and  N3_8 
REMARK    3  A    between atoms: N5_15  and  N6_16 
REMARK    4  A    between atoms: N6_16  and  C5_18 
REMARK    5  A    between atoms: C5_18  and  C6_19 
REMARK    6  A    between atoms: C6_19  and  N7_20 
REMARK    7  A    between atoms: N7_20  and  C7_22 
REMARK    8  A    between atoms: C7_22  and  C8_23 
REMARK    9  A    between atoms: C8_23  and  O1_24 
ROOT
HETATM    1  C1  UNL     1      20.236   7.182  30.982  1.00  0.00     0.679 A 
HETATM    2  N2  UNL     1      21.270   8.002  30.808  1.00  0.00    -0.175 N 
ATOM      3  H2  UNL     1      22.191   7.729  31.153  1.00  0.00     0.186 HD
HETATM    4  C2  UNL     1      21.121   9.183  30.186  1.00  0.00     0.145 A 
HETATM    5  C3  UNL     1      19.866   9.539  29.724  1.00  0.00     0.124 A 
HETATM    6  N4  UNL     1      19.415  10.609  29.079  1.00  0.00    -0.345 N 
ATOM      7  H4  UNL     1      19.972  11.416  28.799  1.00  0.00     0.167 HD
HETATM    8  C4  UNL     1      18.110  10.447  28.862  1.00  0.00     0.209 A 
HETATM    9  N5  UNL     1      17.658   9.252  29.358  1.00  0.00    -0.233 N 
HETATM   10  C9  UNL     1      18.760   8.698  29.892  1.00  0.00     0.174 A 
HETATM   11  N8  UNL     1      19.011   7.531  30.530  1.00  0.00    -0.173 N 
ATOM     12  H8  UNL     1      18.237   6.883  30.677  1.00  0.00     0.186 HD
ENDROOT
BRANCH   9  13
HETATM   13  N6  UNL     1      16.374   8.769  29.282  1.00  0.00    -0.305 N 
ATOM     14  H6  UNL     1      16.333   7.755  29.178  1.00  0.00     0.186 HD
BRANCH  13  15
HETATM   15  C5  UNL     1      15.104   9.375  29.318  1.00  0.00     0.100 C 
BRANCH  15  16
HETATM   16  C6  UNL     1      14.314   9.311  28.004  1.00  0.00     0.160 C 
BRANCH  16  17
HETATM   17  N7  UNL     1      13.996  10.632  27.563  1.00  0.00    -0.415 N 
ATOM     18  H7  UNL     1      13.141  10.836  27.045  1.00  0.00     0.153 HD
BRANCH  17  19
HETATM   19  C7  UNL     1      14.943  11.648  27.889  1.00  0.00     0.140 C 
BRANCH  19  20
HETATM   20  C8  UNL     1      15.744  12.224  26.781  1.00  0.00     0.183 C 
BRANCH  20  21
HETATM   21  O1  UNL     1      14.974  12.657  25.711  1.00  0.00    -0.399 OA
ATOM     22  H1  UNL     1      14.226  13.182  25.972  1.00  0.00     0.209 HD
ENDBRANCH  20  21
ENDBRANCH  19  20
ENDBRANCH  17  19
ENDBRANCH  16  17
ENDBRANCH  15  16
ENDBRANCH  13  15
ENDBRANCH   9  13
BRANCH   4  23
HETATM   23  N3  UNL     1      22.072  10.018  29.994  1.00  0.00    -0.383 N 
ATOM     24  H32 UNL     1      22.494  10.439  30.822  1.00  0.00     0.157 HD
ATOM     25  H31 UNL     1      22.430  10.276  29.074  1.00  0.00     0.157 HD
ENDBRANCH   4  23
BRANCH   1  26
HETATM   26  N1  UNL     1      20.374   6.016  31.573  1.00  0.00    -0.234 N 
ATOM     27  H12 UNL     1      20.974   5.318  31.133  1.00  0.00     0.174 HD
ATOM     28  H11 UNL     1      19.911   5.808  32.458  1.00  0.00     0.174 HD
ENDBRANCH   1  26
TORSDOF 9
ENDMDL
MODEL 5
REMARK VINA RESULT: -6.625144230      1.811      2.494
REMARK  9 active torsions:
REMARK  status: ('A' for Active; 'I' for Inactive)
REMARK    1  A    between atoms: N1_1  and  C1_4 
REMARK    2  A    between atoms: C2_7  and  N3_8 
REMARK    3  A    between atoms: N5_15  and  N6_16 
REMARK    4  A    between atoms: N6_16  and  C5_18 
REMARK    5  A    between atoms: C5_18  and  C6_19 
REMARK    6  A    between atoms: C6_19  and  N7_20 
REMARK    7  A    between atoms: N7_20  and  C7_22 
REMARK    8  A    between atoms: C7_22  and  C8_23 
REMARK    9  A    between atoms: C8_23  and  O1_24 
ROOT
HETATM    1  C1  UNL     1      16.093   8.970  30.374  1.00  0.00     0.679 A 
HETATM    2  N2  UNL     1      14.981   8.658  29.710  1.00  0.00    -0.175 N 
ATOM      3  H2  UNL     1      14.449   7.831  29.982  1.00  0.00     0.186 HD
HETATM    4  C2  UNL     1      14.549   9.416  28.688  1.00  0.00     0.145 A 
HETATM    5  C3  UNL     1      15.283  10.533  28.331  1.00  0.00     0.124 A 
HETATM    6  N4  UNL     1      15.112  11.460  27.394  1.00  0.00    -0.345 N 
ATOM      7  H4  UNL     1      14.345  11.496  26.724  1.00  0.00     0.167 HD
HETATM    8  C4  UNL     1      16.116  12.332  27.481  1.00  0.00     0.209 A 
HETATM    9  N5  UNL     1      16.984  12.007  28.490  1.00  0.00    -0.233 N 
HETATM   10  C9  UNL     1      16.455  10.887  29.010  1.00  0.00     0.174 A 
HETATM   11  N8  UNL     1      16.807  10.062  30.024  1.00  0.00    -0.173 N 
ATOM     12  H8  UNL     1      17.655  10.276  30.550  1.00  0.00     0.186 HD
ENDROOT
BRANCH   9  13
HETATM   13  N6  UNL     1      18.107  12.707  28.860  1.00  0.00    -0.305 N 
ATOM     14  H6  UNL     1      17.900  13.521  29.439  1.00  0.00     0.186 HD
BRANCH  13  15
HETATM   15  C5  UNL     1      19.482  12.541  28.610  1.00  0.00     0.100 C 
BRANCH  15  16
HETATM   16  C6  UNL     1      19.954  11.085  28.505  1.00  0.00     0.160 C 
BRANCH  16  17
HETATM   17  N7  UNL     1      20.778  10.758  29.625  1.00  0.00    -0.415 N 
ATOM     18  H7  UNL     1      21.125  11.470  30.266  1.00  0.00     0.153 HD
BRANCH  17  19
HETATM   19  C7  UNL     1      21.086   9.375  29.794  1.00  0.00     0.140 C 
BRANCH  19  20
HETATM   20  C8  UNL     1      20.025   8.494  30.340  1.00  0.00     0.183 C 
BRANCH  20  21
HETATM   21  O1  UNL     1      19.394   9.019  31.458  1.00  0.00    -0.399 OA
ATOM     22  H1  UNL     1      18.624   9.536  31.250  1.00  0.00     0.209 HD
ENDBRANCH  20  21
ENDBRANCH  19  20
ENDBRANCH  17  19
ENDBRANCH  16  17
ENDBRANCH  15  16
ENDBRANCH  13  15
ENDBRANCH   9  13
BRANCH   4  23
HETATM   23  N3  UNL     1      13.495   9.167  28.006  1.00  0.00    -0.383 N 
ATOM     24  H32 UNL     1      13.298   8.188  27.795  1.00  0.00     0.157 HD
ATOM     25  H31 UNL     1      12.848   9.881  27.673  1.00  0.00     0.157 HD
ENDBRANCH   4  23
BRANCH   1  26
HETATM   26  N1  UNL     1      16.514   8.246  31.387  1.00  0.00    -0.234 N 
ATOM     27  H12 UNL     1      17.326   8.572  31.910  1.00  0.00     0.174 HD
ATOM     28  H11 UNL     1      16.040   7.385  31.661  1.00  0.00     0.174 HD
ENDBRANCH   1  26
TORSDOF 9
ENDMDL
