MODEL 1
REMARK VINA RESULT: -11.237962166      0.000      0.000
REMARK  14 active torsions:
REMARK  status: ('A' for Active; 'I' for Inactive)
REMARK    1  A    between atoms: C3_6  and  C4_7 
REMARK    2  A    between atoms: C4_7  and  O2_8 
REMARK    3  A    between atoms: C4_7  and  C5_10 
REMARK       I    between atoms: C5_10  and  N2_12 
REMARK    4  A    between atoms: N2_12  and  C6_14 
REMARK    5  A    between atoms: C6_14  and  C7_15 
REMARK    6  A    between atoms: C7_15  and  O4_16 
REMARK    7  A    between atoms: C7_15  and  C8_18 
REMARK    8  A    between atoms: C8_18  and  C9_19 
REMARK    9  A    between atoms: C10_23  and  O7_24 
REMARK   10  A    between atoms: O7_24  and  C11_25 
REMARK   11  A    between atoms: C16_31  and  N4_32 
REMARK   12  A    between atoms: C17_36  and  C18_37 
REMARK       I    between atoms: C18_37  and  N5_39 
REMARK   13  A    between atoms: N5_39  and  N6_41 
REMARK   14  A    between atoms: C19_44  and  O12_45 
ROOT
HETATM    1  C8  UNL     1      27.254  46.726  59.689  1.00  0.00     0.199 C 
HETATM    2  O6  UNL     1      26.603  47.374  60.784  1.00  0.00    -0.312 OA
HETATM    3  C10 UNL     1      27.013  46.900  62.010  1.00  0.00     0.421 C 
HETATM    4  O10 UNL     1      28.307  46.354  61.989  1.00  0.00    -0.321 OA
HETATM    5  C17 UNL     1      28.195  45.139  61.305  1.00  0.00     0.252 C 
HETATM    6  C19 UNL     1      27.394  45.290  60.032  1.00  0.00     0.203 C 
ENDROOT
BRANCH   1   7
HETATM    7  C7  UNL     1      26.307  46.996  58.546  1.00  0.00     0.182 C 
BRANCH   7   8
HETATM    8  C6  UNL     1      25.815  45.871  57.745  1.00  0.00     0.158 C 
BRANCH   8   9
HETATM    9  N2  UNL     1      24.609  45.999  57.003  1.00  0.00    -0.356 N 
HETATM   10  C5  UNL     1      24.430  45.412  55.690  1.00  0.00     0.252 C 
HETATM   11  O3  UNL     1      25.381  44.774  55.212  1.00  0.00    -0.270 OA
ATOM     12  H2  UNL     1      23.837  46.527  57.412  1.00  0.00     0.162 HD
BRANCH  10  13
HETATM   13  C4  UNL     1      23.162  45.578  54.967  1.00  0.00     0.263 C 
BRANCH  13  14
HETATM   14  C3  UNL     1      23.006  46.919  54.370  1.00  0.00     0.097 A 
HETATM   15  N1  UNL     1      23.535  48.067  54.927  1.00  0.00    -0.260 N 
HETATM   16  O1  UNL     1      23.241  49.082  54.215  1.00  0.00    -0.241 OA
ATOM     17  H1  UNL     1      24.083  48.097  55.786  1.00  0.00     0.194 HD
HETATM   18  C2  UNL     1      22.530  48.755  53.170  1.00  0.00     0.098 A 
HETATM   19  C1  UNL     1      21.996  49.644  52.108  1.00  0.00     0.081 C 
HETATM   20  C20 UNL     1      22.371  47.371  53.254  1.00  0.00     0.105 A 
HETATM   21  N7  UNL     1      21.660  46.618  52.282  1.00  0.00    -0.098 NA
ENDBRANCH  13  14
BRANCH  13  22
HETATM   22  O2  UNL     1      23.084  44.636  53.905  1.00  0.00    -0.380 OA
ATOM     23  H2  UNL     1      23.182  43.773  54.289  1.00  0.00     0.211 HD
ENDBRANCH  13  22
ENDBRANCH  10  13
ENDBRANCH   8   9
ENDBRANCH   7   8
BRANCH   7  24
HETATM   24  O4  UNL     1      25.100  47.494  59.194  1.00  0.00    -0.390 OA
ATOM     25  H4  UNL     1      25.302  47.414  60.119  1.00  0.00     0.210 HD
ENDBRANCH   7  24
ENDBRANCH   1   7
BRANCH   1  26
HETATM   26  C9  UNL     1      28.521  47.433  59.506  1.00  0.00     0.271 C 
HETATM   27  N3  UNL     1      28.618  48.820  59.790  1.00  0.00    -0.059 NA
HETATM   28  O5  UNL     1      29.577  46.885  59.102  1.00  0.00    -0.273 OA
ENDBRANCH   1  26
BRANCH   6  29
HETATM   29  O12 UNL     1      26.130  44.747  60.264  1.00  0.00    -0.389 OA
ATOM     30  H12 UNL     1      26.224  43.849  60.560  1.00  0.00     0.210 HD
ENDBRANCH   6  29
BRANCH   3  31
HETATM   31  O7  UNL     1      26.980  47.878  63.003  1.00  0.00    -0.294 OA
BRANCH  31  32
HETATM   32  C11 UNL     1      26.170  47.965  64.095  1.00  0.00     0.110 A 
HETATM   33  C12 UNL     1      25.763  46.869  64.800  1.00  0.00     0.040 A 
HETATM   34  C13 UNL     1      24.928  47.060  65.910  1.00  0.00     0.006 A 
HETATM   35  C14 UNL     1      24.520  48.304  66.295  1.00  0.00     0.045 A 
HETATM   36  C15 UNL     1      24.930  49.404  65.583  1.00  0.00     0.152 A 
HETATM   37  F1  UNL     1      24.517  50.623  65.977  1.00  0.00    -0.203 F 
HETATM   38  C16 UNL     1      25.748  49.239  64.492  1.00  0.00     0.174 A 
BRANCH  38  39
HETATM   39  N4  UNL     1      26.194  50.358  63.731  1.00  0.00    -0.110 N 
HETATM   40  O8  UNL     1      27.270  50.962  63.972  1.00  0.00    -0.532 OA
HETATM   41  O9  UNL     1      25.413  50.789  62.695  1.00  0.00    -0.532 OA
ENDBRANCH  38  39
ENDBRANCH  31  32
ENDBRANCH   3  31
BRANCH   5  42
HETATM   42  C18 UNL     1      29.521  44.524  61.071  1.00  0.00     0.267 C 
HETATM   43  O11 UNL     1      29.594  43.335  60.687  1.00  0.00    -0.269 OA
HETATM   44  N5  UNL     1      30.729  45.235  61.266  1.00  0.00    -0.274 N 
ATOM     45  H5  UNL     1      30.669  46.205  61.579  1.00  0.00     0.189 HD
BRANCH  44  46
HETATM   46  N6  UNL     1      31.987  44.695  61.059  1.00  0.00    -0.343 N 
ATOM     47  H62 UNL     1      32.096  44.070  60.260  1.00  0.00     0.176 HD
ATOM     48  H61 UNL     1      32.795  44.886  61.653  1.00  0.00     0.176 HD
ENDBRANCH  44  46
ENDBRANCH   5  42
TORSDOF 14
ENDMDL
MODEL 2
REMARK VINA RESULT: -11.143938039      1.404      2.111
REMARK  14 active torsions:
REMARK  status: ('A' for Active; 'I' for Inactive)
REMARK    1  A    between atoms: C3_6  and  C4_7 
REMARK    2  A    between atoms: C4_7  and  O2_8 
REMARK    3  A    between atoms: C4_7  and  C5_10 
REMARK       I    between atoms: C5_10  and  N2_12 
REMARK    4  A    between atoms: N2_12  and  C6_14 
REMARK    5  A    between atoms: C6_14  and  C7_15 
REMARK    6  A    between atoms: C7_15  and  O4_16 
REMARK    7  A    between atoms: C7_15  and  C8_18 
REMARK    8  A    between atoms: C8_18  and  C9_19 
REMARK    9  A    between atoms: C10_23  and  O7_24 
REMARK   10  A    between atoms: O7_24  and  C11_25 
REMARK   11  A    between atoms: C16_31  and  N4_32 
REMARK   12  A    between atoms: C17_36  and  C18_37 
REMARK       I    between atoms: C18_37  and  N5_39 
REMARK   13  A    between atoms: N5_39  and  N6_41 
REMARK   14  A    between atoms: C19_44  and  O12_45 
ROOT
HETATM    1  C8  UNL     1      27.286  46.769  59.818  1.00  0.00     0.199 C 
HETATM    2  O6  UNL     1      26.669  47.363  60.962  1.00  0.00    -0.312 OA
HETATM    3  C10 UNL     1      27.110  46.828  62.151  1.00  0.00     0.421 C 
HETATM    4  O10 UNL     1      28.401  46.279  62.066  1.00  0.00    -0.321 OA
HETATM    5  C17 UNL     1      28.264  45.100  61.326  1.00  0.00     0.252 C 
HETATM    6  C19 UNL     1      27.429  45.317  60.085  1.00  0.00     0.203 C 
ENDROOT
BRANCH   1   7
HETATM    7  C7  UNL     1      26.308  47.099  58.717  1.00  0.00     0.182 C 
BRANCH   7   8
HETATM    8  C6  UNL     1      25.733  46.009  57.923  1.00  0.00     0.158 C 
BRANCH   8   9
HETATM    9  N2  UNL     1      24.745  46.290  56.939  1.00  0.00    -0.356 N 
HETATM   10  C5  UNL     1      24.640  45.547  55.699  1.00  0.00     0.252 C 
HETATM   11  O3  UNL     1      25.455  44.630  55.508  1.00  0.00    -0.270 OA
ATOM     12  H2  UNL     1      24.083  47.046  57.114  1.00  0.00     0.162 HD
BRANCH  10  13
HETATM   13  C4  UNL     1      23.600  45.882  54.717  1.00  0.00     0.263 C 
BRANCH  13  14
HETATM   14  C3  UNL     1      22.358  45.106  54.900  1.00  0.00     0.097 A 
HETATM   15  N1  UNL     1      21.343  45.485  55.756  1.00  0.00    -0.260 N 
HETATM   16  O1  UNL     1      20.397  44.632  55.728  1.00  0.00    -0.241 OA
ATOM     17  H1  UNL     1      21.350  46.329  56.330  1.00  0.00     0.194 HD
HETATM   18  C2  UNL     1      20.649  43.650  54.906  1.00  0.00     0.098 A 
HETATM   19  C1  UNL     1      19.803  42.471  54.596  1.00  0.00     0.081 C 
HETATM   20  C20 UNL     1      21.904  43.940  54.366  1.00  0.00     0.105 A 
HETATM   21  N7  UNL     1      22.536  43.109  53.403  1.00  0.00    -0.098 NA
ENDBRANCH  13  14
BRANCH  13  22
HETATM   22  O2  UNL     1      23.255  47.257  54.829  1.00  0.00    -0.380 OA
ATOM     23  H2  UNL     1      23.888  47.747  54.316  1.00  0.00     0.211 HD
ENDBRANCH  13  22
ENDBRANCH  10  13
ENDBRANCH   8   9
ENDBRANCH   7   8
BRANCH   7  24
HETATM   24  O4  UNL     1      25.153  47.644  59.419  1.00  0.00    -0.390 OA
ATOM     25  H4  UNL     1      25.303  48.581  59.388  1.00  0.00     0.210 HD
ENDBRANCH   7  24
ENDBRANCH   1   7
BRANCH   1  26
HETATM   26  C9  UNL     1      28.550  47.480  59.635  1.00  0.00     0.271 C 
HETATM   27  N3  UNL     1      28.679  48.834  60.040  1.00  0.00    -0.059 NA
HETATM   28  O5  UNL     1      29.577  46.964  59.127  1.00  0.00    -0.273 OA
ENDBRANCH   1  26
BRANCH   6  29
HETATM   29  O12 UNL     1      26.169  44.767  60.325  1.00  0.00    -0.389 OA
ATOM     30  H12 UNL     1      25.915  44.229  59.583  1.00  0.00     0.210 HD
ENDBRANCH   6  29
BRANCH   3  31
HETATM   31  O7  UNL     1      27.110  47.755  63.192  1.00  0.00    -0.294 OA
BRANCH  31  32
HETATM   32  C11 UNL     1      26.209  47.910  64.202  1.00  0.00     0.110 A 
HETATM   33  C12 UNL     1      25.755  46.862  64.951  1.00  0.00     0.040 A 
HETATM   34  C13 UNL     1      24.828  47.122  65.971  1.00  0.00     0.006 A 
HETATM   35  C14 UNL     1      24.376  48.384  66.225  1.00  0.00     0.045 A 
HETATM   36  C15 UNL     1      24.834  49.435  65.469  1.00  0.00     0.152 A 
HETATM   37  F1  UNL     1      24.377  50.673  65.735  1.00  0.00    -0.203 F 
HETATM   38  C16 UNL     1      25.743  49.202  64.466  1.00  0.00     0.174 A 
BRANCH  38  39
HETATM   39  N4  UNL     1      26.240  50.269  63.662  1.00  0.00    -0.110 N 
HETATM   40  O8  UNL     1      27.241  50.957  63.986  1.00  0.00    -0.532 OA
HETATM   41  O9  UNL     1      25.597  50.551  62.490  1.00  0.00    -0.532 OA
ENDBRANCH  38  39
ENDBRANCH  31  32
ENDBRANCH   3  31
BRANCH   5  42
HETATM   42  C18 UNL     1      29.581  44.494  61.024  1.00  0.00     0.267 C 
HETATM   43  O11 UNL     1      29.636  43.329  60.569  1.00  0.00    -0.269 OA
HETATM   44  N5  UNL     1      30.797  45.186  61.234  1.00  0.00    -0.274 N 
ATOM     45  H5  UNL     1      30.751  46.135  61.605  1.00  0.00     0.189 HD
BRANCH  44  46
HETATM   46  N6  UNL     1      32.047  44.652  60.965  1.00  0.00    -0.343 N 
ATOM     47  H62 UNL     1      32.205  44.298  60.021  1.00  0.00     0.176 HD
ATOM     48  H61 UNL     1      32.802  44.597  61.649  1.00  0.00     0.176 HD
ENDBRANCH  44  46
ENDBRANCH   5  42
TORSDOF 14
ENDMDL
MODEL 3
REMARK VINA RESULT: -11.043826732      1.473      2.316
REMARK  14 active torsions:
REMARK  status: ('A' for Active; 'I' for Inactive)
REMARK    1  A    between atoms: C3_6  and  C4_7 
REMARK    2  A    between atoms: C4_7  and  O2_8 
REMARK    3  A    between atoms: C4_7  and  C5_10 
REMARK       I    between atoms: C5_10  and  N2_12 
REMARK    4  A    between atoms: N2_12  and  C6_14 
REMARK    5  A    between atoms: C6_14  and  C7_15 
REMARK    6  A    between atoms: C7_15  and  O4_16 
REMARK    7  A    between atoms: C7_15  and  C8_18 
REMARK    8  A    between atoms: C8_18  and  C9_19 
REMARK    9  A    between atoms: C10_23  and  O7_24 
REMARK   10  A    between atoms: O7_24  and  C11_25 
REMARK   11  A    between atoms: C16_31  and  N4_32 
REMARK   12  A    between atoms: C17_36  and  C18_37 
REMARK       I    between atoms: C18_37  and  N5_39 
REMARK   13  A    between atoms: N5_39  and  N6_41 
REMARK   14  A    between atoms: C19_44  and  O12_45 
ROOT
HETATM    1  C8  UNL     1      27.255  46.699  59.725  1.00  0.00     0.199 C 
HETATM    2  O6  UNL     1      26.608  47.338  60.827  1.00  0.00    -0.312 OA
HETATM    3  C10 UNL     1      27.040  46.873  62.048  1.00  0.00     0.421 C 
HETATM    4  O10 UNL     1      28.342  46.346  62.011  1.00  0.00    -0.321 OA
HETATM    5  C17 UNL     1      28.240  45.129  61.330  1.00  0.00     0.252 C 
HETATM    6  C19 UNL     1      27.422  45.266  60.067  1.00  0.00     0.203 C 
ENDROOT
BRANCH   1   7
HETATM    7  C7  UNL     1      26.289  46.954  58.593  1.00  0.00     0.182 C 
BRANCH   7   8
HETATM    8  C6  UNL     1      25.796  45.818  57.807  1.00  0.00     0.158 C 
BRANCH   8   9
HETATM    9  N2  UNL     1      24.711  45.996  56.905  1.00  0.00    -0.356 N 
HETATM   10  C5  UNL     1      24.642  45.328  55.620  1.00  0.00     0.252 C 
HETATM   11  O3  UNL     1      25.580  44.574  55.314  1.00  0.00    -0.270 OA
ATOM     12  H2  UNL     1      23.949  46.618  57.174  1.00  0.00     0.162 HD
BRANCH  10  13
HETATM   13  C4  UNL     1      23.498  45.550  54.727  1.00  0.00     0.263 C 
BRANCH  13  14
HETATM   14  C3  UNL     1      22.921  44.297  54.201  1.00  0.00     0.097 A 
HETATM   15  N1  UNL     1      23.676  43.291  53.632  1.00  0.00    -0.260 N 
HETATM   16  O1  UNL     1      22.927  42.333  53.254  1.00  0.00    -0.241 OA
ATOM     17  H1  UNL     1      24.691  43.313  53.529  1.00  0.00     0.194 HD
HETATM   18  C2  UNL     1      21.668  42.568  53.509  1.00  0.00     0.098 A 
HETATM   19  C1  UNL     1      20.496  41.703  53.223  1.00  0.00     0.081 C 
HETATM   20  C20 UNL     1      21.647  43.824  54.118  1.00  0.00     0.105 A 
HETATM   21  N7  UNL     1      20.449  44.441  54.566  1.00  0.00    -0.098 NA
ENDBRANCH  13  14
BRANCH  13  22
HETATM   22  O2  UNL     1      22.461  46.226  55.428  1.00  0.00    -0.380 OA
ATOM     23  H2  UNL     1      22.871  46.917  55.935  1.00  0.00     0.211 HD
ENDBRANCH  13  22
ENDBRANCH  10  13
ENDBRANCH   8   9
ENDBRANCH   7   8
BRANCH   7  24
HETATM   24  O4  UNL     1      25.087  47.445  59.255  1.00  0.00    -0.390 OA
ATOM     25  H4  UNL     1      24.756  46.676  59.702  1.00  0.00     0.210 HD
ENDBRANCH   7  24
ENDBRANCH   1   7
BRANCH   1  26
HETATM   26  C9  UNL     1      28.508  47.426  59.525  1.00  0.00     0.271 C 
HETATM   27  N3  UNL     1      28.597  48.806  59.842  1.00  0.00    -0.059 NA
HETATM   28  O5  UNL     1      29.558  46.901  59.076  1.00  0.00    -0.273 OA
ENDBRANCH   1  26
BRANCH   6  29
HETATM   29  O12 UNL     1      26.169  44.703  60.315  1.00  0.00    -0.389 OA
ATOM     30  H12 UNL     1      26.198  44.223  61.134  1.00  0.00     0.210 HD
ENDBRANCH   6  29
BRANCH   3  31
HETATM   31  O7  UNL     1      27.005  47.851  63.041  1.00  0.00    -0.294 OA
BRANCH  31  32
HETATM   32  C11 UNL     1      26.166  47.959  64.109  1.00  0.00     0.110 A 
HETATM   33  C12 UNL     1      25.738  46.876  64.822  1.00  0.00     0.040 A 
HETATM   34  C13 UNL     1      24.875  47.088  65.907  1.00  0.00     0.006 A 
HETATM   35  C14 UNL     1      24.460  48.340  66.259  1.00  0.00     0.045 A 
HETATM   36  C15 UNL     1      24.892  49.426  65.539  1.00  0.00     0.152 A 
HETATM   37  F1  UNL     1      24.471  50.653  65.900  1.00  0.00    -0.203 F 
HETATM   38  C16 UNL     1      25.738  49.240  64.472  1.00  0.00     0.174 A 
BRANCH  38  39
HETATM   39  N4  UNL     1      26.206  50.344  63.703  1.00  0.00    -0.110 N 
HETATM   40  O8  UNL     1      27.285  50.940  63.952  1.00  0.00    -0.532 OA
HETATM   41  O9  UNL     1      25.444  50.771  62.651  1.00  0.00    -0.532 OA
ENDBRANCH  38  39
ENDBRANCH  31  32
ENDBRANCH   3  31
BRANCH   5  42
HETATM   42  C18 UNL     1      29.573  44.535  61.079  1.00  0.00     0.267 C 
HETATM   43  O11 UNL     1      29.659  43.354  60.675  1.00  0.00    -0.269 OA
HETATM   44  N5  UNL     1      30.773  45.257  61.283  1.00  0.00    -0.274 N 
ATOM     45  H5  UNL     1      30.703  46.221  61.612  1.00  0.00     0.189 HD
BRANCH  44  46
HETATM   46  N6  UNL     1      32.037  44.736  61.060  1.00  0.00    -0.343 N 
ATOM     47  H62 UNL     1      32.557  45.108  60.265  1.00  0.00     0.176 HD
ATOM     48  H61 UNL     1      32.466  44.014  61.640  1.00  0.00     0.176 HD
ENDBRANCH  44  46
ENDBRANCH   5  42
TORSDOF 14
ENDMDL
MODEL 4
REMARK VINA RESULT: -10.776006492      1.106      1.639
REMARK  14 active torsions:
REMARK  status: ('A' for Active; 'I' for Inactive)
REMARK    1  A    between atoms: C3_6  and  C4_7 
REMARK    2  A    between atoms: C4_7  and  O2_8 
REMARK    3  A    between atoms: C4_7  and  C5_10 
REMARK       I    between atoms: C5_10  and  N2_12 
REMARK    4  A    between atoms: N2_12  and  C6_14 
REMARK    5  A    between atoms: C6_14  and  C7_15 
REMARK    6  A    between atoms: C7_15  and  O4_16 
REMARK    7  A    between atoms: C7_15  and  C8_18 
REMARK    8  A    between atoms: C8_18  and  C9_19 
REMARK    9  A    between atoms: C10_23  and  O7_24 
REMARK   10  A    between atoms: O7_24  and  C11_25 
REMARK   11  A    between atoms: C16_31  and  N4_32 
REMARK   12  A    between atoms: C17_36  and  C18_37 
REMARK       I    between atoms: C18_37  and  N5_39 
REMARK   13  A    between atoms: N5_39  and  N6_41 
REMARK   14  A    between atoms: C19_44  and  O12_45 
ROOT
HETATM    1  C8  UNL     1      27.355  46.847  59.684  1.00  0.00     0.199 C 
HETATM    2  O6  UNL     1      26.843  47.642  60.756  1.00  0.00    -0.312 OA
HETATM    3  C10 UNL     1      27.317  47.253  61.988  1.00  0.00     0.421 C 
HETATM    4  O10 UNL     1      28.563  46.607  61.924  1.00  0.00    -0.321 OA
HETATM    5  C17 UNL     1      28.310  45.347  61.373  1.00  0.00     0.252 C 
HETATM    6  C19 UNL     1      27.420  45.443  60.154  1.00  0.00     0.203 C 
ENDROOT
BRANCH   1   7
HETATM    7  C7  UNL     1      26.338  47.085  58.594  1.00  0.00     0.182 C 
BRANCH   7   8
HETATM    8  C6  UNL     1      25.866  45.947  57.800  1.00  0.00     0.158 C 
BRANCH   8   9
HETATM    9  N2  UNL     1      24.660  46.053  57.052  1.00  0.00    -0.356 N 
HETATM   10  C5  UNL     1      24.485  45.431  55.755  1.00  0.00     0.252 C 
HETATM   11  O3  UNL     1      25.438  44.782  55.296  1.00  0.00    -0.270 OA
ATOM     12  H2  UNL     1      23.887  46.590  57.445  1.00  0.00     0.162 HD
BRANCH  10  13
HETATM   13  C4  UNL     1      23.218  45.576  55.025  1.00  0.00     0.263 C 
BRANCH  13  14
HETATM   14  C3  UNL     1      23.051  46.908  54.410  1.00  0.00     0.097 A 
HETATM   15  N1  UNL     1      23.574  48.066  54.950  1.00  0.00    -0.260 N 
HETATM   16  O1  UNL     1      23.272  49.069  54.225  1.00  0.00    -0.241 OA
ATOM     17  H1  UNL     1      24.125  48.111  55.808  1.00  0.00     0.194 HD
HETATM   18  C2  UNL     1      22.560  48.724  53.187  1.00  0.00     0.098 A 
HETATM   19  C1  UNL     1      22.017  49.595  52.115  1.00  0.00     0.081 C 
HETATM   20  C20 UNL     1      22.410  47.340  53.290  1.00  0.00     0.105 A 
HETATM   21  N7  UNL     1      21.701  46.570  52.331  1.00  0.00    -0.098 NA
ENDBRANCH  13  14
BRANCH  13  22
HETATM   22  O2  UNL     1      23.153  44.619  53.974  1.00  0.00    -0.380 OA
ATOM     23  H2  UNL     1      23.360  45.076  53.167  1.00  0.00     0.211 HD
ENDBRANCH  13  22
ENDBRANCH  10  13
ENDBRANCH   8   9
ENDBRANCH   7   8
BRANCH   7  24
HETATM   24  O4  UNL     1      25.142  47.510  59.310  1.00  0.00    -0.390 OA
ATOM     25  H4  UNL     1      25.224  47.072  60.148  1.00  0.00     0.210 HD
ENDBRANCH   7  24
ENDBRANCH   1   7
BRANCH   1  26
HETATM   26  C9  UNL     1      28.649  47.433  59.339  1.00  0.00     0.271 C 
HETATM   27  N3  UNL     1      28.845  48.837  59.411  1.00  0.00    -0.059 NA
HETATM   28  O5  UNL     1      29.645  46.762  58.967  1.00  0.00    -0.273 OA
ENDBRANCH   1  26
BRANCH   6  29
HETATM   29  O12 UNL     1      26.144  45.023  60.532  1.00  0.00    -0.389 OA
ATOM     30  H12 UNL     1      25.698  44.657  59.777  1.00  0.00     0.210 HD
ENDBRANCH   6  29
BRANCH   3  31
HETATM   31  O7  UNL     1      27.436  48.318  62.880  1.00  0.00    -0.294 OA
BRANCH  31  32
HETATM   32  C11 UNL     1      26.472  48.913  63.638  1.00  0.00     0.110 A 
HETATM   33  C12 UNL     1      25.689  49.929  63.169  1.00  0.00     0.040 A 
HETATM   34  C13 UNL     1      24.723  50.478  64.024  1.00  0.00     0.006 A 
HETATM   35  C14 UNL     1      24.552  50.022  65.300  1.00  0.00     0.045 A 
HETATM   36  C15 UNL     1      25.342  49.001  65.767  1.00  0.00     0.152 A 
HETATM   37  F1  UNL     1      25.159  48.566  67.028  1.00  0.00    -0.203 F 
HETATM   38  C16 UNL     1      26.294  48.449  64.946  1.00  0.00     0.174 A 
BRANCH  38  39
HETATM   39  N4  UNL     1      27.130  47.388  65.398  1.00  0.00    -0.110 N 
HETATM   40  O8  UNL     1      26.871  46.177  65.184  1.00  0.00    -0.532 OA
HETATM   41  O9  UNL     1      28.262  47.707  66.095  1.00  0.00    -0.532 OA
ENDBRANCH  38  39
ENDBRANCH  31  32
ENDBRANCH   3  31
BRANCH   5  42
HETATM   42  C18 UNL     1      29.566  44.612  61.101  1.00  0.00     0.267 C 
HETATM   43  O11 UNL     1      29.518  43.404  60.776  1.00  0.00    -0.269 OA
HETATM   44  N5  UNL     1      30.837  45.226  61.197  1.00  0.00    -0.274 N 
ATOM     45  H5  UNL     1      30.875  46.211  61.462  1.00  0.00     0.189 HD
BRANCH  44  46
HETATM   46  N6  UNL     1      32.033  44.571  60.952  1.00  0.00    -0.343 N 
ATOM     47  H62 UNL     1      32.128  44.104  60.049  1.00  0.00     0.176 HD
ATOM     48  H61 UNL     1      32.808  44.533  61.614  1.00  0.00     0.176 HD
ENDBRANCH  44  46
ENDBRANCH   5  42
TORSDOF 14
ENDMDL
MODEL 5
REMARK VINA RESULT: -10.669452183      1.783      2.679
REMARK  14 active torsions:
REMARK  status: ('A' for Active; 'I' for Inactive)
REMARK    1  A    between atoms: C3_6  and  C4_7 
REMARK    2  A    between atoms: C4_7  and  O2_8 
REMARK    3  A    between atoms: C4_7  and  C5_10 
REMARK       I    between atoms: C5_10  and  N2_12 
REMARK    4  A    between atoms: N2_12  and  C6_14 
REMARK    5  A    between atoms: C6_14  and  C7_15 
REMARK    6  A    between atoms: C7_15  and  O4_16 
REMARK    7  A    between atoms: C7_15  and  C8_18 
REMARK    8  A    between atoms: C8_18  and  C9_19 
REMARK    9  A    between atoms: C10_23  and  O7_24 
REMARK   10  A    between atoms: O7_24  and  C11_25 
REMARK   11  A    between atoms: C16_31  and  N4_32 
REMARK   12  A    between atoms: C17_36  and  C18_37 
REMARK       I    between atoms: C18_37  and  N5_39 
REMARK   13  A    between atoms: N5_39  and  N6_41 
REMARK   14  A    between atoms: C19_44  and  O12_45 
ROOT
HETATM    1  C8  UNL     1      27.305  46.929  59.720  1.00  0.00     0.199 C 
HETATM    2  O6  UNL     1      26.808  47.699  60.816  1.00  0.00    -0.312 OA
HETATM    3  C10 UNL     1      27.283  47.272  62.034  1.00  0.00     0.421 C 
HETATM    4  O10 UNL     1      28.522  46.615  61.946  1.00  0.00    -0.321 OA
HETATM    5  C17 UNL     1      28.252  45.373  61.362  1.00  0.00     0.252 C 
HETATM    6  C19 UNL     1      27.358  45.511  60.151  1.00  0.00     0.203 C 
ENDROOT
BRANCH   1   7
HETATM    7  C7  UNL     1      26.286  47.207  58.642  1.00  0.00     0.182 C 
BRANCH   7   8
HETATM    8  C6  UNL     1      25.690  46.081  57.916  1.00  0.00     0.158 C 
BRANCH   8   9
HETATM    9  N2  UNL     1      24.707  46.320  56.916  1.00  0.00    -0.356 N 
HETATM   10  C5  UNL     1      24.630  45.546  55.693  1.00  0.00     0.252 C 
HETATM   11  O3  UNL     1      25.465  44.642  55.531  1.00  0.00    -0.270 OA
ATOM     12  H2  UNL     1      24.029  47.067  57.066  1.00  0.00     0.162 HD
BRANCH  10  13
HETATM   13  C4  UNL     1      23.595  45.838  54.693  1.00  0.00     0.263 C 
BRANCH  13  14
HETATM   14  C3  UNL     1      22.347  45.079  54.911  1.00  0.00     0.097 A 
HETATM   15  N1  UNL     1      21.361  45.474  55.794  1.00  0.00    -0.260 N 
HETATM   16  O1  UNL     1      20.403  44.633  55.793  1.00  0.00    -0.241 OA
ATOM     17  H1  UNL     1      21.396  46.318  56.365  1.00  0.00     0.194 HD
HETATM   18  C2  UNL     1      20.620  43.646  54.967  1.00  0.00     0.098 A 
HETATM   19  C1  UNL     1      19.750  42.478  54.682  1.00  0.00     0.081 C 
HETATM   20  C20 UNL     1      21.863  43.918  54.392  1.00  0.00     0.105 A 
HETATM   21  N7  UNL     1      22.458  43.077  53.414  1.00  0.00    -0.098 NA
ENDBRANCH  13  14
BRANCH  13  22
HETATM   22  O2  UNL     1      23.257  47.219  54.735  1.00  0.00    -0.380 OA
ATOM     23  H2  UNL     1      24.042  47.706  54.514  1.00  0.00     0.211 HD
ENDBRANCH  13  22
ENDBRANCH  10  13
ENDBRANCH   8   9
ENDBRANCH   7   8
BRANCH   7  24
HETATM   24  O4  UNL     1      25.153  47.775  59.362  1.00  0.00    -0.390 OA
ATOM     25  H4  UNL     1      24.514  47.926  58.675  1.00  0.00     0.210 HD
ENDBRANCH   7  24
ENDBRANCH   1   7
BRANCH   1  26
HETATM   26  C9  UNL     1      28.604  47.509  59.384  1.00  0.00     0.271 C 
HETATM   27  N3  UNL     1      28.803  48.913  59.450  1.00  0.00    -0.059 NA
HETATM   28  O5  UNL     1      29.602  46.835  59.026  1.00  0.00    -0.273 OA
ENDBRANCH   1  26
BRANCH   6  29
HETATM   29  O12 UNL     1      26.079  45.096  60.524  1.00  0.00    -0.389 OA
ATOM     30  H12 UNL     1      25.568  45.852  60.791  1.00  0.00     0.210 HD
ENDBRANCH   6  29
BRANCH   3  31
HETATM   31  O7  UNL     1      27.418  48.310  62.954  1.00  0.00    -0.294 OA
BRANCH  31  32
HETATM   32  C11 UNL     1      26.461  48.909  63.718  1.00  0.00     0.110 A 
HETATM   33  C12 UNL     1      25.685  49.934  63.258  1.00  0.00     0.040 A 
HETATM   34  C13 UNL     1      24.726  50.485  64.119  1.00  0.00     0.006 A 
HETATM   35  C14 UNL     1      24.555  50.024  65.392  1.00  0.00     0.045 A 
HETATM   36  C15 UNL     1      25.338  48.994  65.851  1.00  0.00     0.152 A 
HETATM   37  F1  UNL     1      25.155  48.552  67.110  1.00  0.00    -0.203 F 
HETATM   38  C16 UNL     1      26.283  48.439  65.024  1.00  0.00     0.174 A 
BRANCH  38  39
HETATM   39  N4  UNL     1      27.112  47.369  65.468  1.00  0.00    -0.110 N 
HETATM   40  O8  UNL     1      26.859  46.162  65.220  1.00  0.00    -0.532 OA
HETATM   41  O9  UNL     1      28.230  47.673  66.194  1.00  0.00    -0.532 OA
ENDBRANCH  38  39
ENDBRANCH  31  32
ENDBRANCH   3  31
BRANCH   5  42
HETATM   42  C18 UNL     1      29.499  44.631  61.064  1.00  0.00     0.267 C 
HETATM   43  O11 UNL     1      29.434  43.446  60.667  1.00  0.00    -0.269 OA
HETATM   44  N5  UNL     1      30.779  45.215  61.213  1.00  0.00    -0.274 N 
ATOM     45  H5  UNL     1      30.831  46.181  61.538  1.00  0.00     0.189 HD
BRANCH  44  46
HETATM   46  N6  UNL     1      31.967  44.554  60.946  1.00  0.00    -0.343 N 
ATOM     47  H62 UNL     1      32.755  44.751  61.563  1.00  0.00     0.176 HD
ATOM     48  H61 UNL     1      32.091  43.893  60.178  1.00  0.00     0.176 HD
ENDBRANCH  44  46
ENDBRANCH   5  42
TORSDOF 14
ENDMDL
