MODEL 1
REMARK VINA RESULT: -7.545238744      0.000      0.000
REMARK  14 active torsions:
REMARK  status: ('A' for Active; 'I' for Inactive)
REMARK    1  A    between atoms: C4_7  and  N3_8 
REMARK    2  A    between atoms: N3_8  and  O1_10 
REMARK    3  A    between atoms: C6_13  and  N4_14 
REMARK    4  A    between atoms: C6_13  and  C16_41 
REMARK    5  A    between atoms: N4_14  and  N5_16 
REMARK    6  A    between atoms: N5_16  and  C7_18 
REMARK       I    between atoms: N9_25  and  C9_26 
REMARK    7  A    between atoms: C9_26  and  C10_28 
REMARK    8  A    between atoms: C10_28  and  N10_29 
REMARK    9  A    between atoms: C10_28  and  C11_33 
REMARK   10  A    between atoms: C11_33  and  C12_34 
REMARK   11  A    between atoms: C13_37  and  C14_38 
REMARK   12  A    between atoms: C18_47  and  C19_48 
REMARK   13  A    between atoms: C19_48  and  O7_50 
REMARK   14  A    between atoms: O7_50  and  C20_51 
ROOT
HETATM    1  N4  UNL     1      24.540  50.347  64.264  1.00  0.00    -0.296 N 
ATOM      2  H4  UNL     1      23.594  49.992  64.117  1.00  0.00     0.187 HD
ENDROOT
BRANCH   1   3
HETATM    3  C6  UNL     1      24.961  50.857  65.553  1.00  0.00     0.093 C 
HETATM    4  C5  UNL     1      24.291  51.860  66.042  1.00  0.00     0.069 A 
HETATM    5  C2  UNL     1      24.395  52.589  67.203  1.00  0.00     0.055 A 
HETATM    6  C4  UNL     1      23.196  52.466  65.373  1.00  0.00     0.156 A 
HETATM    7  C1  UNL     1      25.244  52.458  68.195  1.00  0.00     0.045 C 
HETATM    8  N1  UNL     1      23.412  53.545  67.180  1.00  0.00    -0.297 N 
HETATM    9  N2  UNL     1      22.698  53.472  66.091  1.00  0.00    -0.279 N 
ATOM     10  H1  UNL     1      23.259  54.227  67.922  1.00  0.00     0.187 HD
HETATM   11  C3  UNL     1      21.559  54.329  65.714  1.00  0.00     0.179 C 
BRANCH   6  12
HETATM   12  N3  UNL     1      22.711  52.127  64.227  1.00  0.00    -0.251 N 
ATOM     13  H3  UNL     1      23.079  52.591  63.396  1.00  0.00     0.196 HD
BRANCH  12  14
HETATM   14  O1  UNL     1      21.741  51.190  64.058  1.00  0.00    -0.288 OA
ATOM     15  H1  UNL     1      21.224  51.095  63.266  1.00  0.00     0.244 HD
ENDBRANCH  12  14
ENDBRANCH   6  12
BRANCH   3  16
HETATM   16  C16 UNL     1      26.080  50.172  66.119  1.00  0.00     0.095 A 
HETATM   17  N11 UNL     1      27.410  50.472  66.009  1.00  0.00    -0.348 N 
HETATM   18  C17 UNL     1      28.161  49.580  66.645  1.00  0.00     0.181 A 
ATOM     19  H11 UNL     1      27.779  51.277  65.503  1.00  0.00     0.167 HD
HETATM   20  N12 UNL     1      27.297  48.694  67.170  1.00  0.00    -0.346 N 
HETATM   21  C18 UNL     1      26.033  49.007  66.882  1.00  0.00     0.138 A 
ATOM     22  H12 UNL     1      27.574  47.883  67.722  1.00  0.00     0.167 HD
BRANCH  21  23
HETATM   23  C19 UNL     1      24.823  48.270  67.287  1.00  0.00     0.312 C 
HETATM   24  O6  UNL     1      24.004  48.789  68.053  1.00  0.00    -0.258 OA
BRANCH  23  25
HETATM   25  O7  UNL     1      24.602  47.003  66.815  1.00  0.00    -0.317 OA
BRANCH  25  26
HETATM   26  C20 UNL     1      23.379  46.569  66.251  1.00  0.00     0.175 C 
HETATM   27  C21 UNL     1      23.680  45.676  65.083  1.00  0.00     0.034 C 
ENDBRANCH  25  26
ENDBRANCH  23  25
ENDBRANCH  21  23
ENDBRANCH   3  16
ENDBRANCH   1   3
BRANCH   1  28
HETATM   28  N5  UNL     1      25.480  50.359  63.230  1.00  0.00    -0.286 N 
ATOM     29  H5  UNL     1      25.584  51.182  62.635  1.00  0.00     0.188 HD
BRANCH  28  30
HETATM   30  C7  UNL     1      26.305  49.190  63.016  1.00  0.00     0.131 C 
HETATM   31  N6  UNL     1      26.349  48.311  63.923  1.00  0.00    -0.316 N 
HETATM   32  C8  UNL     1      27.122  47.131  63.836  1.00  0.00     0.208 C 
ATOM     33  H6  UNL     1      25.796  48.463  64.766  1.00  0.00     0.170 HD
HETATM   34  N7  UNL     1      27.091  46.209  64.901  1.00  0.00    -0.062 NA
HETATM   35  N8  UNL     1      27.805  46.999  62.759  1.00  0.00    -0.267 N 
HETATM   36  N9  UNL     1      27.838  47.901  61.721  1.00  0.00    -0.237 N 
ATOM     37  H8  UNL     1      28.371  46.155  62.663  1.00  0.00     0.190 HD
HETATM   38  C9  UNL     1      28.724  47.739  60.588  1.00  0.00     0.270 C 
HETATM   39  C13 UNL     1      27.003  49.056  61.729  1.00  0.00     0.249 C 
HETATM   40  O2  UNL     1      28.702  48.621  59.683  1.00  0.00    -0.269 OA
BRANCH  38  41
HETATM   41  C10 UNL     1      29.641  46.610  60.440  1.00  0.00     0.286 C 
BRANCH  41  42
HETATM   42  N10 UNL     1      29.549  46.127  59.064  1.00  0.00    -0.066 N 
ATOM     43 3H10 UNL     1      28.586  45.973  58.764  1.00  0.00     0.275 HD
ATOM     44 2H10 UNL     1      29.794  46.841  58.378  1.00  0.00     0.275 HD
ATOM     45 1H10 UNL     1      30.124  45.288  58.983  1.00  0.00     0.275 HD
ENDBRANCH  41  42
BRANCH  41  46
HETATM   46  C11 UNL     1      29.445  45.485  61.424  1.00  0.00     0.155 C 
BRANCH  46  47
HETATM   47  C12 UNL     1      28.706  44.412  60.676  1.00  0.00     0.175 C 
HETATM   48  O3  UNL     1      27.478  44.668  60.419  1.00  0.00    -0.648 OA
HETATM   49  O4  UNL     1      29.283  43.230  60.283  1.00  0.00    -0.648 OA
ENDBRANCH  46  47
ENDBRANCH  41  46
ENDBRANCH  38  41
BRANCH  39  50
HETATM   50  C14 UNL     1      25.917  48.961  60.675  1.00  0.00     0.155 C 
HETATM   51  C15 UNL     1      25.547  47.640  60.148  1.00  0.00     0.093 C 
HETATM   52  O5  UNL     1      25.354  49.951  60.267  1.00  0.00    -0.296 OA
ENDBRANCH  39  50
ENDBRANCH  28  30
ENDBRANCH   1  28
TORSDOF 14
ENDMDL
MODEL 2
REMARK VINA RESULT: -7.519179516      2.964      6.498
REMARK  14 active torsions:
REMARK  status: ('A' for Active; 'I' for Inactive)
REMARK    1  A    between atoms: C4_7  and  N3_8 
REMARK    2  A    between atoms: N3_8  and  O1_10 
REMARK    3  A    between atoms: C6_13  and  N4_14 
REMARK    4  A    between atoms: C6_13  and  C16_41 
REMARK    5  A    between atoms: N4_14  and  N5_16 
REMARK    6  A    between atoms: N5_16  and  C7_18 
REMARK       I    between atoms: N9_25  and  C9_26 
REMARK    7  A    between atoms: C9_26  and  C10_28 
REMARK    8  A    between atoms: C10_28  and  N10_29 
REMARK    9  A    between atoms: C10_28  and  C11_33 
REMARK   10  A    between atoms: C11_33  and  C12_34 
REMARK   11  A    between atoms: C13_37  and  C14_38 
REMARK   12  A    between atoms: C18_47  and  C19_48 
REMARK   13  A    between atoms: C19_48  and  O7_50 
REMARK   14  A    between atoms: O7_50  and  C20_51 
ROOT
HETATM    1  N4  UNL     1      21.661  52.198  66.406  1.00  0.00    -0.296 N 
ATOM      2  H4  UNL     1      22.427  52.457  67.029  1.00  0.00     0.187 HD
ENDROOT
BRANCH   1   3
HETATM    3  C6  UNL     1      20.504  53.055  66.239  1.00  0.00     0.093 C 
HETATM    4  C5  UNL     1      20.711  54.340  66.250  1.00  0.00     0.069 A 
HETATM    5  C2  UNL     1      19.883  55.430  66.124  1.00  0.00     0.055 A 
HETATM    6  C4  UNL     1      21.993  54.922  66.425  1.00  0.00     0.156 A 
HETATM    7  C1  UNL     1      18.584  55.473  65.941  1.00  0.00     0.045 C 
HETATM    8  N1  UNL     1      20.662  56.554  66.223  1.00  0.00    -0.297 N 
HETATM    9  N2  UNL     1      21.918  56.252  66.402  1.00  0.00    -0.279 N 
ATOM     10  H1  UNL     1      20.304  57.507  66.164  1.00  0.00     0.187 HD
HETATM   11  C3  UNL     1      23.047  57.189  66.551  1.00  0.00     0.179 C 
BRANCH   6  12
HETATM   12  N3  UNL     1      23.107  54.293  66.588  1.00  0.00    -0.251 N 
ATOM     13  H3  UNL     1      23.467  54.197  67.538  1.00  0.00     0.196 HD
BRANCH  12  14
HETATM   14  O1  UNL     1      23.831  53.752  65.573  1.00  0.00    -0.288 OA
ATOM     15  H1  UNL     1      24.259  54.261  64.894  1.00  0.00     0.244 HD
ENDBRANCH  12  14
ENDBRANCH   6  12
BRANCH   3  16
HETATM   16  C16 UNL     1      19.270  52.352  66.084  1.00  0.00     0.095 A 
HETATM   17  N11 UNL     1      18.536  51.695  67.033  1.00  0.00    -0.348 N 
HETATM   18  C17 UNL     1      17.459  51.126  66.502  1.00  0.00     0.181 A 
ATOM     19  H11 UNL     1      18.783  51.648  68.021  1.00  0.00     0.167 HD
HETATM   20  N12 UNL     1      17.506  51.423  65.192  1.00  0.00    -0.346 N 
HETATM   21  C18 UNL     1      18.576  52.159  64.891  1.00  0.00     0.138 A 
ATOM     22  H12 UNL     1      16.807  51.123  64.511  1.00  0.00     0.167 HD
BRANCH  21  23
HETATM   23  C19 UNL     1      18.955  52.669  63.561  1.00  0.00     0.312 C 
HETATM   24  O6  UNL     1      20.136  52.649  63.199  1.00  0.00    -0.258 OA
BRANCH  23  25
HETATM   25  O7  UNL     1      17.996  53.168  62.720  1.00  0.00    -0.317 OA
BRANCH  25  26
HETATM   26  C20 UNL     1      17.794  52.720  61.393  1.00  0.00     0.175 C 
HETATM   27  C21 UNL     1      17.010  51.442  61.432  1.00  0.00     0.034 C 
ENDBRANCH  25  26
ENDBRANCH  23  25
ENDBRANCH  21  23
ENDBRANCH   3  16
ENDBRANCH   1   3
BRANCH   1  28
HETATM   28  N5  UNL     1      21.686  51.005  65.680  1.00  0.00    -0.286 N 
ATOM     29  H5  UNL     1      20.819  50.513  65.463  1.00  0.00     0.188 HD
BRANCH  28  30
HETATM   30  C7  UNL     1      22.959  50.476  65.240  1.00  0.00     0.131 C 
HETATM   31  N6  UNL     1      23.539  51.035  64.267  1.00  0.00    -0.316 N 
HETATM   32  C8  UNL     1      24.780  50.609  63.740  1.00  0.00     0.208 C 
ATOM     33  H6  UNL     1      23.085  51.841  63.836  1.00  0.00     0.170 HD
HETATM   34  N7  UNL     1      25.345  51.312  62.658  1.00  0.00    -0.062 NA
HETATM   35  N8  UNL     1      25.298  49.587  64.314  1.00  0.00    -0.267 N 
HETATM   36  N9  UNL     1      24.744  48.898  65.368  1.00  0.00    -0.237 N 
ATOM     37  H8  UNL     1      26.196  49.256  63.961  1.00  0.00     0.190 HD
HETATM   38  C9  UNL     1      25.332  47.683  65.888  1.00  0.00     0.270 C 
HETATM   39  C13 UNL     1      23.542  49.352  65.987  1.00  0.00     0.249 C 
HETATM   40  O2  UNL     1      24.752  47.103  66.850  1.00  0.00    -0.269 OA
BRANCH  38  41
HETATM   41  C10 UNL     1      26.558  47.092  65.356  1.00  0.00     0.286 C 
BRANCH  41  42
HETATM   42  N10 UNL     1      27.430  46.764  66.482  1.00  0.00    -0.066 N 
ATOM     43 3H10 UNL     1      27.413  47.474  67.214  1.00  0.00     0.275 HD
ATOM     44 2H10 UNL     1      27.078  45.984  67.039  1.00  0.00     0.275 HD
ATOM     45 1H10 UNL     1      28.368  46.596  66.118  1.00  0.00     0.275 HD
ENDBRANCH  41  42
BRANCH  41  46
HETATM   46  C11 UNL     1      27.286  47.927  64.332  1.00  0.00     0.155 C 
BRANCH  46  47
HETATM   47  C12 UNL     1      27.082  47.231  63.017  1.00  0.00     0.175 C 
HETATM   48  O3  UNL     1      27.925  46.306  62.749  1.00  0.00    -0.648 OA
HETATM   49  O4  UNL     1      26.068  47.544  62.145  1.00  0.00    -0.648 OA
ENDBRANCH  46  47
ENDBRANCH  41  46
ENDBRANCH  38  41
BRANCH  39  50
HETATM   50  C14 UNL     1      23.802  49.872  67.387  1.00  0.00     0.155 C 
HETATM   51  C15 UNL     1      24.642  51.065  67.560  1.00  0.00     0.093 C 
HETATM   52  O5  UNL     1      23.329  49.324  68.356  1.00  0.00    -0.296 OA
ENDBRANCH  39  50
ENDBRANCH  28  30
ENDBRANCH   1  28
TORSDOF 14
ENDMDL
MODEL 3
REMARK VINA RESULT: -7.339363310      3.380      7.275
REMARK  14 active torsions:
REMARK  status: ('A' for Active; 'I' for Inactive)
REMARK    1  A    between atoms: C4_7  and  N3_8 
REMARK    2  A    between atoms: N3_8  and  O1_10 
REMARK    3  A    between atoms: C6_13  and  N4_14 
REMARK    4  A    between atoms: C6_13  and  C16_41 
REMARK    5  A    between atoms: N4_14  and  N5_16 
REMARK    6  A    between atoms: N5_16  and  C7_18 
REMARK       I    between atoms: N9_25  and  C9_26 
REMARK    7  A    between atoms: C9_26  and  C10_28 
REMARK    8  A    between atoms: C10_28  and  N10_29 
REMARK    9  A    between atoms: C10_28  and  C11_33 
REMARK   10  A    between atoms: C11_33  and  C12_34 
REMARK   11  A    between atoms: C13_37  and  C14_38 
REMARK   12  A    between atoms: C18_47  and  C19_48 
REMARK   13  A    between atoms: C19_48  and  O7_50 
REMARK   14  A    between atoms: O7_50  and  C20_51 
ROOT
HETATM    1  N4  UNL     1      21.932  53.326  64.933  1.00  0.00    -0.296 N 
ATOM      2  H4  UNL     1      21.572  52.746  64.174  1.00  0.00     0.187 HD
ENDROOT
BRANCH   1   3
HETATM    3  C6  UNL     1      21.111  54.346  65.555  1.00  0.00     0.093 C 
HETATM    4  C5  UNL     1      19.847  54.076  65.713  1.00  0.00     0.069 A 
HETATM    5  C2  UNL     1      18.793  54.778  66.246  1.00  0.00     0.055 A 
HETATM    6  C4  UNL     1      19.253  52.856  65.300  1.00  0.00     0.156 A 
HETATM    7  C1  UNL     1      18.774  55.976  66.780  1.00  0.00     0.045 C 
HETATM    8  N1  UNL     1      17.676  53.989  66.137  1.00  0.00    -0.297 N 
HETATM    9  N2  UNL     1      17.950  52.846  65.573  1.00  0.00    -0.279 N 
ATOM     10  H1  UNL     1      16.747  54.264  66.456  1.00  0.00     0.187 HD
HETATM   11  C3  UNL     1      17.011  51.745  65.289  1.00  0.00     0.179 C 
BRANCH   6  12
HETATM   12  N3  UNL     1      19.850  51.863  64.733  1.00  0.00    -0.251 N 
ATOM     13  H3  UNL     1      19.713  51.731  63.731  1.00  0.00     0.196 HD
BRANCH  12  14
HETATM   14  O1  UNL     1      20.650  50.981  65.390  1.00  0.00    -0.288 OA
ATOM     15  H1  UNL     1      21.563  51.143  65.597  1.00  0.00     0.244 HD
ENDBRANCH  12  14
ENDBRANCH   6  12
BRANCH   3  16
HETATM   16  C16 UNL     1      21.821  55.533  65.914  1.00  0.00     0.095 A 
HETATM   17  N11 UNL     1      22.581  55.771  67.027  1.00  0.00    -0.348 N 
HETATM   18  C17 UNL     1      23.056  57.010  67.031  1.00  0.00     0.181 A 
ATOM     19  H11 UNL     1      22.759  55.084  67.759  1.00  0.00     0.167 HD
HETATM   20  N12 UNL     1      22.592  57.576  65.903  1.00  0.00    -0.346 N 
HETATM   21  C18 UNL     1      21.845  56.727  65.197  1.00  0.00     0.138 A 
ATOM     22  H12 UNL     1      22.789  58.537  65.622  1.00  0.00     0.167 HD
BRANCH  21  23
HETATM   23  C19 UNL     1      21.174  56.995  63.912  1.00  0.00     0.312 C 
HETATM   24  O6  UNL     1      21.791  57.535  62.988  1.00  0.00    -0.258 OA
BRANCH  23  25
HETATM   25  O7  UNL     1      19.861  56.645  63.739  1.00  0.00    -0.317 OA
BRANCH  25  26
HETATM   26  C20 UNL     1      18.830  57.563  63.426  1.00  0.00     0.175 C 
HETATM   27  C21 UNL     1      17.661  56.802  62.874  1.00  0.00     0.034 C 
ENDBRANCH  25  26
ENDBRANCH  23  25
ENDBRANCH  21  23
ENDBRANCH   3  16
ENDBRANCH   1   3
BRANCH   1  28
HETATM   28  N5  UNL     1      23.234  53.168  65.414  1.00  0.00    -0.286 N 
ATOM     29  H5  UNL     1      23.697  53.929  65.913  1.00  0.00     0.188 HD
BRANCH  28  30
HETATM   30  C7  UNL     1      23.918  51.912  65.195  1.00  0.00     0.131 C 
HETATM   31  N6  UNL     1      24.521  51.739  64.098  1.00  0.00    -0.316 N 
HETATM   32  C8  UNL     1      25.217  50.556  63.761  1.00  0.00     0.208 C 
ATOM     33  H6  UNL     1      24.504  52.498  63.416  1.00  0.00     0.170 HD
HETATM   34  N7  UNL     1      25.867  50.471  62.513  1.00  0.00    -0.062 NA
HETATM   35  N8  UNL     1      25.196  49.634  64.652  1.00  0.00    -0.267 N 
HETATM   36  N9  UNL     1      24.559  49.716  65.869  1.00  0.00    -0.237 N 
ATOM     37  H8  UNL     1      25.693  48.769  64.442  1.00  0.00     0.190 HD
HETATM   38  C9  UNL     1      24.481  48.589  66.774  1.00  0.00     0.270 C 
HETATM   39  C13 UNL     1      23.926  50.924  66.283  1.00  0.00     0.249 C 
HETATM   40  O2  UNL     1      23.865  48.744  67.867  1.00  0.00    -0.269 OA
BRANCH  38  41
HETATM   41  C10 UNL     1      25.076  47.285  66.488  1.00  0.00     0.286 C 
BRANCH  41  42
HETATM   42  N10 UNL     1      24.133  46.253  66.910  1.00  0.00    -0.066 N 
ATOM     43 3H10 UNL     1      24.470  45.713  67.708  1.00  0.00     0.275 HD
ATOM     44 2H10 UNL     1      23.296  46.639  67.349  1.00  0.00     0.275 HD
ATOM     45 1H10 UNL     1      23.920  45.668  66.102  1.00  0.00     0.275 HD
ENDBRANCH  41  42
BRANCH  41  46
HETATM   46  C11 UNL     1      26.440  47.052  67.088  1.00  0.00     0.155 C 
BRANCH  46  47
HETATM   47  C12 UNL     1      27.410  47.142  65.945  1.00  0.00     0.175 C 
HETATM   48  O3  UNL     1      28.615  47.432  66.269  1.00  0.00    -0.648 OA
HETATM   49  O4  UNL     1      27.058  46.932  64.635  1.00  0.00    -0.648 OA
ENDBRANCH  46  47
ENDBRANCH  41  46
ENDBRANCH  38  41
BRANCH  39  50
HETATM   50  C14 UNL     1      24.673  51.575  67.431  1.00  0.00     0.155 C 
HETATM   51  C15 UNL     1      23.907  52.180  68.529  1.00  0.00     0.093 C 
HETATM   52  O5  UNL     1      25.882  51.600  67.455  1.00  0.00    -0.296 OA
ENDBRANCH  39  50
ENDBRANCH  28  30
ENDBRANCH   1  28
TORSDOF 14
ENDMDL
MODEL 4
REMARK VINA RESULT: -7.335398519      2.176      8.425
REMARK  14 active torsions:
REMARK  status: ('A' for Active; 'I' for Inactive)
REMARK    1  A    between atoms: C4_7  and  N3_8 
REMARK    2  A    between atoms: N3_8  and  O1_10 
REMARK    3  A    between atoms: C6_13  and  N4_14 
REMARK    4  A    between atoms: C6_13  and  C16_41 
REMARK    5  A    between atoms: N4_14  and  N5_16 
REMARK    6  A    between atoms: N5_16  and  C7_18 
REMARK       I    between atoms: N9_25  and  C9_26 
REMARK    7  A    between atoms: C9_26  and  C10_28 
REMARK    8  A    between atoms: C10_28  and  N10_29 
REMARK    9  A    between atoms: C10_28  and  C11_33 
REMARK   10  A    between atoms: C11_33  and  C12_34 
REMARK   11  A    between atoms: C13_37  and  C14_38 
REMARK   12  A    between atoms: C18_47  and  C19_48 
REMARK   13  A    between atoms: C19_48  and  O7_50 
REMARK   14  A    between atoms: O7_50  and  C20_51 
ROOT
HETATM    1  N4  UNL     1      27.169  46.402  62.897  1.00  0.00    -0.296 N 
ATOM      2  H4  UNL     1      26.719  45.515  62.666  1.00  0.00     0.187 HD
ENDROOT
BRANCH   1   3
HETATM    3  C6  UNL     1      27.603  47.318  61.860  1.00  0.00     0.093 C 
HETATM    4  C5  UNL     1      28.569  46.919  61.083  1.00  0.00     0.069 A 
HETATM    5  C2  UNL     1      29.225  47.497  60.023  1.00  0.00     0.055 A 
HETATM    6  C4  UNL     1      29.204  45.657  61.213  1.00  0.00     0.156 A 
HETATM    7  C1  UNL     1      29.042  48.672  59.470  1.00  0.00     0.045 C 
HETATM    8  N1  UNL     1      30.172  46.604  59.589  1.00  0.00    -0.297 N 
HETATM    9  N2  UNL     1      30.160  45.510  60.297  1.00  0.00    -0.279 N 
ATOM     10  H1  UNL     1      30.806  46.776  58.809  1.00  0.00     0.187 HD
HETATM   11  C3  UNL     1      31.027  44.329  60.128  1.00  0.00     0.179 C 
BRANCH   6  12
HETATM   12  N3  UNL     1      28.931  44.744  62.083  1.00  0.00    -0.251 N 
ATOM     13  H3  UNL     1      28.348  45.002  62.879  1.00  0.00     0.196 HD
BRANCH  12  14
HETATM   14  O1  UNL     1      29.373  43.461  62.003  1.00  0.00    -0.288 OA
ATOM     15  H1  UNL     1      29.875  43.028  62.684  1.00  0.00     0.244 HD
ENDBRANCH  12  14
ENDBRANCH   6  12
BRANCH   3  16
HETATM   16  C16 UNL     1      26.896  48.558  61.839  1.00  0.00     0.095 A 
HETATM   17  N11 UNL     1      26.873  49.546  62.786  1.00  0.00    -0.348 N 
HETATM   18  C17 UNL     1      26.067  50.538  62.428  1.00  0.00     0.181 A 
ATOM     19  H11 UNL     1      27.406  49.522  63.654  1.00  0.00     0.167 HD
HETATM   20  N12 UNL     1      25.565  50.181  61.234  1.00  0.00    -0.346 N 
HETATM   21  C18 UNL     1      26.034  48.997  60.836  1.00  0.00     0.138 A 
ATOM     22  H12 UNL     1      24.907  50.746  60.697  1.00  0.00     0.167 HD
BRANCH  21  23
HETATM   23  C19 UNL     1      25.707  48.290  59.585  1.00  0.00     0.312 C 
HETATM   24  O6  UNL     1      25.639  48.910  58.519  1.00  0.00    -0.258 OA
BRANCH  23  25
HETATM   25  O7  UNL     1      25.478  46.940  59.601  1.00  0.00    -0.317 OA
BRANCH  25  26
HETATM   26  C20 UNL     1      25.922  46.048  58.596  1.00  0.00     0.175 C 
HETATM   27  C21 UNL     1      26.238  44.727  59.231  1.00  0.00     0.034 C 
ENDBRANCH  25  26
ENDBRANCH  23  25
ENDBRANCH  21  23
ENDBRANCH   3  16
ENDBRANCH   1   3
BRANCH   1  28
HETATM   28  N5  UNL     1      27.390  46.782  64.223  1.00  0.00    -0.286 N 
ATOM     29  H5  UNL     1      28.320  46.704  64.635  1.00  0.00     0.188 HD
BRANCH  28  30
HETATM   30  C7  UNL     1      26.282  47.287  65.004  1.00  0.00     0.131 C 
HETATM   31  N6  UNL     1      25.266  46.550  65.152  1.00  0.00    -0.316 N 
HETATM   32  C8  UNL     1      24.118  46.932  65.885  1.00  0.00     0.208 C 
ATOM     33  H6  UNL     1      25.274  45.627  64.719  1.00  0.00     0.170 HD
HETATM   34  N7  UNL     1      23.043  46.028  65.998  1.00  0.00    -0.062 NA
HETATM   35  N8  UNL     1      24.160  48.106  66.399  1.00  0.00    -0.267 N 
HETATM   36  N9  UNL     1      25.208  48.989  66.285  1.00  0.00    -0.237 N 
ATOM     37  H8  UNL     1      23.349  48.410  66.937  1.00  0.00     0.190 HD
HETATM   38  C9  UNL     1      25.134  50.341  66.794  1.00  0.00     0.270 C 
HETATM   39  C13 UNL     1      26.418  48.608  65.634  1.00  0.00     0.249 C 
HETATM   40  O2  UNL     1      26.138  51.094  66.636  1.00  0.00    -0.269 OA
BRANCH  38  41
HETATM   41  C10 UNL     1      23.960  50.879  67.479  1.00  0.00     0.286 C 
BRANCH  41  42
HETATM   42  N10 UNL     1      22.821  50.789  66.568  1.00  0.00    -0.066 N 
ATOM     43 3H10 UNL     1      23.052  51.084  65.619  1.00  0.00     0.275 HD
ATOM     44 2H10 UNL     1      22.563  49.826  66.354  1.00  0.00     0.275 HD
ATOM     45 1H10 UNL     1      22.051  51.324  66.970  1.00  0.00     0.275 HD
ENDBRANCH  41  42
BRANCH  41  46
HETATM   46  C11 UNL     1      24.113  52.279  68.019  1.00  0.00     0.155 C 
BRANCH  46  47
HETATM   47  C12 UNL     1      23.292  53.157  67.119  1.00  0.00     0.175 C 
HETATM   48  O3  UNL     1      22.201  53.596  67.625  1.00  0.00    -0.648 OA
HETATM   49  O4  UNL     1      23.663  53.483  65.837  1.00  0.00    -0.648 OA
ENDBRANCH  46  47
ENDBRANCH  41  46
ENDBRANCH  38  41
BRANCH  39  50
HETATM   50  C14 UNL     1      27.561  48.481  66.623  1.00  0.00     0.155 C 
HETATM   51  C15 UNL     1      27.565  47.356  67.568  1.00  0.00     0.093 C 
HETATM   52  O5  UNL     1      28.464  49.285  66.641  1.00  0.00    -0.296 OA
ENDBRANCH  39  50
ENDBRANCH  28  30
ENDBRANCH   1  28
TORSDOF 14
ENDMDL
MODEL 5
REMARK VINA RESULT: -7.174524530     10.192     12.894
REMARK  14 active torsions:
REMARK  status: ('A' for Active; 'I' for Inactive)
REMARK    1  A    between atoms: C4_7  and  N3_8 
REMARK    2  A    between atoms: N3_8  and  O1_10 
REMARK    3  A    between atoms: C6_13  and  N4_14 
REMARK    4  A    between atoms: C6_13  and  C16_41 
REMARK    5  A    between atoms: N4_14  and  N5_16 
REMARK    6  A    between atoms: N5_16  and  C7_18 
REMARK       I    between atoms: N9_25  and  C9_26 
REMARK    7  A    between atoms: C9_26  and  C10_28 
REMARK    8  A    between atoms: C10_28  and  N10_29 
REMARK    9  A    between atoms: C10_28  and  C11_33 
REMARK   10  A    between atoms: C11_33  and  C12_34 
REMARK   11  A    between atoms: C13_37  and  C14_38 
REMARK   12  A    between atoms: C18_47  and  C19_48 
REMARK   13  A    between atoms: C19_48  and  O7_50 
REMARK   14  A    between atoms: O7_50  and  C20_51 
ROOT
HETATM    1  N4  UNL     1      22.588  49.009  53.603  1.00  0.00    -0.296 N 
ATOM      2  H4  UNL     1      23.561  49.217  53.376  1.00  0.00     0.187 HD
ENDROOT
BRANCH   1   3
HETATM    3  C6  UNL     1      21.495  49.633  52.884  1.00  0.00     0.093 C 
HETATM    4  C5  UNL     1      21.711  49.958  51.642  1.00  0.00     0.069 A 
HETATM    5  C2  UNL     1      20.936  50.550  50.673  1.00  0.00     0.055 A 
HETATM    6  C4  UNL     1      22.948  49.738  50.982  1.00  0.00     0.156 A 
HETATM    7  C1  UNL     1      19.694  50.966  50.740  1.00  0.00     0.045 C 
HETATM    8  N1  UNL     1      21.700  50.652  49.539  1.00  0.00    -0.297 N 
HETATM    9  N2  UNL     1      22.898  50.169  49.723  1.00  0.00    -0.279 N 
ATOM     10  H1  UNL     1      21.373  51.055  48.662  1.00  0.00     0.187 HD
HETATM   11  C3  UNL     1      23.993  50.104  48.738  1.00  0.00     0.179 C 
BRANCH   6  12
HETATM   12  N3  UNL     1      24.005  49.200  51.489  1.00  0.00    -0.251 N 
ATOM     13  H3  UNL     1      24.120  48.190  51.393  1.00  0.00     0.196 HD
BRANCH  12  14
HETATM   14  O1  UNL     1      24.974  49.894  52.141  1.00  0.00    -0.288 OA
ATOM     15  H1  UNL     1      24.812  50.465  52.883  1.00  0.00     0.244 HD
ENDBRANCH  12  14
ENDBRANCH   6  12
BRANCH   3  16
HETATM   16  C16 UNL     1      20.308  49.811  53.659  1.00  0.00     0.095 A 
HETATM   17  N11 UNL     1      19.233  48.975  53.779  1.00  0.00    -0.348 N 
HETATM   18  C17 UNL     1      18.299  49.499  54.564  1.00  0.00     0.181 A 
ATOM     19  H11 UNL     1      19.157  48.066  53.323  1.00  0.00     0.167 HD
HETATM   20  N12 UNL     1      18.784  50.691  54.953  1.00  0.00    -0.346 N 
HETATM   21  C18 UNL     1      19.991  50.924  54.435  1.00  0.00     0.138 A 
ATOM     22  H12 UNL     1      18.291  51.337  55.569  1.00  0.00     0.167 HD
BRANCH  21  23
HETATM   23  C19 UNL     1      20.826  52.121  54.640  1.00  0.00     0.312 C 
HETATM   24  O6  UNL     1      21.997  52.006  55.019  1.00  0.00    -0.258 OA
BRANCH  23  25
HETATM   25  O7  UNL     1      20.307  53.367  54.411  1.00  0.00    -0.317 OA
BRANCH  25  26
HETATM   26  C20 UNL     1      19.770  53.787  53.171  1.00  0.00     0.175 C 
HETATM   27  C21 UNL     1      18.302  54.043  53.345  1.00  0.00     0.034 C 
ENDBRANCH  25  26
ENDBRANCH  23  25
ENDBRANCH  21  23
ENDBRANCH   3  16
ENDBRANCH   1   3
BRANCH   1  28
HETATM   28  N5  UNL     1      22.256  48.109  54.619  1.00  0.00    -0.286 N 
ATOM     29  H5  UNL     1      21.647  48.395  55.386  1.00  0.00     0.188 HD
BRANCH  28  30
HETATM   30  C7  UNL     1      22.789  46.764  54.570  1.00  0.00     0.131 C 
HETATM   31  N6  UNL     1      23.817  46.500  55.255  1.00  0.00    -0.316 N 
HETATM   32  C8  UNL     1      24.436  45.229  55.285  1.00  0.00     0.208 C 
ATOM     33  H6  UNL     1      24.224  47.246  55.819  1.00  0.00     0.170 HD
HETATM   34  N7  UNL     1      25.574  45.037  56.094  1.00  0.00    -0.062 NA
HETATM   35  N8  UNL     1      23.887  44.333  54.550  1.00  0.00    -0.267 N 
HETATM   36  N9  UNL     1      22.779  44.522  53.758  1.00  0.00    -0.237 N 
ATOM     37  H8  UNL     1      24.307  43.404  54.552  1.00  0.00     0.190 HD
HETATM   38  C9  UNL     1      22.287  43.494  52.865  1.00  0.00     0.270 C 
HETATM   39  C13 UNL     1      22.072  45.760  53.772  1.00  0.00     0.249 C 
HETATM   40  O2  UNL     1      21.269  43.753  52.161  1.00  0.00    -0.269 OA
BRANCH  38  41
HETATM   41  C10 UNL     1      22.906  42.177  52.737  1.00  0.00     0.286 C 
BRANCH  41  42
HETATM   42  N10 UNL     1      22.898  41.807  51.323  1.00  0.00    -0.066 N 
ATOM     43 3H10 UNL     1      22.644  40.830  51.173  1.00  0.00     0.275 HD
ATOM     44 2H10 UNL     1      22.125  42.231  50.809  1.00  0.00     0.275 HD
ATOM     45 1H10 UNL     1      23.809  42.041  50.929  1.00  0.00     0.275 HD
ENDBRANCH  41  42
BRANCH  41  46
HETATM   46  C11 UNL     1      22.295  41.090  53.585  1.00  0.00     0.155 C 
BRANCH  46  47
HETATM   47  C12 UNL     1      22.601  39.800  52.880  1.00  0.00     0.175 C 
HETATM   48  O3  UNL     1      23.804  39.378  53.004  1.00  0.00    -0.648 OA
HETATM   49  O4  UNL     1      21.675  39.100  52.147  1.00  0.00    -0.648 OA
ENDBRANCH  46  47
ENDBRANCH  41  46
ENDBRANCH  38  41
BRANCH  39  50
HETATM   50  C14 UNL     1      20.708  45.611  54.417  1.00  0.00     0.155 C 
HETATM   51  C15 UNL     1      20.577  44.786  55.626  1.00  0.00     0.093 C 
HETATM   52  O5  UNL     1      19.735  46.161  53.955  1.00  0.00    -0.296 OA
ENDBRANCH  39  50
ENDBRANCH  28  30
ENDBRANCH   1  28
TORSDOF 14
ENDMDL
