MODEL 1
REMARK VINA RESULT: -10.260473783      0.000      0.000
REMARK  11 active torsions:
REMARK  status: ('A' for Active; 'I' for Inactive)
REMARK    1  A    between atoms: C2_2  and  O1_3 
REMARK    2  A    between atoms: C2_2  and  C3_5 
REMARK    3  A    between atoms: C2_2  and  C4_8 
REMARK    4  A    between atoms: C3_5  and  O2_6 
REMARK    5  A    between atoms: C4_8  and  N1_9 
REMARK       I    between atoms: C5_11  and  N2_12 
REMARK       I    between atoms: C5_11  and  N4_20 
REMARK    6  A    between atoms: N2_12  and  N3_14 
REMARK    7  A    between atoms: N3_14  and  S1_16 
REMARK    8  A    between atoms: N4_20  and  C7_22 
REMARK    9  A    between atoms: N5_26  and  C10_27 
REMARK   10  A    between atoms: N6_33  and  N7_34 
REMARK       I    between atoms: N7_34  and  C13_36 
REMARK   11  A    between atoms: C13_36  and  C14_38 
ROOT
HETATM    1  C7  UNL     1      24.168  50.606  65.175  1.00  0.00     0.083 A 
HETATM    2  C8  UNL     1      23.782  50.234  66.430  1.00  0.00     0.107 A 
HETATM    3  C9  UNL     1      24.291  49.095  66.939  1.00  0.00     0.258 A 
HETATM    4  O5  UNL     1      23.936  48.738  68.114  1.00  0.00    -0.267 OA
HETATM    5  N5  UNL     1      25.179  48.243  66.318  1.00  0.00    -0.222 N 
HETATM    6  C11 UNL     1      25.559  48.616  65.076  1.00  0.00     0.146 A 
HETATM    7  C12 UNL     1      26.442  47.858  64.335  1.00  0.00     0.297 A 
HETATM    8  O6  UNL     1      26.870  46.824  64.866  1.00  0.00    -0.264 OA
HETATM    9  N6  UNL     1      26.829  48.221  63.088  1.00  0.00    -0.211 N 
HETATM   10  C16 UNL     1      26.302  49.382  62.585  1.00  0.00     0.211 A 
HETATM   11  N11 UNL     1      25.447  50.148  63.259  1.00  0.00    -0.347 N 
ATOM     12  H11 UNL     1      25.087  51.003  62.835  1.00  0.00     0.167 HD
HETATM   13  C17 UNL     1      25.055  49.795  64.503  1.00  0.00     0.094 A 
ENDROOT
BRANCH   1  14
HETATM   14  N4  UNL     1      23.666  51.790  64.594  1.00  0.00    -0.188 N 
HETATM   15  C5  UNL     1      22.734  52.651  65.277  1.00  0.00     0.693 C 
HETATM   16  N1  UNL     1      21.474  52.397  65.281  1.00  0.00    -0.222 N 
HETATM   17  N2  UNL     1      23.184  53.809  65.963  1.00  0.00    -0.123 N 
ATOM     18  H1  UNL     1      21.137  51.568  64.791  1.00  0.00     0.177 HD
ATOM     19  H2  UNL     1      23.739  54.501  65.458  1.00  0.00     0.206 HD
ATOM     20  H4  UNL     1      23.974  52.046  63.656  1.00  0.00     0.184 HD
BRANCH  16  21
HETATM   21  C4  UNL     1      20.529  53.234  65.947  1.00  0.00     0.177 C 
BRANCH  21  22
HETATM   22  C2  UNL     1      19.523  53.835  64.986  1.00  0.00     0.091 C 
HETATM   23  C1  UNL     1      18.129  53.788  65.568  1.00  0.00     0.050 C 
BRANCH  22  24
HETATM   24  O1  UNL     1      19.503  53.126  63.779  1.00  0.00    -0.386 OA
ATOM     25  H1  UNL     1      20.031  52.345  63.896  1.00  0.00     0.210 HD
ENDBRANCH  22  24
BRANCH  22  26
HETATM   26  C3  UNL     1      19.899  55.283  64.746  1.00  0.00     0.203 C 
BRANCH  26  27
HETATM   27  O2  UNL     1      20.991  55.654  65.510  1.00  0.00    -0.398 OA
ATOM     28  H2  UNL     1      21.709  55.953  64.964  1.00  0.00     0.209 HD
ENDBRANCH  26  27
ENDBRANCH  22  26
ENDBRANCH  21  22
ENDBRANCH  16  21
BRANCH  17  29
HETATM   29  N3  UNL     1      22.892  54.030  67.307  1.00  0.00    -0.213 N 
ATOM     30  H3  UNL     1      21.964  54.281  67.650  1.00  0.00     0.200 HD
BRANCH  29  31
HETATM   31  S1  UNL     1      24.269  53.831  68.331  1.00  0.00     0.240 S 
HETATM   32  C6  UNL     1      25.060  55.372  68.699  1.00  0.00     0.187 C 
HETATM   33  O3  UNL     1      23.780  53.235  69.638  1.00  0.00    -0.205 OA
HETATM   34  O4  UNL     1      25.264  52.940  67.656  1.00  0.00    -0.205 OA
ENDBRANCH  29  31
ENDBRANCH  17  29
ENDBRANCH   1  14
BRANCH   5  35
HETATM   35  C10 UNL     1      25.652  47.074  66.938  1.00  0.00     0.354 C 
HETATM   36  F1  UNL     1      26.835  47.108  67.646  1.00  0.00    -0.152 F 
HETATM   37  F2  UNL     1      24.779  46.052  67.231  1.00  0.00    -0.152 F 
ENDBRANCH   5  35
BRANCH   9  38
HETATM   38  N7  UNL     1      27.707  47.520  62.299  1.00  0.00    -0.254 N 
HETATM   39  C13 UNL     1      27.619  46.405  61.470  1.00  0.00     0.292 C 
HETATM   40  O7  UNL     1      26.559  45.726  61.229  1.00  0.00    -0.264 OA
ATOM     41  H7  UNL     1      28.649  47.909  62.326  1.00  0.00     0.191 HD
BRANCH  39  42
HETATM   42  C14 UNL     1      28.822  45.893  60.756  1.00  0.00     0.171 A 
HETATM   43  N8  UNL     1      30.050  45.948  61.351  1.00  0.00    -0.232 N 
HETATM   44  O8  UNL     1      30.896  45.475  60.518  1.00  0.00    -0.155 OA
ATOM     45  H8  UNL     1      30.253  46.299  62.286  1.00  0.00     0.197 HD
HETATM   46  N9  UNL     1      30.362  45.110  59.423  1.00  0.00    -0.224 N 
HETATM   47  C15 UNL     1      29.008  45.366  59.533  1.00  0.00     0.155 A 
ATOM     48  H9  UNL     1      30.841  44.707  58.618  1.00  0.00     0.198 HD
HETATM   49  N10 UNL     1      28.196  45.161  58.598  1.00  0.00    -0.382 N 
ATOM     50 2H10 UNL     1      27.197  45.350  58.679  1.00  0.00     0.157 HD
ATOM     51 1H10 UNL     1      28.337  44.761  57.670  1.00  0.00     0.157 HD
ENDBRANCH  39  42
ENDBRANCH   9  38
TORSDOF 11
ENDMDL
MODEL 2
REMARK VINA RESULT: -10.136137180      0.742      1.117
REMARK  11 active torsions:
REMARK  status: ('A' for Active; 'I' for Inactive)
REMARK    1  A    between atoms: C2_2  and  O1_3 
REMARK    2  A    between atoms: C2_2  and  C3_5 
REMARK    3  A    between atoms: C2_2  and  C4_8 
REMARK    4  A    between atoms: C3_5  and  O2_6 
REMARK    5  A    between atoms: C4_8  and  N1_9 
REMARK       I    between atoms: C5_11  and  N2_12 
REMARK       I    between atoms: C5_11  and  N4_20 
REMARK    6  A    between atoms: N2_12  and  N3_14 
REMARK    7  A    between atoms: N3_14  and  S1_16 
REMARK    8  A    between atoms: N4_20  and  C7_22 
REMARK    9  A    between atoms: N5_26  and  C10_27 
REMARK   10  A    between atoms: N6_33  and  N7_34 
REMARK       I    between atoms: N7_34  and  C13_36 
REMARK   11  A    between atoms: C13_36  and  C14_38 
ROOT
HETATM    1  C7  UNL     1      24.133  50.596  65.182  1.00  0.00     0.083 A 
HETATM    2  C8  UNL     1      23.739  50.219  66.433  1.00  0.00     0.107 A 
HETATM    3  C9  UNL     1      24.242  49.077  66.939  1.00  0.00     0.258 A 
HETATM    4  O5  UNL     1      23.879  48.714  68.110  1.00  0.00    -0.267 OA
HETATM    5  N5  UNL     1      25.132  48.226  66.319  1.00  0.00    -0.222 N 
HETATM    6  C11 UNL     1      25.520  48.604  65.081  1.00  0.00     0.146 A 
HETATM    7  C12 UNL     1      26.407  47.849  64.342  1.00  0.00     0.297 A 
HETATM    8  O6  UNL     1      26.829  46.811  64.870  1.00  0.00    -0.264 OA
HETATM    9  N6  UNL     1      26.802  48.217  63.099  1.00  0.00    -0.211 N 
HETATM   10  C16 UNL     1      26.281  49.382  62.599  1.00  0.00     0.211 A 
HETATM   11  N11 UNL     1      25.423  50.146  63.271  1.00  0.00    -0.347 N 
ATOM     12  H11 UNL     1      25.067  51.004  62.849  1.00  0.00     0.167 HD
HETATM   13  C17 UNL     1      25.023  49.788  64.512  1.00  0.00     0.094 A 
ENDROOT
BRANCH   1  14
HETATM   14  N4  UNL     1      23.637  51.785  64.604  1.00  0.00    -0.188 N 
HETATM   15  C5  UNL     1      22.719  52.656  65.294  1.00  0.00     0.693 C 
HETATM   16  N1  UNL     1      21.457  52.414  65.310  1.00  0.00    -0.222 N 
HETATM   17  N2  UNL     1      23.186  53.810  65.974  1.00  0.00    -0.123 N 
ATOM     18  H1  UNL     1      21.108  51.587  64.824  1.00  0.00     0.177 HD
ATOM     19  H2  UNL     1      23.743  54.496  65.463  1.00  0.00     0.206 HD
ATOM     20  H4  UNL     1      23.939  52.036  63.663  1.00  0.00     0.184 HD
BRANCH  16  21
HETATM   21  C4  UNL     1      20.526  53.259  65.983  1.00  0.00     0.177 C 
BRANCH  21  22
HETATM   22  C2  UNL     1      19.176  53.283  65.295  1.00  0.00     0.091 C 
HETATM   23  C1  UNL     1      19.282  52.747  63.885  1.00  0.00     0.050 C 
BRANCH  22  24
HETATM   24  O1  UNL     1      18.680  54.590  65.216  1.00  0.00    -0.386 OA
ATOM     25  H1  UNL     1      18.674  54.949  66.095  1.00  0.00     0.210 HD
ENDBRANCH  22  24
BRANCH  22  26
HETATM   26  C3  UNL     1      18.225  52.401  66.077  1.00  0.00     0.203 C 
BRANCH  26  27
HETATM   27  O2  UNL     1      18.847  51.239  66.499  1.00  0.00    -0.398 OA
ATOM     28  H2  UNL     1      18.957  50.626  65.782  1.00  0.00     0.209 HD
ENDBRANCH  26  27
ENDBRANCH  22  26
ENDBRANCH  21  22
ENDBRANCH  16  21
BRANCH  17  29
HETATM   29  N3  UNL     1      22.908  54.035  67.321  1.00  0.00    -0.213 N 
ATOM     30  H3  UNL     1      21.986  54.293  67.672  1.00  0.00     0.200 HD
BRANCH  29  31
HETATM   31  S1  UNL     1      24.294  53.830  68.332  1.00  0.00     0.240 S 
HETATM   32  C6  UNL     1      25.097  55.367  68.691  1.00  0.00     0.187 C 
HETATM   33  O3  UNL     1      23.814  53.238  69.644  1.00  0.00    -0.205 OA
HETATM   34  O4  UNL     1      25.277  52.932  67.649  1.00  0.00    -0.205 OA
ENDBRANCH  29  31
ENDBRANCH  17  29
ENDBRANCH   1  14
BRANCH   5  35
HETATM   35  C10 UNL     1      25.599  47.052  66.936  1.00  0.00     0.354 C 
HETATM   36  F1  UNL     1      26.780  47.080  67.648  1.00  0.00    -0.152 F 
HETATM   37  F2  UNL     1      24.722  46.032  67.222  1.00  0.00    -0.152 F 
ENDBRANCH   5  35
BRANCH   9  38
HETATM   38  N7  UNL     1      27.683  47.518  62.312  1.00  0.00    -0.254 N 
HETATM   39  C13 UNL     1      27.598  46.408  61.476  1.00  0.00     0.292 C 
HETATM   40  O7  UNL     1      26.538  45.734  61.223  1.00  0.00    -0.264 OA
ATOM     41  H7  UNL     1      28.627  47.905  62.349  1.00  0.00     0.191 HD
BRANCH  39  42
HETATM   42  C14 UNL     1      28.805  45.898  60.767  1.00  0.00     0.171 A 
HETATM   43  N8  UNL     1      30.031  45.961  61.364  1.00  0.00    -0.232 N 
HETATM   44  O8  UNL     1      30.881  45.487  60.536  1.00  0.00    -0.155 OA
ATOM     45  H8  UNL     1      30.232  46.319  62.297  1.00  0.00     0.197 HD
HETATM   46  N9  UNL     1      30.351  45.113  59.441  1.00  0.00    -0.224 N 
HETATM   47  C15 UNL     1      28.995  45.364  59.548  1.00  0.00     0.155 A 
ATOM     48  H9  UNL     1      30.833  44.707  58.640  1.00  0.00     0.198 HD
HETATM   49  N10 UNL     1      28.186  45.150  58.612  1.00  0.00    -0.382 N 
ATOM     50 2H10 UNL     1      27.186  45.334  58.691  1.00  0.00     0.157 HD
ATOM     51 1H10 UNL     1      28.331  44.744  57.687  1.00  0.00     0.157 HD
ENDBRANCH  39  42
ENDBRANCH   9  38
TORSDOF 11
ENDMDL
MODEL 3
REMARK VINA RESULT: -10.109414238      1.077      1.295
REMARK  11 active torsions:
REMARK  status: ('A' for Active; 'I' for Inactive)
REMARK    1  A    between atoms: C2_2  and  O1_3 
REMARK    2  A    between atoms: C2_2  and  C3_5 
REMARK    3  A    between atoms: C2_2  and  C4_8 
REMARK    4  A    between atoms: C3_5  and  O2_6 
REMARK    5  A    between atoms: C4_8  and  N1_9 
REMARK       I    between atoms: C5_11  and  N2_12 
REMARK       I    between atoms: C5_11  and  N4_20 
REMARK    6  A    between atoms: N2_12  and  N3_14 
REMARK    7  A    between atoms: N3_14  and  S1_16 
REMARK    8  A    between atoms: N4_20  and  C7_22 
REMARK    9  A    between atoms: N5_26  and  C10_27 
REMARK   10  A    between atoms: N6_33  and  N7_34 
REMARK       I    between atoms: N7_34  and  C13_36 
REMARK   11  A    between atoms: C13_36  and  C14_38 
ROOT
HETATM    1  C7  UNL     1      24.200  50.638  65.200  1.00  0.00     0.083 A 
HETATM    2  C8  UNL     1      23.751  50.302  66.445  1.00  0.00     0.107 A 
HETATM    3  C9  UNL     1      24.176  49.141  66.980  1.00  0.00     0.258 A 
HETATM    4  O5  UNL     1      23.762  48.818  68.146  1.00  0.00    -0.267 OA
HETATM    5  N5  UNL     1      25.034  48.233  66.398  1.00  0.00    -0.222 N 
HETATM    6  C11 UNL     1      25.476  48.570  65.166  1.00  0.00     0.146 A 
HETATM    7  C12 UNL     1      26.339  47.756  64.462  1.00  0.00     0.297 A 
HETATM    8  O6  UNL     1      26.688  46.705  65.016  1.00  0.00    -0.264 OA
HETATM    9  N6  UNL     1      26.787  48.082  63.226  1.00  0.00    -0.211 N 
HETATM   10  C16 UNL     1      26.345  49.267  62.695  1.00  0.00     0.211 A 
HETATM   11  N11 UNL     1      25.514  50.087  63.333  1.00  0.00    -0.347 N 
ATOM     12  H11 UNL     1      25.218  50.957  62.890  1.00  0.00     0.167 HD
HETATM   13  C17 UNL     1      25.061  49.771  64.566  1.00  0.00     0.094 A 
ENDROOT
BRANCH   1  14
HETATM   14  N4  UNL     1      23.787  51.843  64.593  1.00  0.00    -0.188 N 
HETATM   15  C5  UNL     1      22.856  52.746  65.220  1.00  0.00     0.693 C 
HETATM   16  N1  UNL     1      21.587  52.549  65.150  1.00  0.00    -0.222 N 
HETATM   17  N2  UNL     1      23.317  53.884  65.934  1.00  0.00    -0.123 N 
ATOM     18  H1  UNL     1      21.243  51.735  64.640  1.00  0.00     0.177 HD
ATOM     19  H2  UNL     1      23.931  54.549  65.462  1.00  0.00     0.206 HD
ATOM     20  H4  UNL     1      24.161  52.083  63.675  1.00  0.00     0.184 HD
BRANCH  16  21
HETATM   21  C4  UNL     1      20.644  53.428  65.760  1.00  0.00     0.177 C 
BRANCH  21  22
HETATM   22  C2  UNL     1      19.304  52.757  65.988  1.00  0.00     0.091 C 
HETATM   23  C1  UNL     1      18.584  53.379  67.163  1.00  0.00     0.050 C 
BRANCH  22  24
HETATM   24  O1  UNL     1      19.471  51.395  66.265  1.00  0.00    -0.386 OA
ATOM     25  H1  UNL     1      20.009  51.025  65.575  1.00  0.00     0.210 HD
ENDBRANCH  22  24
BRANCH  22  26
HETATM   26  C3  UNL     1      18.457  52.947  64.746  1.00  0.00     0.203 C 
BRANCH  26  27
HETATM   27  O2  UNL     1      19.177  52.666  63.598  1.00  0.00    -0.398 OA
ATOM     28  H2  UNL     1      18.810  51.923  63.134  1.00  0.00     0.209 HD
ENDBRANCH  26  27
ENDBRANCH  22  26
ENDBRANCH  21  22
ENDBRANCH  16  21
BRANCH  17  29
HETATM   29  N3  UNL     1      22.956  54.119  67.258  1.00  0.00    -0.213 N 
ATOM     30  H3  UNL     1      22.030  54.438  67.544  1.00  0.00     0.200 HD
BRANCH  29  31
HETATM   31  S1  UNL     1      24.245  53.811  68.366  1.00  0.00     0.240 S 
HETATM   32  C6  UNL     1      23.703  52.919  69.797  1.00  0.00     0.187 C 
HETATM   33  O3  UNL     1      25.269  52.954  67.643  1.00  0.00    -0.205 OA
HETATM   34  O4  UNL     1      24.834  55.111  68.816  1.00  0.00    -0.205 OA
ENDBRANCH  29  31
ENDBRANCH  17  29
ENDBRANCH   1  14
BRANCH   5  35
HETATM   35  C10 UNL     1      25.418  47.045  67.043  1.00  0.00     0.354 C 
HETATM   36  F1  UNL     1      26.556  47.029  67.822  1.00  0.00    -0.152 F 
HETATM   37  F2  UNL     1      24.485  46.062  67.282  1.00  0.00    -0.152 F 
ENDBRANCH   5  35
BRANCH   9  38
HETATM   38  N7  UNL     1      27.649  47.324  62.474  1.00  0.00    -0.254 N 
HETATM   39  C13 UNL     1      27.515  46.441  61.405  1.00  0.00     0.292 C 
HETATM   40  O7  UNL     1      26.421  46.128  60.818  1.00  0.00    -0.264 OA
ATOM     41  H7  UNL     1      28.620  47.433  62.767  1.00  0.00     0.191 HD
BRANCH  39  42
HETATM   42  C14 UNL     1      28.709  45.761  60.829  1.00  0.00     0.171 A 
HETATM   43  N8  UNL     1      29.948  46.319  60.959  1.00  0.00    -0.232 N 
HETATM   44  O8  UNL     1      30.775  45.552  60.358  1.00  0.00    -0.155 OA
ATOM     45  H8  UNL     1      30.173  47.186  61.446  1.00  0.00     0.197 HD
HETATM   46  N9  UNL     1      30.217  44.536  59.835  1.00  0.00    -0.224 N 
HETATM   47  C15 UNL     1      28.867  44.631  60.117  1.00  0.00     0.155 A 
ATOM     48  H9  UNL     1      30.677  43.793  59.309  1.00  0.00     0.198 HD
HETATM   49  N10 UNL     1      28.022  43.802  59.700  1.00  0.00    -0.382 N 
ATOM     50 2H10 UNL     1      27.026  43.872  59.908  1.00  0.00     0.157 HD
ATOM     51 1H10 UNL     1      28.142  42.945  59.160  1.00  0.00     0.157 HD
ENDBRANCH  39  42
ENDBRANCH   9  38
TORSDOF 11
ENDMDL
MODEL 4
REMARK VINA RESULT: -9.997404809      0.823      1.110
REMARK  11 active torsions:
REMARK  status: ('A' for Active; 'I' for Inactive)
REMARK    1  A    between atoms: C2_2  and  O1_3 
REMARK    2  A    between atoms: C2_2  and  C3_5 
REMARK    3  A    between atoms: C2_2  and  C4_8 
REMARK    4  A    between atoms: C3_5  and  O2_6 
REMARK    5  A    between atoms: C4_8  and  N1_9 
REMARK       I    between atoms: C5_11  and  N2_12 
REMARK       I    between atoms: C5_11  and  N4_20 
REMARK    6  A    between atoms: N2_12  and  N3_14 
REMARK    7  A    between atoms: N3_14  and  S1_16 
REMARK    8  A    between atoms: N4_20  and  C7_22 
REMARK    9  A    between atoms: N5_26  and  C10_27 
REMARK   10  A    between atoms: N6_33  and  N7_34 
REMARK       I    between atoms: N7_34  and  C13_36 
REMARK   11  A    between atoms: C13_36  and  C14_38 
ROOT
HETATM    1  C7  UNL     1      24.270  50.542  65.128  1.00  0.00     0.083 A 
HETATM    2  C8  UNL     1      23.965  50.229  66.421  1.00  0.00     0.107 A 
HETATM    3  C9  UNL     1      24.447  49.077  66.926  1.00  0.00     0.258 A 
HETATM    4  O5  UNL     1      24.167  48.775  68.136  1.00  0.00    -0.267 OA
HETATM    5  N5  UNL     1      25.233  48.156  66.266  1.00  0.00    -0.222 N 
HETATM    6  C11 UNL     1      25.533  48.471  64.986  1.00  0.00     0.146 A 
HETATM    7  C12 UNL     1      26.310  47.641  64.204  1.00  0.00     0.297 A 
HETATM    8  O6  UNL     1      26.718  46.599  64.733  1.00  0.00    -0.264 OA
HETATM    9  N6  UNL     1      26.616  47.945  62.919  1.00  0.00    -0.211 N 
HETATM   10  C16 UNL     1      26.117  49.121  62.421  1.00  0.00     0.211 A 
HETATM   11  N11 UNL     1      25.364  49.955  63.134  1.00  0.00    -0.347 N 
ATOM     12  H11 UNL     1      25.020  50.817  62.712  1.00  0.00     0.167 HD
HETATM   13  C17 UNL     1      25.053  49.661  64.416  1.00  0.00     0.094 A 
ENDROOT
BRANCH   1  14
HETATM   14  N4  UNL     1      23.791  51.737  64.550  1.00  0.00    -0.188 N 
HETATM   15  C5  UNL     1      22.852  52.599  65.221  1.00  0.00     0.693 C 
HETATM   16  N1  UNL     1      21.589  52.356  65.194  1.00  0.00    -0.222 N 
HETATM   17  N2  UNL     1      23.296  53.745  65.931  1.00  0.00    -0.123 N 
ATOM     18  H1  UNL     1      21.257  51.535  64.686  1.00  0.00     0.177 HD
ATOM     19  H2  UNL     1      23.867  54.437  65.446  1.00  0.00     0.206 HD
ATOM     20  H4  UNL     1      24.123  52.001  63.622  1.00  0.00     0.184 HD
BRANCH  16  21
HETATM   21  C4  UNL     1      20.636  53.193  65.847  1.00  0.00     0.177 C 
BRANCH  21  22
HETATM   22  C2  UNL     1      19.621  53.765  64.879  1.00  0.00     0.091 C 
HETATM   23  C1  UNL     1      18.222  53.660  65.442  1.00  0.00     0.050 C 
BRANCH  22  24
HETATM   24  O1  UNL     1      19.643  53.068  63.665  1.00  0.00    -0.386 OA
ATOM     25  H1  UNL     1      19.898  53.681  62.986  1.00  0.00     0.210 HD
ENDBRANCH  22  24
BRANCH  22  26
HETATM   26  C3  UNL     1      19.945  55.228  64.657  1.00  0.00     0.203 C 
BRANCH  26  27
HETATM   27  O2  UNL     1      21.126  55.584  65.283  1.00  0.00    -0.398 OA
ATOM     28  H2  UNL     1      21.427  56.437  64.994  1.00  0.00     0.209 HD
ENDBRANCH  26  27
ENDBRANCH  22  26
ENDBRANCH  21  22
ENDBRANCH  16  21
BRANCH  17  29
HETATM   29  N3  UNL     1      22.974  53.952  67.270  1.00  0.00    -0.213 N 
ATOM     30  H3  UNL     1      22.043  54.212  67.594  1.00  0.00     0.200 HD
BRANCH  29  31
HETATM   31  S1  UNL     1      24.324  53.722  68.323  1.00  0.00     0.240 S 
HETATM   32  C6  UNL     1      25.056  55.255  68.823  1.00  0.00     0.187 C 
HETATM   33  O3  UNL     1      23.812  53.023  69.570  1.00  0.00    -0.205 OA
HETATM   34  O4  UNL     1      25.366  52.908  67.623  1.00  0.00    -0.205 OA
ENDBRANCH  29  31
ENDBRANCH  17  29
ENDBRANCH   1  14
BRANCH   5  35
HETATM   35  C10 UNL     1      25.686  46.979  66.885  1.00  0.00     0.354 C 
HETATM   36  F1  UNL     1      26.904  46.975  67.533  1.00  0.00    -0.152 F 
HETATM   37  F2  UNL     1      24.787  46.001  67.241  1.00  0.00    -0.152 F 
ENDBRANCH   5  35
BRANCH   9  38
HETATM   38  N7  UNL     1      27.386  47.171  62.088  1.00  0.00    -0.254 N 
HETATM   39  C13 UNL     1      28.303  47.422  61.071  1.00  0.00     0.292 C 
HETATM   40  O7  UNL     1      28.678  48.577  60.661  1.00  0.00    -0.264 OA
ATOM     41  H7  UNL     1      27.255  46.173  62.254  1.00  0.00     0.191 HD
BRANCH  39  42
HETATM   42  C14 UNL     1      28.959  46.298  60.346  1.00  0.00     0.171 A 
HETATM   43  N8  UNL     1      28.567  45.975  59.079  1.00  0.00    -0.232 N 
HETATM   44  O8  UNL     1      29.265  44.970  58.710  1.00  0.00    -0.155 OA
ATOM     45  H8  UNL     1      27.850  46.447  58.528  1.00  0.00     0.197 HD
HETATM   46  N9  UNL     1      30.086  44.584  59.602  1.00  0.00    -0.224 N 
HETATM   47  C15 UNL     1      29.921  45.423  60.688  1.00  0.00     0.155 A 
ATOM     48  H9  UNL     1      30.741  43.805  59.529  1.00  0.00     0.198 HD
HETATM   49  N10 UNL     1      30.554  45.281  61.762  1.00  0.00    -0.382 N 
ATOM     50 2H10 UNL     1      30.431  45.900  62.564  1.00  0.00     0.157 HD
ATOM     51 1H10 UNL     1      31.283  44.616  62.022  1.00  0.00     0.157 HD
ENDBRANCH  39  42
ENDBRANCH   9  38
TORSDOF 11
ENDMDL
MODEL 5
REMARK VINA RESULT: -8.853761743      2.911     10.339
REMARK  11 active torsions:
REMARK  status: ('A' for Active; 'I' for Inactive)
REMARK    1  A    between atoms: C2_2  and  O1_3 
REMARK    2  A    between atoms: C2_2  and  C3_5 
REMARK    3  A    between atoms: C2_2  and  C4_8 
REMARK    4  A    between atoms: C3_5  and  O2_6 
REMARK    5  A    between atoms: C4_8  and  N1_9 
REMARK       I    between atoms: C5_11  and  N2_12 
REMARK       I    between atoms: C5_11  and  N4_20 
REMARK    6  A    between atoms: N2_12  and  N3_14 
REMARK    7  A    between atoms: N3_14  and  S1_16 
REMARK    8  A    between atoms: N4_20  and  C7_22 
REMARK    9  A    between atoms: N5_26  and  C10_27 
REMARK   10  A    between atoms: N6_33  and  N7_34 
REMARK       I    between atoms: N7_34  and  C13_36 
REMARK   11  A    between atoms: C13_36  and  C14_38 
ROOT
HETATM    1  C7  UNL     1      26.774  48.367  62.766  1.00  0.00     0.083 A 
HETATM    2  C8  UNL     1      27.203  47.305  63.510  1.00  0.00     0.107 A 
HETATM    3  C9  UNL     1      26.842  47.254  64.807  1.00  0.00     0.258 A 
HETATM    4  O5  UNL     1      27.238  46.264  65.513  1.00  0.00    -0.267 OA
HETATM    5  N5  UNL     1      26.070  48.175  65.483  1.00  0.00    -0.222 N 
HETATM    6  C11 UNL     1      25.648  49.223  64.741  1.00  0.00     0.146 A 
HETATM    7  C12 UNL     1      24.869  50.223  65.286  1.00  0.00     0.297 A 
HETATM    8  O6  UNL     1      24.575  50.109  66.483  1.00  0.00    -0.264 OA
HETATM    9  N6  UNL     1      24.441  51.279  64.554  1.00  0.00    -0.211 N 
HETATM   10  C16 UNL     1      24.817  51.317  63.235  1.00  0.00     0.211 A 
HETATM   11  N11 UNL     1      25.567  50.378  62.663  1.00  0.00    -0.347 N 
ATOM     12  H11 UNL     1      25.816  50.458  61.677  1.00  0.00     0.167 HD
HETATM   13  C17 UNL     1      25.998  49.320  63.385  1.00  0.00     0.094 A 
ENDROOT
BRANCH   1  14
HETATM   14  N4  UNL     1      27.123  48.470  61.402  1.00  0.00    -0.188 N 
HETATM   15  C5  UNL     1      27.788  47.408  60.691  1.00  0.00     0.693 C 
HETATM   16  N1  UNL     1      29.063  47.256  60.764  1.00  0.00    -0.222 N 
HETATM   17  N2  UNL     1      27.052  46.500  59.887  1.00  0.00    -0.123 N 
ATOM     18  H1  UNL     1      29.604  47.902  61.339  1.00  0.00     0.177 HD
ATOM     19  H2  UNL     1      26.450  46.867  59.149  1.00  0.00     0.206 HD
ATOM     20  H4  UNL     1      26.895  49.328  60.901  1.00  0.00     0.184 HD
BRANCH  16  21
HETATM   21  C4  UNL     1      29.748  46.215  60.069  1.00  0.00     0.177 C 
BRANCH  21  22
HETATM   22  C2  UNL     1      30.291  45.161  61.013  1.00  0.00     0.091 C 
HETATM   23  C1  UNL     1      30.112  43.776  60.433  1.00  0.00     0.050 C 
BRANCH  22  24
HETATM   24  O1  UNL     1      29.618  45.197  62.240  1.00  0.00    -0.386 OA
ATOM     25  H1  UNL     1      30.192  45.616  62.871  1.00  0.00     0.210 HD
ENDBRANCH  22  24
BRANCH  22  26
HETATM   26  C3  UNL     1      31.771  45.414  61.212  1.00  0.00     0.203 C 
BRANCH  26  27
HETATM   27  O2  UNL     1      32.535  44.417  60.631  1.00  0.00    -0.398 OA
ATOM     28  H2  UNL     1      33.459  44.638  60.643  1.00  0.00     0.209 HD
ENDBRANCH  26  27
ENDBRANCH  22  26
ENDBRANCH  21  22
ENDBRANCH  16  21
BRANCH  17  29
HETATM   29  N3  UNL     1      27.127  45.122  60.074  1.00  0.00    -0.213 N 
ATOM     30  H3  UNL     1      27.397  44.685  60.955  1.00  0.00     0.200 HD
BRANCH  29  31
HETATM   31  S1  UNL     1      26.712  44.232  58.653  1.00  0.00     0.240 S 
HETATM   32  C6  UNL     1      28.039  44.179  57.482  1.00  0.00     0.187 C 
HETATM   33  O3  UNL     1      26.413  42.807  59.081  1.00  0.00    -0.205 OA
HETATM   34  O4  UNL     1      25.529  44.870  57.996  1.00  0.00    -0.205 OA
ENDBRANCH  29  31
ENDBRANCH  17  29
ENDBRANCH   1  14
BRANCH   5  35
HETATM   35  C10 UNL     1      25.748  48.028  66.843  1.00  0.00     0.354 C 
HETATM   36  F1  UNL     1      24.591  47.370  67.203  1.00  0.00    -0.152 F 
HETATM   37  F2  UNL     1      26.738  48.115  67.795  1.00  0.00    -0.152 F 
ENDBRANCH   5  35
BRANCH   9  38
HETATM   38  N7  UNL     1      23.660  52.304  65.027  1.00  0.00    -0.254 N 
HETATM   39  C13 UNL     1      22.310  52.463  65.326  1.00  0.00     0.292 C 
HETATM   40  O7  UNL     1      21.403  51.563  65.223  1.00  0.00    -0.264 OA
ATOM     41  H7  UNL     1      24.198  53.152  65.203  1.00  0.00     0.191 HD
BRANCH  39  42
HETATM   42  C14 UNL     1      21.791  53.768  65.823  1.00  0.00     0.171 A 
HETATM   43  N8  UNL     1      22.625  54.643  66.458  1.00  0.00    -0.232 N 
HETATM   44  O8  UNL     1      21.925  55.655  66.799  1.00  0.00    -0.155 OA
ATOM     45  H8  UNL     1      23.622  54.513  66.627  1.00  0.00     0.197 HD
HETATM   46  N9  UNL     1      20.703  55.549  66.460  1.00  0.00    -0.224 N 
HETATM   47  C15 UNL     1      20.570  54.331  65.820  1.00  0.00     0.155 A 
ATOM     48  H9  UNL     1      19.964  56.232  66.628  1.00  0.00     0.198 HD
HETATM   49  N10 UNL     1      19.470  53.897  65.400  1.00  0.00    -0.382 N 
ATOM     50 2H10 UNL     1      19.371  52.999  64.928  1.00  0.00     0.157 HD
ATOM     51 1H10 UNL     1      18.543  54.325  65.398  1.00  0.00     0.157 HD
ENDBRANCH  39  42
ENDBRANCH   9  38
TORSDOF 11
ENDMDL
