MODEL 1
REMARK VINA RESULT: -7.860326381      0.000      0.000
REMARK  15 active torsions:
REMARK  status: ('A' for Active; 'I' for Inactive)
REMARK    1  A    between atoms: C2_2  and  O1_3 
REMARK    2  A    between atoms: C2_2  and  C3_5 
REMARK    3  A    between atoms: C6_14  and  C7_15 
REMARK    4  A    between atoms: C8_18  and  S1_19 
REMARK    5  A    between atoms: S1_19  and  C9_20 
REMARK    6  A    between atoms: C9_20  and  C10_22 
REMARK    7  A    between atoms: C10_22  and  N5_23 
REMARK    8  A    between atoms: C10_22  and  N6_33 
REMARK    9  A    between atoms: N5_23  and  C11_25 
REMARK   10  A    between atoms: C11_25  and  O5_26 
REMARK   11  A    between atoms: C11_25  and  C12_28 
REMARK   12  A    between atoms: C12_28  and  O6_29 
REMARK   13  A    between atoms: C12_28  and  O7_31 
REMARK   14  A    between atoms: C15_41  and  C16_42 
REMARK   15  A    between atoms: C16_42  and  C17_43 
ROOT
HETATM    1  C3  UNL     1      21.314  53.984  66.137  1.00  0.00     0.007 C 
HETATM    2  C4  UNL     1      20.458  53.026  66.290  1.00  0.00     0.136 A 
HETATM    3  N1  UNL     1      19.044  52.936  66.359  1.00  0.00    -0.314 N 
ATOM      4  H1  UNL     1      18.383  53.712  66.338  1.00  0.00     0.170 HD
HETATM    5  C5  UNL     1      18.722  51.535  66.466  1.00  0.00     0.209 A 
HETATM    6  N2  UNL     1      17.415  50.994  66.561  1.00  0.00    -0.062 NA
HETATM    7  N3  UNL     1      19.790  50.839  66.462  1.00  0.00    -0.264 N 
ATOM      8  H3  UNL     1      19.830  49.823  66.527  1.00  0.00     0.190 HD
HETATM    9  N4  UNL     1      20.927  51.704  66.351  1.00  0.00    -0.229 N 
HETATM   10  C6  UNL     1      22.300  51.424  66.260  1.00  0.00     0.149 C 
HETATM   11  C8  UNL     1      23.196  52.390  66.137  1.00  0.00     0.034 C 
HETATM   12  C15 UNL     1      22.832  53.798  66.209  1.00  0.00     0.087 C 
ENDROOT
BRANCH  11  13
HETATM   13  S1  UNL     1      24.894  51.789  65.993  1.00  0.00    -0.050 SA
BRANCH  13  14
HETATM   14  C9  UNL     1      25.169  50.886  64.484  1.00  0.00     0.234 C 
HETATM   15  O4  UNL     1      24.647  51.231  63.440  1.00  0.00    -0.281 OA
BRANCH  14  16
HETATM   16  C10 UNL     1      26.063  49.660  64.481  1.00  0.00     0.286 C 
BRANCH  16  17
HETATM   17  N5  UNL     1      27.188  49.937  65.275  1.00  0.00    -0.364 N 
ATOM     18  H5  UNL     1      27.584  50.877  65.285  1.00  0.00     0.158 HD
BRANCH  17  19
HETATM   19  C11 UNL     1      27.776  48.918  66.062  1.00  0.00     0.270 C 
BRANCH  19  20
HETATM   20  O5  UNL     1      28.258  49.409  67.293  1.00  0.00    -0.372 OA
ATOM     21  H5  UNL     1      29.127  49.084  67.493  1.00  0.00     0.212 HD
ENDBRANCH  19  20
BRANCH  19  22
HETATM   22  C12 UNL     1      26.997  47.667  66.280  1.00  0.00     0.302 C 
BRANCH  22  23
HETATM   23  O6  UNL     1      26.110  47.899  67.359  1.00  0.00    -0.367 OA
ATOM     24  H6  UNL     1      25.987  47.073  67.811  1.00  0.00     0.212 HD
ENDBRANCH  22  23
BRANCH  22  25
HETATM   25  O7  UNL     1      27.883  46.691  66.766  1.00  0.00    -0.367 OA
ATOM     26  H7  UNL     1      27.953  46.807  67.706  1.00  0.00     0.212 HD
ENDBRANCH  22  25
ENDBRANCH  19  22
ENDBRANCH  17  19
ENDBRANCH  16  17
BRANCH  16  27
HETATM   27  N6  UNL     1      26.325  49.338  63.099  1.00  0.00    -0.253 N 
HETATM   28  C13 UNL     1      26.184  48.117  62.564  1.00  0.00     0.177 A 
HETATM   29  C14 UNL     1      26.548  48.213  61.231  1.00  0.00     0.221 A 
HETATM   30  F1  UNL     1      26.562  47.234  60.307  1.00  0.00    -0.183 F 
HETATM   31  N7  UNL     1      26.886  49.497  61.062  1.00  0.00    -0.260 N 
HETATM   32  N8  UNL     1      26.761  50.194  62.163  1.00  0.00    -0.236 N 
ATOM     33  H7  UNL     1      27.205  49.888  60.176  1.00  0.00     0.191 HD
ATOM     34  H8  UNL     1      26.957  51.187  62.285  1.00  0.00     0.208 HD
ENDBRANCH  16  27
ENDBRANCH  14  16
ENDBRANCH  13  14
ENDBRANCH  11  13
BRANCH  10  35
HETATM   35  C7  UNL     1      22.719  50.008  66.304  1.00  0.00     0.230 C 
HETATM   36  O2  UNL     1      22.467  49.275  65.330  1.00  0.00    -0.643 OA
HETATM   37  O3  UNL     1      23.383  49.463  67.389  1.00  0.00    -0.643 OA
ENDBRANCH  10  35
BRANCH  12  38
HETATM   38  C16 UNL     1      23.150  54.325  67.586  1.00  0.00    -0.001 C 
BRANCH  38  39
HETATM   39  C17 UNL     1      24.110  55.338  67.845  1.00  0.00    -0.039 A 
HETATM   40  C18 UNL     1      25.163  55.059  68.718  1.00  0.00     0.011 A 
HETATM   41  C19 UNL     1      26.118  55.994  69.042  1.00  0.00     0.001 A 
HETATM   42  C20 UNL     1      26.063  57.266  68.500  1.00  0.00     0.000 A 
HETATM   43  C21 UNL     1      25.045  57.579  67.640  1.00  0.00     0.001 A 
HETATM   44  C22 UNL     1      24.103  56.630  67.331  1.00  0.00     0.011 A 
ENDBRANCH  38  39
ENDBRANCH  12  38
BRANCH   1  45
HETATM   45  C2  UNL     1      20.884  55.417  65.969  1.00  0.00     0.148 C 
HETATM   46  C1  UNL     1      21.564  55.975  64.717  1.00  0.00     0.044 C 
BRANCH  45  47
HETATM   47  O1  UNL     1      19.515  55.553  65.786  1.00  0.00    -0.391 OA
ATOM     48  H1  UNL     1      19.226  54.808  65.271  1.00  0.00     0.210 HD
ENDBRANCH  45  47
ENDBRANCH   1  45
TORSDOF 15
ENDMDL
MODEL 2
REMARK VINA RESULT: -7.687899153      1.951      3.035
REMARK  15 active torsions:
REMARK  status: ('A' for Active; 'I' for Inactive)
REMARK    1  A    between atoms: C2_2  and  O1_3 
REMARK    2  A    between atoms: C2_2  and  C3_5 
REMARK    3  A    between atoms: C6_14  and  C7_15 
REMARK    4  A    between atoms: C8_18  and  S1_19 
REMARK    5  A    between atoms: S1_19  and  C9_20 
REMARK    6  A    between atoms: C9_20  and  C10_22 
REMARK    7  A    between atoms: C10_22  and  N5_23 
REMARK    8  A    between atoms: C10_22  and  N6_33 
REMARK    9  A    between atoms: N5_23  and  C11_25 
REMARK   10  A    between atoms: C11_25  and  O5_26 
REMARK   11  A    between atoms: C11_25  and  C12_28 
REMARK   12  A    between atoms: C12_28  and  O6_29 
REMARK   13  A    between atoms: C12_28  and  O7_31 
REMARK   14  A    between atoms: C15_41  and  C16_42 
REMARK   15  A    between atoms: C16_42  and  C17_43 
ROOT
HETATM    1  C3  UNL     1      21.303  54.112  66.229  1.00  0.00     0.007 C 
HETATM    2  C4  UNL     1      20.405  53.190  66.359  1.00  0.00     0.136 A 
HETATM    3  N1  UNL     1      18.989  53.164  66.439  1.00  0.00    -0.314 N 
ATOM      4  H1  UNL     1      18.365  53.971  66.449  1.00  0.00     0.170 HD
HETATM    5  C5  UNL     1      18.602  51.777  66.504  1.00  0.00     0.209 A 
HETATM    6  N2  UNL     1      17.272  51.295  66.595  1.00  0.00    -0.062 NA
HETATM    7  N3  UNL     1      19.636  51.033  66.466  1.00  0.00    -0.264 N 
ATOM      8  H3  UNL     1      19.629  50.013  66.498  1.00  0.00     0.190 HD
HETATM    9  N4  UNL     1      20.811  51.847  66.373  1.00  0.00    -0.229 N 
HETATM   10  C6  UNL     1      22.169  51.506  66.259  1.00  0.00     0.149 C 
HETATM   11  C8  UNL     1      23.108  52.432  66.158  1.00  0.00     0.034 C 
HETATM   12  C15 UNL     1      22.812  53.852  66.280  1.00  0.00     0.087 C 
ENDROOT
BRANCH  11  13
HETATM   13  S1  UNL     1      24.775  51.758  65.979  1.00  0.00    -0.050 SA
BRANCH  13  14
HETATM   14  C9  UNL     1      25.046  51.037  64.373  1.00  0.00     0.234 C 
HETATM   15  O4  UNL     1      24.312  51.293  63.437  1.00  0.00    -0.281 OA
BRANCH  14  16
HETATM   16  C10 UNL     1      26.205  50.083  64.152  1.00  0.00     0.286 C 
BRANCH  16  17
HETATM   17  N5  UNL     1      26.176  49.661  62.812  1.00  0.00    -0.364 N 
ATOM     18  H5  UNL     1      25.583  50.148  62.140  1.00  0.00     0.158 HD
BRANCH  17  19
HETATM   19  C11 UNL     1      26.965  48.565  62.390  1.00  0.00     0.270 C 
BRANCH  19  20
HETATM   20  O5  UNL     1      26.369  47.328  62.710  1.00  0.00    -0.372 OA
ATOM     21  H5  UNL     1      25.782  47.026  62.026  1.00  0.00     0.212 HD
ENDBRANCH  19  20
BRANCH  19  22
HETATM   22  C12 UNL     1      27.445  48.553  60.980  1.00  0.00     0.302 C 
BRANCH  22  23
HETATM   23  O6  UNL     1      28.859  48.639  61.011  1.00  0.00    -0.367 OA
ATOM     24  H6  UNL     1      29.101  49.492  60.671  1.00  0.00     0.212 HD
ENDBRANCH  22  23
BRANCH  22  25
HETATM   25  O7  UNL     1      27.040  49.757  60.381  1.00  0.00    -0.367 OA
ATOM     26  H7  UNL     1      27.813  50.175  60.020  1.00  0.00     0.212 HD
ENDBRANCH  22  25
ENDBRANCH  19  22
ENDBRANCH  17  19
ENDBRANCH  16  17
BRANCH  16  27
HETATM   27  N6  UNL     1      26.085  49.045  65.148  1.00  0.00    -0.253 N 
HETATM   28  C13 UNL     1      27.024  48.758  66.061  1.00  0.00     0.177 A 
HETATM   29  C14 UNL     1      26.548  47.697  66.813  1.00  0.00     0.221 A 
HETATM   30  F1  UNL     1      27.154  47.077  67.842  1.00  0.00    -0.183 F 
HETATM   31  N7  UNL     1      25.347  47.420  66.288  1.00  0.00    -0.260 N 
HETATM   32  N8  UNL     1      25.045  48.212  65.291  1.00  0.00    -0.236 N 
ATOM     33  H7  UNL     1      24.737  46.676  66.628  1.00  0.00     0.191 HD
ATOM     34  H8  UNL     1      24.190  48.198  64.735  1.00  0.00     0.208 HD
ENDBRANCH  16  27
ENDBRANCH  14  16
ENDBRANCH  13  14
ENDBRANCH  11  13
BRANCH  10  35
HETATM   35  C7  UNL     1      22.521  50.071  66.253  1.00  0.00     0.230 C 
HETATM   36  O2  UNL     1      22.261  49.391  65.244  1.00  0.00    -0.643 OA
HETATM   37  O3  UNL     1      23.132  49.451  67.330  1.00  0.00    -0.643 OA
ENDBRANCH  10  35
BRANCH  12  38
HETATM   38  C16 UNL     1      23.165  54.319  67.669  1.00  0.00    -0.001 C 
BRANCH  38  39
HETATM   39  C17 UNL     1      24.148  55.304  67.949  1.00  0.00    -0.039 A 
HETATM   40  C18 UNL     1      23.998  56.578  67.398  1.00  0.00     0.011 A 
HETATM   41  C19 UNL     1      24.919  57.580  67.598  1.00  0.00     0.001 A 
HETATM   42  C20 UNL     1      26.045  57.350  68.369  1.00  0.00     0.000 A 
HETATM   43  C21 UNL     1      26.228  56.113  68.927  1.00  0.00     0.001 A 
HETATM   44  C22 UNL     1      25.296  55.129  68.713  1.00  0.00     0.011 A 
ENDBRANCH  38  39
ENDBRANCH  12  38
BRANCH   1  45
HETATM   45  C2  UNL     1      20.940  55.568  66.111  1.00  0.00     0.148 C 
HETATM   46  C1  UNL     1      21.515  56.098  64.796  1.00  0.00     0.044 C 
BRANCH  45  47
HETATM   47  O1  UNL     1      19.569  55.782  66.074  1.00  0.00    -0.391 OA
ATOM     48  H1  UNL     1      19.161  55.066  66.549  1.00  0.00     0.210 HD
ENDBRANCH  45  47
ENDBRANCH   1  45
TORSDOF 15
ENDMDL
MODEL 3
REMARK VINA RESULT: -7.569649607      3.860      9.566
REMARK  15 active torsions:
REMARK  status: ('A' for Active; 'I' for Inactive)
REMARK    1  A    between atoms: C2_2  and  O1_3 
REMARK    2  A    between atoms: C2_2  and  C3_5 
REMARK    3  A    between atoms: C6_14  and  C7_15 
REMARK    4  A    between atoms: C8_18  and  S1_19 
REMARK    5  A    between atoms: S1_19  and  C9_20 
REMARK    6  A    between atoms: C9_20  and  C10_22 
REMARK    7  A    between atoms: C10_22  and  N5_23 
REMARK    8  A    between atoms: C10_22  and  N6_33 
REMARK    9  A    between atoms: N5_23  and  C11_25 
REMARK   10  A    between atoms: C11_25  and  O5_26 
REMARK   11  A    between atoms: C11_25  and  C12_28 
REMARK   12  A    between atoms: C12_28  and  O6_29 
REMARK   13  A    between atoms: C12_28  and  O7_31 
REMARK   14  A    between atoms: C15_41  and  C16_42 
REMARK   15  A    between atoms: C16_42  and  C17_43 
ROOT
HETATM    1  C3  UNL     1      28.006  48.209  60.050  1.00  0.00     0.007 C 
HETATM    2  C4  UNL     1      28.646  47.217  60.581  1.00  0.00     0.136 A 
HETATM    3  N1  UNL     1      29.723  46.383  60.185  1.00  0.00    -0.314 N 
ATOM      4  H1  UNL     1      30.208  46.400  59.288  1.00  0.00     0.170 HD
HETATM    5  C5  UNL     1      29.999  45.506  61.295  1.00  0.00     0.209 A 
HETATM    6  N2  UNL     1      31.003  44.506  61.327  1.00  0.00    -0.062 NA
HETATM    7  N3  UNL     1      29.203  45.758  62.259  1.00  0.00    -0.264 N 
ATOM      8  H3  UNL     1      29.195  45.274  63.157  1.00  0.00     0.190 HD
HETATM    9  N4  UNL     1      28.322  46.824  61.888  1.00  0.00    -0.229 N 
HETATM   10  C6  UNL     1      27.313  47.487  62.608  1.00  0.00     0.149 C 
HETATM   11  C8  UNL     1      26.623  48.481  62.074  1.00  0.00     0.034 C 
HETATM   12  C15 UNL     1      26.778  48.871  60.680  1.00  0.00     0.087 C 
ENDROOT
BRANCH  11  13
HETATM   13  S1  UNL     1      25.411  49.208  63.200  1.00  0.00    -0.050 SA
BRANCH  13  14
HETATM   14  C9  UNL     1      26.172  50.189  64.477  1.00  0.00     0.234 C 
HETATM   15  O4  UNL     1      27.116  50.917  64.231  1.00  0.00    -0.281 OA
BRANCH  14  16
HETATM   16  C10 UNL     1      25.652  50.125  65.900  1.00  0.00     0.286 C 
BRANCH  16  17
HETATM   17  N5  UNL     1      24.906  48.943  66.041  1.00  0.00    -0.364 N 
ATOM     18  H5  UNL     1      24.460  48.524  65.225  1.00  0.00     0.158 HD
BRANCH  17  19
HETATM   19  C11 UNL     1      24.770  48.330  67.310  1.00  0.00     0.270 C 
BRANCH  19  20
HETATM   20  O5  UNL     1      23.623  48.780  67.996  1.00  0.00    -0.372 OA
ATOM     21  H5  UNL     1      23.741  49.650  68.357  1.00  0.00     0.212 HD
ENDBRANCH  19  20
BRANCH  19  22
HETATM   22  C12 UNL     1      24.860  46.845  67.381  1.00  0.00     0.302 C 
BRANCH  22  23
HETATM   23  O6  UNL     1      26.201  46.485  67.098  1.00  0.00    -0.367 OA
ATOM     24  H6  UNL     1      26.219  45.547  66.947  1.00  0.00     0.212 HD
ENDBRANCH  22  23
BRANCH  22  25
HETATM   25  O7  UNL     1      24.128  46.321  66.301  1.00  0.00    -0.367 OA
ATOM     26  H7  UNL     1      24.619  45.588  65.949  1.00  0.00     0.212 HD
ENDBRANCH  22  25
ENDBRANCH  19  22
ENDBRANCH  17  19
ENDBRANCH  16  17
BRANCH  16  27
HETATM   27  N6  UNL     1      24.940  51.358  66.139  1.00  0.00    -0.253 N 
HETATM   28  C13 UNL     1      24.991  52.053  67.284  1.00  0.00     0.177 A 
HETATM   29  C14 UNL     1      24.164  53.153  67.128  1.00  0.00     0.221 A 
HETATM   30  F1  UNL     1      23.909  54.126  68.022  1.00  0.00    -0.183 F 
HETATM   31  N7  UNL     1      23.670  53.034  65.889  1.00  0.00    -0.260 N 
HETATM   32  N8  UNL     1      24.119  51.970  65.275  1.00  0.00    -0.236 N 
ATOM     33  H7  UNL     1      23.019  53.699  65.472  1.00  0.00     0.191 HD
ATOM     34  H8  UNL     1      23.890  51.666  64.328  1.00  0.00     0.208 HD
ENDBRANCH  16  27
ENDBRANCH  14  16
ENDBRANCH  13  14
ENDBRANCH  11  13
BRANCH  10  35
HETATM   35  C7  UNL     1      27.045  47.038  63.989  1.00  0.00     0.230 C 
HETATM   36  O2  UNL     1      25.926  46.565  64.263  1.00  0.00    -0.643 OA
HETATM   37  O3  UNL     1      27.991  47.123  64.996  1.00  0.00    -0.643 OA
ENDBRANCH  10  35
BRANCH  12  38
HETATM   38  C16 UNL     1      25.651  48.282  59.870  1.00  0.00    -0.001 C 
BRANCH  38  39
HETATM   39  C17 UNL     1      25.721  47.028  59.209  1.00  0.00    -0.039 A 
HETATM   40  C18 UNL     1      26.038  45.892  59.955  1.00  0.00     0.011 A 
HETATM   41  C19 UNL     1      26.152  44.645  59.386  1.00  0.00     0.001 A 
HETATM   42  C20 UNL     1      25.951  44.476  58.027  1.00  0.00     0.000 A 
HETATM   43  C21 UNL     1      25.639  45.567  57.260  1.00  0.00     0.001 A 
HETATM   44  C22 UNL     1      25.530  46.801  57.850  1.00  0.00     0.011 A 
ENDBRANCH  38  39
ENDBRANCH  12  38
BRANCH   1  45
HETATM   45  C2  UNL     1      28.358  48.749  58.690  1.00  0.00     0.148 C 
HETATM   46  C1  UNL     1      27.620  50.076  58.498  1.00  0.00     0.044 C 
BRANCH  45  47
HETATM   47  O1  UNL     1      29.714  49.010  58.547  1.00  0.00    -0.391 OA
ATOM     48  H1  UNL     1      30.079  48.313  58.013  1.00  0.00     0.210 HD
ENDBRANCH  45  47
ENDBRANCH   1  45
TORSDOF 15
ENDMDL
MODEL 4
REMARK VINA RESULT: -7.145048628      2.419      4.746
REMARK  15 active torsions:
REMARK  status: ('A' for Active; 'I' for Inactive)
REMARK    1  A    between atoms: C2_2  and  O1_3 
REMARK    2  A    between atoms: C2_2  and  C3_5 
REMARK    3  A    between atoms: C6_14  and  C7_15 
REMARK    4  A    between atoms: C8_18  and  S1_19 
REMARK    5  A    between atoms: S1_19  and  C9_20 
REMARK    6  A    between atoms: C9_20  and  C10_22 
REMARK    7  A    between atoms: C10_22  and  N5_23 
REMARK    8  A    between atoms: C10_22  and  N6_33 
REMARK    9  A    between atoms: N5_23  and  C11_25 
REMARK   10  A    between atoms: C11_25  and  O5_26 
REMARK   11  A    between atoms: C11_25  and  C12_28 
REMARK   12  A    between atoms: C12_28  and  O6_29 
REMARK   13  A    between atoms: C12_28  and  O7_31 
REMARK   14  A    between atoms: C15_41  and  C16_42 
REMARK   15  A    between atoms: C16_42  and  C17_43 
ROOT
HETATM    1  C3  UNL     1      20.773  53.646  66.591  1.00  0.00     0.007 C 
HETATM    2  C4  UNL     1      21.719  54.519  66.725  1.00  0.00     0.136 A 
HETATM    3  N1  UNL     1      21.779  55.930  66.859  1.00  0.00    -0.314 N 
ATOM      4  H1  UNL     1      20.992  56.578  66.829  1.00  0.00     0.170 HD
HETATM    5  C5  UNL     1      23.167  56.270  67.046  1.00  0.00     0.209 A 
HETATM    6  N2  UNL     1      23.679  57.580  67.221  1.00  0.00    -0.062 NA
HETATM    7  N3  UNL     1      23.882  55.214  67.033  1.00  0.00    -0.264 N 
ATOM      8  H3  UNL     1      24.895  55.188  67.145  1.00  0.00     0.190 HD
HETATM    9  N4  UNL     1      23.043  54.069  66.838  1.00  0.00    -0.229 N 
HETATM   10  C6  UNL     1      23.342  52.697  66.795  1.00  0.00     0.149 C 
HETATM   11  C8  UNL     1      22.395  51.789  66.626  1.00  0.00     0.034 C 
HETATM   12  C15 UNL     1      21.012  52.152  66.354  1.00  0.00     0.087 C 
ENDROOT
BRANCH  11  13
HETATM   13  S1  UNL     1      23.010  50.089  66.649  1.00  0.00    -0.050 SA
BRANCH  13  14
HETATM   14  C9  UNL     1      23.914  49.675  65.172  1.00  0.00     0.234 C 
HETATM   15  O4  UNL     1      23.632  50.179  64.100  1.00  0.00    -0.281 OA
BRANCH  14  16
HETATM   16  C10 UNL     1      25.054  48.676  65.231  1.00  0.00     0.286 C 
BRANCH  16  17
HETATM   17  N5  UNL     1      25.688  48.808  66.478  1.00  0.00    -0.364 N 
ATOM     18  H5  UNL     1      25.860  49.736  66.864  1.00  0.00     0.158 HD
BRANCH  17  19
HETATM   19  C11 UNL     1      26.088  47.659  67.201  1.00  0.00     0.270 C 
BRANCH  19  20
HETATM   20  O5  UNL     1      25.089  46.665  67.215  1.00  0.00    -0.372 OA
ATOM     21  H5  UNL     1      25.015  46.220  66.379  1.00  0.00     0.212 HD
ENDBRANCH  19  20
BRANCH  19  22
HETATM   22  C12 UNL     1      27.409  47.053  66.873  1.00  0.00     0.302 C 
BRANCH  22  23
HETATM   23  O6  UNL     1      28.260  48.097  66.432  1.00  0.00    -0.367 OA
ATOM     24  H6  UNL     1      28.100  48.223  65.504  1.00  0.00     0.212 HD
ENDBRANCH  22  23
BRANCH  22  25
HETATM   25  O7  UNL     1      27.237  46.245  65.736  1.00  0.00    -0.367 OA
ATOM     26  H7  UNL     1      26.943  45.392  66.030  1.00  0.00     0.212 HD
ENDBRANCH  22  25
ENDBRANCH  19  22
ENDBRANCH  17  19
ENDBRANCH  16  17
BRANCH  16  27
HETATM   27  N6  UNL     1      25.878  48.915  64.071  1.00  0.00    -0.253 N 
HETATM   28  C13 UNL     1      26.213  47.979  63.171  1.00  0.00     0.177 A 
HETATM   29  C14 UNL     1      27.022  48.592  62.229  1.00  0.00     0.221 A 
HETATM   30  F1  UNL     1      27.591  48.036  61.143  1.00  0.00    -0.183 F 
HETATM   31  N7  UNL     1      27.116  49.864  62.637  1.00  0.00    -0.260 N 
HETATM   32  N8  UNL     1      26.441  50.085  63.736  1.00  0.00    -0.236 N 
ATOM     33  H7  UNL     1      27.654  50.579  62.147  1.00  0.00     0.191 HD
ATOM     34  H8  UNL     1      26.359  50.970  64.237  1.00  0.00     0.208 HD
ENDBRANCH  16  27
ENDBRANCH  14  16
ENDBRANCH  13  14
ENDBRANCH  11  13
BRANCH  10  35
HETATM   35  C7  UNL     1      24.755  52.294  66.949  1.00  0.00     0.230 C 
HETATM   36  O2  UNL     1      25.468  52.200  65.933  1.00  0.00    -0.643 OA
HETATM   37  O3  UNL     1      25.320  52.018  68.182  1.00  0.00    -0.643 OA
ENDBRANCH  10  35
BRANCH  12  38
HETATM   38  C16 UNL     1      20.744  52.020  64.876  1.00  0.00    -0.001 C 
BRANCH  38  39
HETATM   39  C17 UNL     1      19.477  52.246  64.277  1.00  0.00    -0.039 A 
HETATM   40  C18 UNL     1      19.343  53.288  63.358  1.00  0.00     0.011 A 
HETATM   41  C19 UNL     1      18.144  53.589  62.755  1.00  0.00     0.001 A 
HETATM   42  C20 UNL     1      17.011  52.851  63.046  1.00  0.00     0.000 A 
HETATM   43  C21 UNL     1      17.101  51.820  63.943  1.00  0.00     0.001 A 
HETATM   44  C22 UNL     1      18.307  51.538  64.532  1.00  0.00     0.011 A 
ENDBRANCH  38  39
ENDBRANCH  12  38
BRANCH   1  45
HETATM   45  C2  UNL     1      19.321  54.043  66.557  1.00  0.00     0.148 C 
HETATM   46  C1  UNL     1      18.728  53.798  67.947  1.00  0.00     0.044 C 
BRANCH  45  47
HETATM   47  O1  UNL     1      19.135  55.386  66.263  1.00  0.00    -0.391 OA
ATOM     48  H1  UNL     1      19.988  55.748  66.053  1.00  0.00     0.210 HD
ENDBRANCH  45  47
ENDBRANCH   1  45
TORSDOF 15
ENDMDL
MODEL 5
REMARK VINA RESULT: -7.114198787      1.853      2.977
REMARK  15 active torsions:
REMARK  status: ('A' for Active; 'I' for Inactive)
REMARK    1  A    between atoms: C2_2  and  O1_3 
REMARK    2  A    between atoms: C2_2  and  C3_5 
REMARK    3  A    between atoms: C6_14  and  C7_15 
REMARK    4  A    between atoms: C8_18  and  S1_19 
REMARK    5  A    between atoms: S1_19  and  C9_20 
REMARK    6  A    between atoms: C9_20  and  C10_22 
REMARK    7  A    between atoms: C10_22  and  N5_23 
REMARK    8  A    between atoms: C10_22  and  N6_33 
REMARK    9  A    between atoms: N5_23  and  C11_25 
REMARK   10  A    between atoms: C11_25  and  O5_26 
REMARK   11  A    between atoms: C11_25  and  C12_28 
REMARK   12  A    between atoms: C12_28  and  O6_29 
REMARK   13  A    between atoms: C12_28  and  O7_31 
REMARK   14  A    between atoms: C15_41  and  C16_42 
REMARK   15  A    between atoms: C16_42  and  C17_43 
ROOT
HETATM    1  C3  UNL     1      21.440  54.197  66.206  1.00  0.00     0.007 C 
HETATM    2  C4  UNL     1      20.498  53.319  66.340  1.00  0.00     0.136 A 
HETATM    3  N1  UNL     1      19.083  53.360  66.415  1.00  0.00    -0.314 N 
ATOM      4  H1  UNL     1      18.497  54.195  66.416  1.00  0.00     0.170 HD
HETATM    5  C5  UNL     1      18.631  51.993  66.489  1.00  0.00     0.209 A 
HETATM    6  N2  UNL     1      17.280  51.574  66.578  1.00  0.00    -0.062 NA
HETATM    7  N3  UNL     1      19.630  51.201  66.462  1.00  0.00    -0.264 N 
ATOM      8  H3  UNL     1      19.574  50.183  66.502  1.00  0.00     0.190 HD
HETATM    9  N4  UNL     1      20.841  51.958  66.367  1.00  0.00    -0.229 N 
HETATM   10  C6  UNL     1      22.183  51.553  66.262  1.00  0.00     0.149 C 
HETATM   11  C8  UNL     1      23.164  52.434  66.157  1.00  0.00     0.034 C 
HETATM   12  C15 UNL     1      22.934  53.867  66.265  1.00  0.00     0.087 C 
ENDROOT
BRANCH  11  13
HETATM   13  S1  UNL     1      24.798  51.681  65.990  1.00  0.00    -0.050 SA
BRANCH  13  14
HETATM   14  C9  UNL     1      25.069  51.000  64.367  1.00  0.00     0.234 C 
HETATM   15  O4  UNL     1      24.343  51.289  63.435  1.00  0.00    -0.281 OA
BRANCH  14  16
HETATM   16  C10 UNL     1      26.218  50.038  64.126  1.00  0.00     0.286 C 
BRANCH  16  17
HETATM   17  N5  UNL     1      25.975  49.359  62.921  1.00  0.00    -0.364 N 
ATOM     18  H5  UNL     1      25.127  49.555  62.390  1.00  0.00     0.158 HD
BRANCH  17  19
HETATM   19  C11 UNL     1      26.900  48.402  62.440  1.00  0.00     0.270 C 
BRANCH  19  20
HETATM   20  O5  UNL     1      26.480  47.081  62.696  1.00  0.00    -0.372 OA
ATOM     21  H5  UNL     1      26.947  46.692  63.426  1.00  0.00     0.212 HD
ENDBRANCH  19  20
BRANCH  19  22
HETATM   22  C12 UNL     1      27.364  48.528  61.030  1.00  0.00     0.302 C 
BRANCH  22  23
HETATM   23  O6  UNL     1      28.768  48.719  61.059  1.00  0.00    -0.367 OA
ATOM     24  H6  UNL     1      28.947  49.579  60.700  1.00  0.00     0.212 HD
ENDBRANCH  22  23
BRANCH  22  25
HETATM   25  O7  UNL     1      26.863  49.738  60.522  1.00  0.00    -0.367 OA
ATOM     26  H7  UNL     1      26.402  50.178  61.225  1.00  0.00     0.212 HD
ENDBRANCH  22  25
ENDBRANCH  19  22
ENDBRANCH  17  19
ENDBRANCH  16  17
BRANCH  16  27
HETATM   27  N6  UNL     1      26.328  49.217  65.308  1.00  0.00    -0.253 N 
HETATM   28  C13 UNL     1      25.517  48.189  65.596  1.00  0.00     0.177 A 
HETATM   29  C14 UNL     1      25.931  47.675  66.814  1.00  0.00     0.221 A 
HETATM   30  F1  UNL     1      25.408  46.636  67.491  1.00  0.00    -0.183 F 
HETATM   31  N7  UNL     1      26.970  48.441  67.172  1.00  0.00    -0.260 N 
HETATM   32  N8  UNL     1      27.229  49.371  66.288  1.00  0.00    -0.236 N 
ATOM     33  H7  UNL     1      27.498  48.314  68.035  1.00  0.00     0.191 HD
ATOM     34  H8  UNL     1      27.969  50.072  66.337  1.00  0.00     0.208 HD
ENDBRANCH  16  27
ENDBRANCH  14  16
ENDBRANCH  13  14
ENDBRANCH  11  13
BRANCH  10  35
HETATM   35  C7  UNL     1      22.467  50.104  66.269  1.00  0.00     0.230 C 
HETATM   36  O2  UNL     1      22.942  49.588  67.297  1.00  0.00    -0.643 OA
HETATM   37  O3  UNL     1      22.225  49.293  65.174  1.00  0.00    -0.643 OA
ENDBRANCH  10  35
BRANCH  12  38
HETATM   38  C16 UNL     1      23.304  54.328  67.653  1.00  0.00    -0.001 C 
BRANCH  38  39
HETATM   39  C17 UNL     1      24.284  55.318  67.924  1.00  0.00    -0.039 A 
HETATM   40  C18 UNL     1      25.401  54.968  68.684  1.00  0.00     0.011 A 
HETATM   41  C19 UNL     1      26.382  55.874  69.013  1.00  0.00     0.001 A 
HETATM   42  C20 UNL     1      26.288  57.189  68.592  1.00  0.00     0.000 A 
HETATM   43  C21 UNL     1      25.206  57.573  67.846  1.00  0.00     0.001 A 
HETATM   44  C22 UNL     1      24.241  56.651  67.529  1.00  0.00     0.011 A 
ENDBRANCH  38  39
ENDBRANCH  12  38
BRANCH   1  45
HETATM   45  C2  UNL     1      21.145  55.667  66.075  1.00  0.00     0.148 C 
HETATM   46  C1  UNL     1      21.741  56.157  64.753  1.00  0.00     0.044 C 
BRANCH  45  47
HETATM   47  O1  UNL     1      19.786  55.945  66.039  1.00  0.00    -0.391 OA
ATOM     48  H1  UNL     1      19.433  55.729  66.895  1.00  0.00     0.210 HD
ENDBRANCH  45  47
ENDBRANCH   1  45
TORSDOF 15
ENDMDL
