MODEL 1
REMARK VINA RESULT: -11.050677969      0.000      0.000
REMARK  12 active torsions:
REMARK  status: ('A' for Active; 'I' for Inactive)
REMARK       I    between atoms: N2_3  and  C2_5 
REMARK    1  A    between atoms: C2_5  and  C3_7 
REMARK    2  A    between atoms: C3_7  and  N3_8 
REMARK    3  A    between atoms: C4_12  and  N4_13 
REMARK       I    between atoms: N4_13  and  C5_14 
REMARK    4  A    between atoms: C5_14  and  C6_16 
REMARK    5  A    between atoms: C6_16  and  N5_17 
REMARK    6  A    between atoms: C6_16  and  C7_21 
REMARK    7  A    between atoms: C7_21  and  N6_22 
REMARK    8  A    between atoms: C10_27  and  N8_28 
REMARK    9  A    between atoms: C14_41  and  O3_42 
REMARK   10  A    between atoms: O3_42  and  C15_43 
REMARK   11  A    between atoms: C15_43  and  C16_44 
REMARK   12  A    between atoms: C21_50  and  C22_51 
ROOT
HETATM    1  N1  UNL     1      26.737  46.903  66.883  1.00  0.00    -0.172 NA
HETATM    2  C1  UNL     1      27.111  47.085  65.793  1.00  0.00     0.184 C 
HETATM    3  N2  UNL     1      27.561  47.324  64.512  1.00  0.00    -0.261 N 
ATOM      4  H2  UNL     1      28.520  47.654  64.402  1.00  0.00     0.181 HD
HETATM    5  C2  UNL     1      26.782  47.144  63.329  1.00  0.00     0.274 C 
HETATM    6  O1  UNL     1      25.614  46.740  63.501  1.00  0.00    -0.269 OA
ENDROOT
BRANCH   5   7
HETATM    7  C3  UNL     1      27.402  47.445  62.028  1.00  0.00     0.287 C 
HETATM    8  C4  UNL     1      27.320  48.895  61.614  1.00  0.00     0.242 C 
HETATM    9  C13 UNL     1      26.771  48.834  60.174  1.00  0.00     0.278 C 
HETATM   10  N11 UNL     1      27.138  47.508  59.709  1.00  0.00    -0.043 N 
HETATM   11  C14 UNL     1      26.834  46.672  60.884  1.00  0.00     0.370 C 
ATOM     12 2H11 UNL     1      26.688  47.215  58.843  1.00  0.00     0.280 HD
ATOM     13 1H11 UNL     1      28.092  47.423  59.356  1.00  0.00     0.280 HD
BRANCH   7  14
HETATM   14  N3  UNL     1      28.850  47.131  62.143  1.00  0.00    -0.054 N 
ATOM     15  H33 UNL     1      29.237  47.365  63.056  1.00  0.00     0.276 HD
ATOM     16  H32 UNL     1      29.039  46.129  62.172  1.00  0.00     0.276 HD
ATOM     17  H31 UNL     1      29.326  47.604  61.375  1.00  0.00     0.276 HD
ENDBRANCH   7  14
BRANCH   8  18
HETATM   18  N4  UNL     1      26.614  49.775  62.337  1.00  0.00    -0.403 NA
HETATM   19  C5  UNL     1      25.872  50.699  63.096  1.00  0.00     0.319 C 
HETATM   20  O2  UNL     1      25.058  51.511  62.652  1.00  0.00    -0.255 OA
BRANCH  19  21
HETATM   21  C6  UNL     1      26.081  50.713  64.592  1.00  0.00     0.307 C 
BRANCH  21  22
HETATM   22  N5  UNL     1      27.407  50.324  64.972  1.00  0.00    -0.064 N 
ATOM     23  H53 UNL     1      27.652  49.419  64.570  1.00  0.00     0.275 HD
ATOM     24  H52 UNL     1      28.105  50.906  64.508  1.00  0.00     0.275 HD
ATOM     25  H51 UNL     1      27.546  50.323  65.982  1.00  0.00     0.275 HD
ENDBRANCH  21  22
BRANCH  21  26
HETATM   26  C7  UNL     1      25.080  49.907  65.341  1.00  0.00     0.175 C 
BRANCH  26  27
HETATM   27  N6  UNL     1      23.896  50.734  65.628  1.00  0.00    -0.325 N 
HETATM   28  C8  UNL     1      22.676  50.604  65.092  1.00  0.00     0.185 A 
HETATM   29  N7  UNL     1      21.839  51.536  65.611  1.00  0.00    -0.346 N 
HETATM   30  C9  UNL     1      22.558  52.258  66.485  1.00  0.00     0.122 A 
ATOM     31  H7  UNL     1      20.853  51.664  65.382  1.00  0.00     0.167 HD
HETATM   32  C10 UNL     1      22.208  53.320  67.296  1.00  0.00     0.131 A 
HETATM   33  C12 UNL     1      23.843  51.741  66.483  1.00  0.00     0.140 A 
HETATM   34  N9  UNL     1      23.128  53.859  68.091  1.00  0.00    -0.337 N 
HETATM   35  C11 UNL     1      24.378  53.377  68.105  1.00  0.00     0.183 A 
ATOM     36  H9  UNL     1      22.880  54.643  68.694  1.00  0.00     0.168 HD
HETATM   37  N10 UNL     1      24.737  52.339  67.321  1.00  0.00    -0.336 N 
ATOM     38  H10 UNL     1      25.697  51.995  67.355  1.00  0.00     0.168 HD
BRANCH  32  39
HETATM   39  N8  UNL     1      20.990  53.769  67.277  1.00  0.00    -0.383 N 
ATOM     40  H82 UNL     1      20.192  53.133  67.280  1.00  0.00     0.157 HD
ATOM     41  H81 UNL     1      20.823  54.775  67.251  1.00  0.00     0.157 HD
ENDBRANCH  32  39
ENDBRANCH  26  27
ENDBRANCH  21  26
ENDBRANCH  19  21
ENDBRANCH   8  18
BRANCH  11  42
HETATM   42  O3  UNL     1      27.277  45.397  60.734  1.00  0.00    -0.352 OA
BRANCH  42  43
HETATM   43  C15 UNL     1      26.368  44.632  59.945  1.00  0.00     0.210 C 
BRANCH  43  44
HETATM   44  C16 UNL     1      26.939  44.390  58.612  1.00  0.00    -0.018 A 
HETATM   45  C17 UNL     1      26.114  44.580  57.500  1.00  0.00     0.052 A 
HETATM   46  C18 UNL     1      26.647  44.385  56.249  1.00  0.00     0.117 A 
HETATM   47  F1  UNL     1      25.915  44.557  55.116  1.00  0.00    -0.206 F 
HETATM   48  C19 UNL     1      27.970  44.005  56.052  1.00  0.00     0.043 A 
HETATM   49  C20 UNL     1      28.755  43.826  57.170  1.00  0.00     0.019 A 
HETATM   50  C21 UNL     1      28.245  44.018  58.459  1.00  0.00     0.019 A 
BRANCH  50  51
HETATM   51  C22 UNL     1      29.087  43.826  59.623  1.00  0.00     0.148 A 
HETATM   52  N12 UNL     1      30.068  44.711  59.966  1.00  0.00    -0.268 N 
HETATM   53  N13 UNL     1      30.676  44.275  61.048  1.00  0.00    -0.227 N 
ATOM     54  H12 UNL     1      30.292  45.570  59.465  1.00  0.00     0.190 HD
HETATM   55  N14 UNL     1      30.108  43.139  61.401  1.00  0.00    -0.227 N 
ATOM     56  H13 UNL     1      31.450  44.735  61.528  1.00  0.00     0.210 HD
HETATM   57  N15 UNL     1      29.156  42.872  60.546  1.00  0.00    -0.268 N 
ATOM     58  H14 UNL     1      30.367  42.565  62.204  1.00  0.00     0.210 HD
ATOM     59  H15 UNL     1      28.553  42.050  60.582  1.00  0.00     0.190 HD
ENDBRANCH  50  51
ENDBRANCH  43  44
ENDBRANCH  42  43
ENDBRANCH  11  42
ENDBRANCH   5   7
TORSDOF 12
ENDMDL
MODEL 2
REMARK VINA RESULT: -10.982591806      0.614      1.370
REMARK  12 active torsions:
REMARK  status: ('A' for Active; 'I' for Inactive)
REMARK       I    between atoms: N2_3  and  C2_5 
REMARK    1  A    between atoms: C2_5  and  C3_7 
REMARK    2  A    between atoms: C3_7  and  N3_8 
REMARK    3  A    between atoms: C4_12  and  N4_13 
REMARK       I    between atoms: N4_13  and  C5_14 
REMARK    4  A    between atoms: C5_14  and  C6_16 
REMARK    5  A    between atoms: C6_16  and  N5_17 
REMARK    6  A    between atoms: C6_16  and  C7_21 
REMARK    7  A    between atoms: C7_21  and  N6_22 
REMARK    8  A    between atoms: C10_27  and  N8_28 
REMARK    9  A    between atoms: C14_41  and  O3_42 
REMARK   10  A    between atoms: O3_42  and  C15_43 
REMARK   11  A    between atoms: C15_43  and  C16_44 
REMARK   12  A    between atoms: C21_50  and  C22_51 
ROOT
HETATM    1  N1  UNL     1      26.894  46.843  66.963  1.00  0.00    -0.172 NA
HETATM    2  C1  UNL     1      27.205  47.097  65.867  1.00  0.00     0.184 C 
HETATM    3  N2  UNL     1      27.576  47.421  64.580  1.00  0.00    -0.261 N 
ATOM      4  H2  UNL     1      28.478  47.879  64.450  1.00  0.00     0.181 HD
HETATM    5  C2  UNL     1      26.790  47.163  63.417  1.00  0.00     0.274 C 
HETATM    6  O1  UNL     1      25.693  46.601  63.613  1.00  0.00    -0.269 OA
ENDROOT
BRANCH   5   7
HETATM    7  C3  UNL     1      27.321  47.571  62.106  1.00  0.00     0.287 C 
HETATM    8  C4  UNL     1      27.141  49.036  61.785  1.00  0.00     0.242 C 
HETATM    9  C13 UNL     1      26.517  49.028  60.374  1.00  0.00     0.278 C 
HETATM   10  N11 UNL     1      26.927  47.753  59.812  1.00  0.00    -0.043 N 
HETATM   11  C14 UNL     1      26.731  46.836  60.949  1.00  0.00     0.370 C 
ATOM     12 2H11 UNL     1      26.445  47.486  58.954  1.00  0.00     0.280 HD
ATOM     13 1H11 UNL     1      27.862  47.741  59.405  1.00  0.00     0.280 HD
BRANCH   7  14
HETATM   14  N3  UNL     1      28.787  47.331  62.126  1.00  0.00    -0.054 N 
ATOM     15  H33 UNL     1      29.135  47.073  63.049  1.00  0.00     0.276 HD
ATOM     16  H32 UNL     1      29.058  46.477  61.638  1.00  0.00     0.276 HD
ATOM     17  H31 UNL     1      29.238  48.165  61.750  1.00  0.00     0.276 HD
ENDBRANCH   7  14
BRANCH   8  18
HETATM   18  N4  UNL     1      26.431  49.833  62.595  1.00  0.00    -0.403 NA
HETATM   19  C5  UNL     1      25.685  50.669  63.446  1.00  0.00     0.319 C 
HETATM   20  O2  UNL     1      24.685  51.316  63.130  1.00  0.00    -0.255 OA
BRANCH  19  21
HETATM   21  C6  UNL     1      26.138  50.802  64.881  1.00  0.00     0.307 C 
BRANCH  21  22
HETATM   22  N5  UNL     1      27.493  50.378  65.078  1.00  0.00    -0.064 N 
ATOM     23  H53 UNL     1      27.791  49.749  64.332  1.00  0.00     0.275 HD
ATOM     24  H52 UNL     1      28.143  51.147  64.916  1.00  0.00     0.275 HD
ATOM     25  H51 UNL     1      27.647  49.956  65.994  1.00  0.00     0.275 HD
ENDBRANCH  21  22
BRANCH  21  26
HETATM   26  C7  UNL     1      25.244  50.116  65.854  1.00  0.00     0.175 C 
BRANCH  26  27
HETATM   27  N6  UNL     1      24.350  51.104  66.481  1.00  0.00    -0.325 N 
HETATM   28  C8  UNL     1      24.608  51.847  67.565  1.00  0.00     0.185 A 
HETATM   29  N7  UNL     1      23.553  52.654  67.836  1.00  0.00    -0.346 N 
HETATM   30  C9  UNL     1      22.623  52.403  66.899  1.00  0.00     0.122 A 
ATOM     31  H7  UNL     1      23.479  53.323  68.602  1.00  0.00     0.167 HD
HETATM   32  C10 UNL     1      21.368  52.943  66.693  1.00  0.00     0.131 A 
HETATM   33  C12 UNL     1      23.140  51.431  66.060  1.00  0.00     0.140 A 
HETATM   34  N9  UNL     1      20.641  52.516  65.666  1.00  0.00    -0.337 N 
HETATM   35  C11 UNL     1      21.119  51.574  64.841  1.00  0.00     0.183 A 
ATOM     36  H9  UNL     1      19.713  52.907  65.504  1.00  0.00     0.168 HD
HETATM   37  N10 UNL     1      22.343  51.038  65.026  1.00  0.00    -0.336 N 
ATOM     38  H10 UNL     1      22.679  50.323  64.380  1.00  0.00     0.168 HD
BRANCH  32  39
HETATM   39  N8  UNL     1      20.924  53.861  67.497  1.00  0.00    -0.383 N 
ATOM     40  H82 UNL     1      21.554  54.373  68.114  1.00  0.00     0.157 HD
ATOM     41  H81 UNL     1      19.926  54.071  67.520  1.00  0.00     0.157 HD
ENDBRANCH  32  39
ENDBRANCH  26  27
ENDBRANCH  21  26
ENDBRANCH  19  21
ENDBRANCH   8  18
BRANCH  11  42
HETATM   42  O3  UNL     1      27.231  45.597  60.698  1.00  0.00    -0.352 OA
BRANCH  42  43
HETATM   43  C15 UNL     1      26.301  44.814  59.953  1.00  0.00     0.210 C 
BRANCH  43  44
HETATM   44  C16 UNL     1      26.848  44.517  58.621  1.00  0.00    -0.018 A 
HETATM   45  C17 UNL     1      26.017  44.704  57.513  1.00  0.00     0.052 A 
HETATM   46  C18 UNL     1      26.527  44.457  56.262  1.00  0.00     0.117 A 
HETATM   47  F1  UNL     1      25.788  44.622  55.133  1.00  0.00    -0.206 F 
HETATM   48  C19 UNL     1      27.836  44.030  56.061  1.00  0.00     0.043 A 
HETATM   49  C20 UNL     1      28.628  43.856  57.175  1.00  0.00     0.019 A 
HETATM   50  C21 UNL     1      28.140  44.099  58.463  1.00  0.00     0.019 A 
BRANCH  50  51
HETATM   51  C22 UNL     1      28.989  43.912  59.623  1.00  0.00     0.148 A 
HETATM   52  N12 UNL     1      29.956  44.810  59.970  1.00  0.00    -0.268 N 
HETATM   53  N13 UNL     1      30.576  44.376  61.045  1.00  0.00    -0.227 N 
ATOM     54  H12 UNL     1      30.164  45.678  59.475  1.00  0.00     0.190 HD
HETATM   55  N14 UNL     1      30.028  43.227  61.391  1.00  0.00    -0.227 N 
ATOM     56  H13 UNL     1      31.343  44.845  61.527  1.00  0.00     0.210 HD
HETATM   57  N15 UNL     1      29.077  42.951  60.538  1.00  0.00    -0.268 N 
ATOM     58  H14 UNL     1      30.300  42.652  62.189  1.00  0.00     0.210 HD
ATOM     59  H15 UNL     1      28.489  42.119  60.569  1.00  0.00     0.190 HD
ENDBRANCH  50  51
ENDBRANCH  43  44
ENDBRANCH  42  43
ENDBRANCH  11  42
ENDBRANCH   5   7
TORSDOF 12
ENDMDL
MODEL 3
REMARK VINA RESULT: -10.751335216      2.494      3.828
REMARK  12 active torsions:
REMARK  status: ('A' for Active; 'I' for Inactive)
REMARK       I    between atoms: N2_3  and  C2_5 
REMARK    1  A    between atoms: C2_5  and  C3_7 
REMARK    2  A    between atoms: C3_7  and  N3_8 
REMARK    3  A    between atoms: C4_12  and  N4_13 
REMARK       I    between atoms: N4_13  and  C5_14 
REMARK    4  A    between atoms: C5_14  and  C6_16 
REMARK    5  A    between atoms: C6_16  and  N5_17 
REMARK    6  A    between atoms: C6_16  and  C7_21 
REMARK    7  A    between atoms: C7_21  and  N6_22 
REMARK    8  A    between atoms: C10_27  and  N8_28 
REMARK    9  A    between atoms: C14_41  and  O3_42 
REMARK   10  A    between atoms: O3_42  and  C15_43 
REMARK   11  A    between atoms: C15_43  and  C16_44 
REMARK   12  A    between atoms: C21_50  and  C22_51 
ROOT
HETATM    1  N1  UNL     1      30.540  44.150  61.880  1.00  0.00    -0.172 NA
HETATM    2  C1  UNL     1      29.996  45.142  61.597  1.00  0.00     0.184 C 
HETATM    3  N2  UNL     1      29.372  46.328  61.275  1.00  0.00    -0.261 N 
ATOM      4  H2  UNL     1      29.927  47.040  60.800  1.00  0.00     0.181 HD
HETATM    5  C2  UNL     1      28.006  46.632  61.559  1.00  0.00     0.274 C 
HETATM    6  O1  UNL     1      27.358  45.738  62.140  1.00  0.00    -0.269 OA
ENDROOT
BRANCH   5   7
HETATM    7  C3  UNL     1      27.481  47.947  61.154  1.00  0.00     0.287 C 
HETATM    8  C4  UNL     1      27.076  48.841  62.302  1.00  0.00     0.242 C 
HETATM    9  C13 UNL     1      25.657  49.309  61.919  1.00  0.00     0.278 C 
HETATM   10  N11 UNL     1      25.619  49.179  60.473  1.00  0.00    -0.043 N 
HETATM   11  C14 UNL     1      26.288  47.883  60.260  1.00  0.00     0.370 C 
ATOM     12 2H11 UNL     1      24.691  49.258  60.058  1.00  0.00     0.280 HD
ATOM     13 1H11 UNL     1      26.023  49.962  59.958  1.00  0.00     0.280 HD
BRANCH   7  14
HETATM   14  N3  UNL     1      28.573  48.661  60.442  1.00  0.00    -0.054 N 
ATOM     15  H33 UNL     1      28.938  49.455  60.967  1.00  0.00     0.276 HD
ATOM     16  H32 UNL     1      29.438  48.122  60.396  1.00  0.00     0.276 HD
ATOM     17  H31 UNL     1      28.216  48.921  59.522  1.00  0.00     0.276 HD
ENDBRANCH   7  14
BRANCH   8  18
HETATM   18  N4  UNL     1      27.083  48.384  63.562  1.00  0.00    -0.403 NA
HETATM   19  C5  UNL     1      27.091  47.904  64.885  1.00  0.00     0.319 C 
HETATM   20  O2  UNL     1      27.253  46.731  65.227  1.00  0.00    -0.255 OA
BRANCH  19  21
HETATM   21  C6  UNL     1      26.879  48.901  65.999  1.00  0.00     0.307 C 
BRANCH  21  22
HETATM   22  N5  UNL     1      27.835  48.766  67.057  1.00  0.00    -0.064 N 
ATOM     23  H53 UNL     1      27.718  49.503  67.752  1.00  0.00     0.275 HD
ATOM     24  H52 UNL     1      27.624  47.954  67.639  1.00  0.00     0.275 HD
ATOM     25  H51 UNL     1      28.797  48.732  66.720  1.00  0.00     0.275 HD
ENDBRANCH  21  22
BRANCH  21  26
HETATM   26  C7  UNL     1      25.498  48.888  66.556  1.00  0.00     0.175 C 
BRANCH  26  27
HETATM   27  N6  UNL     1      24.770  50.083  66.097  1.00  0.00    -0.325 N 
HETATM   28  C8  UNL     1      24.075  50.213  64.960  1.00  0.00     0.185 A 
HETATM   29  N7  UNL     1      23.529  51.451  64.889  1.00  0.00    -0.346 N 
HETATM   30  C9  UNL     1      23.896  52.101  66.006  1.00  0.00     0.122 A 
ATOM     31  H7  UNL     1      22.951  51.820  64.134  1.00  0.00     0.167 HD
HETATM   32  C10 UNL     1      23.617  53.379  66.451  1.00  0.00     0.131 A 
HETATM   33  C12 UNL     1      24.672  51.228  66.750  1.00  0.00     0.140 A 
HETATM   34  N9  UNL     1      24.106  53.778  67.620  1.00  0.00    -0.337 N 
HETATM   35  C11 UNL     1      24.861  52.952  68.357  1.00  0.00     0.183 A 
ATOM     36  H9  UNL     1      23.906  54.719  67.959  1.00  0.00     0.168 HD
HETATM   37  N10 UNL     1      25.142  51.701  67.939  1.00  0.00    -0.336 N 
ATOM     38  H10 UNL     1      25.719  51.095  68.524  1.00  0.00     0.168 HD
BRANCH  32  39
HETATM   39  N8  UNL     1      22.876  54.163  65.728  1.00  0.00    -0.383 N 
ATOM     40  H82 UNL     1      22.790  54.029  64.720  1.00  0.00     0.157 HD
ATOM     41  H81 UNL     1      22.375  54.933  66.171  1.00  0.00     0.157 HD
ENDBRANCH  32  39
ENDBRANCH  26  27
ENDBRANCH  21  26
ENDBRANCH  19  21
ENDBRANCH   8  18
BRANCH  11  42
HETATM   42  O3  UNL     1      26.527  47.641  58.945  1.00  0.00    -0.352 OA
BRANCH  42  43
HETATM   43  C15 UNL     1      25.779  46.514  58.491  1.00  0.00     0.210 C 
BRANCH  43  44
HETATM   44  C16 UNL     1      26.685  45.504  57.924  1.00  0.00    -0.018 A 
HETATM   45  C17 UNL     1      27.847  45.193  58.635  1.00  0.00     0.052 A 
HETATM   46  C18 UNL     1      28.686  44.231  58.129  1.00  0.00     0.117 A 
HETATM   47  F1  UNL     1      29.832  43.863  58.763  1.00  0.00    -0.206 F 
HETATM   48  C19 UNL     1      28.421  43.559  56.940  1.00  0.00     0.043 A 
HETATM   49  C20 UNL     1      27.267  43.891  56.264  1.00  0.00     0.019 A 
HETATM   50  C21 UNL     1      26.390  44.866  56.753  1.00  0.00     0.019 A 
BRANCH  50  51
HETATM   51  C22 UNL     1      25.179  45.200  56.029  1.00  0.00     0.148 A 
HETATM   52  N12 UNL     1      24.748  44.475  54.957  1.00  0.00    -0.268 N 
HETATM   53  N13 UNL     1      23.642  45.015  54.493  1.00  0.00    -0.227 N 
ATOM     54  H12 UNL     1      25.208  43.647  54.577  1.00  0.00     0.190 HD
HETATM   55  N14 UNL     1      23.360  46.063  55.241  1.00  0.00    -0.227 N 
ATOM     56  H13 UNL     1      23.100  44.682  53.696  1.00  0.00     0.210 HD
HETATM   57  N15 UNL     1      24.282  46.172  56.161  1.00  0.00    -0.268 N 
ATOM     58  H14 UNL     1      22.558  46.684  55.123  1.00  0.00     0.210 HD
ATOM     59  H15 UNL     1      24.309  46.899  56.877  1.00  0.00     0.190 HD
ENDBRANCH  50  51
ENDBRANCH  43  44
ENDBRANCH  42  43
ENDBRANCH  11  42
ENDBRANCH   5   7
TORSDOF 12
ENDMDL
MODEL 4
REMARK VINA RESULT: -10.556951483      3.501     11.069
REMARK  12 active torsions:
REMARK  status: ('A' for Active; 'I' for Inactive)
REMARK       I    between atoms: N2_3  and  C2_5 
REMARK    1  A    between atoms: C2_5  and  C3_7 
REMARK    2  A    between atoms: C3_7  and  N3_8 
REMARK    3  A    between atoms: C4_12  and  N4_13 
REMARK       I    between atoms: N4_13  and  C5_14 
REMARK    4  A    between atoms: C5_14  and  C6_16 
REMARK    5  A    between atoms: C6_16  and  N5_17 
REMARK    6  A    between atoms: C6_16  and  C7_21 
REMARK    7  A    between atoms: C7_21  and  N6_22 
REMARK    8  A    between atoms: C10_27  and  N8_28 
REMARK    9  A    between atoms: C14_41  and  O3_42 
REMARK   10  A    between atoms: O3_42  and  C15_43 
REMARK   11  A    between atoms: C15_43  and  C16_44 
REMARK   12  A    between atoms: C21_50  and  C22_51 
ROOT
HETATM    1  N1  UNL     1      28.921  47.682  66.588  1.00  0.00    -0.172 NA
HETATM    2  C1  UNL     1      27.832  48.074  66.444  1.00  0.00     0.184 C 
HETATM    3  N2  UNL     1      26.544  48.524  66.250  1.00  0.00    -0.261 N 
ATOM      4  H2  UNL     1      25.830  47.832  66.021  1.00  0.00     0.181 HD
HETATM    5  C2  UNL     1      26.136  49.889  66.346  1.00  0.00     0.274 C 
HETATM    6  O1  UNL     1      27.034  50.709  66.628  1.00  0.00    -0.269 OA
ENDROOT
BRANCH   5   7
HETATM    7  C3  UNL     1      24.720  50.217  66.108  1.00  0.00     0.287 C 
HETATM    8  C4  UNL     1      24.262  50.024  64.682  1.00  0.00     0.242 C 
HETATM    9  C13 UNL     1      23.556  51.352  64.341  1.00  0.00     0.278 C 
HETATM   10  N11 UNL     1      23.157  51.884  65.632  1.00  0.00    -0.043 N 
HETATM   11  C14 UNL     1      24.348  51.619  66.459  1.00  0.00     0.370 C 
ATOM     12 2H11 UNL     1      22.847  52.856  65.620  1.00  0.00     0.280 HD
ATOM     13 1H11 UNL     1      22.283  51.509  66.002  1.00  0.00     0.280 HD
BRANCH   7  14
HETATM   14  N3  UNL     1      23.905  49.288  66.932  1.00  0.00    -0.054 N 
ATOM     15  H33 UNL     1      24.346  49.051  67.820  1.00  0.00     0.276 HD
ATOM     16  H32 UNL     1      23.065  49.725  67.314  1.00  0.00     0.276 HD
ATOM     17  H31 UNL     1      23.702  48.469  66.358  1.00  0.00     0.276 HD
ENDBRANCH   7  14
BRANCH   8  18
HETATM   18  N4  UNL     1      25.138  49.709  63.718  1.00  0.00    -0.403 NA
HETATM   19  C5  UNL     1      26.058  49.378  62.706  1.00  0.00     0.319 C 
HETATM   20  O2  UNL     1      26.730  50.177  62.051  1.00  0.00    -0.255 OA
BRANCH  19  21
HETATM   21  C6  UNL     1      26.248  47.917  62.375  1.00  0.00     0.307 C 
BRANCH  21  22
HETATM   22  N5  UNL     1      26.029  47.058  63.501  1.00  0.00    -0.064 N 
ATOM     23  H53 UNL     1      25.750  46.125  63.200  1.00  0.00     0.275 HD
ATOM     24  H52 UNL     1      26.910  46.828  63.961  1.00  0.00     0.275 HD
ATOM     25  H51 UNL     1      25.358  47.442  64.167  1.00  0.00     0.275 HD
ENDBRANCH  21  22
BRANCH  21  26
HETATM   26  C7  UNL     1      27.566  47.614  61.752  1.00  0.00     0.175 C 
BRANCH  26  27
HETATM   27  N6  UNL     1      27.369  46.738  60.585  1.00  0.00    -0.325 N 
HETATM   28  C8  UNL     1      26.551  46.953  59.548  1.00  0.00     0.185 A 
HETATM   29  N7  UNL     1      26.651  45.935  58.658  1.00  0.00    -0.346 N 
HETATM   30  C9  UNL     1      27.551  45.072  59.158  1.00  0.00     0.122 A 
ATOM     31  H7  UNL     1      26.143  45.843  57.779  1.00  0.00     0.167 HD
HETATM   32  C10 UNL     1      28.039  43.877  58.665  1.00  0.00     0.131 A 
HETATM   33  C12 UNL     1      27.990  45.592  60.364  1.00  0.00     0.140 A 
HETATM   34  N9  UNL     1      28.949  43.211  59.368  1.00  0.00    -0.337 N 
HETATM   35  C11 UNL     1      29.388  43.693  60.539  1.00  0.00     0.183 A 
ATOM     36  H9  UNL     1      29.316  42.328  59.014  1.00  0.00     0.168 HD
HETATM   37  N10 UNL     1      28.924  44.859  61.034  1.00  0.00    -0.336 N 
ATOM     38  H10 UNL     1      29.279  45.200  61.928  1.00  0.00     0.168 HD
BRANCH  32  39
HETATM   39  N8  UNL     1      27.609  43.429  57.525  1.00  0.00    -0.383 N 
ATOM     40  H82 UNL     1      27.418  42.437  57.384  1.00  0.00     0.157 HD
ATOM     41  H81 UNL     1      27.465  44.077  56.750  1.00  0.00     0.157 HD
ENDBRANCH  32  39
ENDBRANCH  26  27
ENDBRANCH  21  26
ENDBRANCH  19  21
ENDBRANCH   8  18
BRANCH  11  42
HETATM   42  O3  UNL     1      24.125  51.878  67.774  1.00  0.00    -0.352 OA
BRANCH  42  43
HETATM   43  C15 UNL     1      23.005  52.745  67.940  1.00  0.00     0.210 C 
BRANCH  43  44
HETATM   44  C16 UNL     1      23.438  54.148  67.857  1.00  0.00    -0.018 A 
HETATM   45  C17 UNL     1      24.610  54.513  68.525  1.00  0.00     0.052 A 
HETATM   46  C18 UNL     1      25.039  55.814  68.431  1.00  0.00     0.117 A 
HETATM   47  F1  UNL     1      26.173  56.249  69.043  1.00  0.00    -0.206 F 
HETATM   48  C19 UNL     1      24.352  56.775  67.697  1.00  0.00     0.043 A 
HETATM   49  C20 UNL     1      23.200  56.381  67.051  1.00  0.00     0.019 A 
HETATM   50  C21 UNL     1      22.736  55.063  67.126  1.00  0.00     0.019 A 
BRANCH  50  51
HETATM   51  C22 UNL     1      21.523  54.667  66.437  1.00  0.00     0.148 A 
HETATM   52  N12 UNL     1      21.362  54.831  65.092  1.00  0.00    -0.268 N 
HETATM   53  N13 UNL     1      20.167  54.402  64.750  1.00  0.00    -0.227 N 
ATOM     54  H12 UNL     1      22.056  55.224  64.456  1.00  0.00     0.190 HD
HETATM   55  N14 UNL     1      19.566  53.969  65.840  1.00  0.00    -0.227 N 
ATOM     56  H13 UNL     1      19.776  54.404  63.808  1.00  0.00     0.210 HD
HETATM   57  N15 UNL     1      20.380  54.128  66.850  1.00  0.00    -0.268 N 
ATOM     58  H14 UNL     1      18.625  53.577  65.888  1.00  0.00     0.210 HD
ATOM     59  H15 UNL     1      20.168  53.875  67.815  1.00  0.00     0.190 HD
ENDBRANCH  50  51
ENDBRANCH  43  44
ENDBRANCH  42  43
ENDBRANCH  11  42
ENDBRANCH   5   7
TORSDOF 12
ENDMDL
MODEL 5
REMARK VINA RESULT: -10.483115836      3.673     10.967
REMARK  12 active torsions:
REMARK  status: ('A' for Active; 'I' for Inactive)
REMARK       I    between atoms: N2_3  and  C2_5 
REMARK    1  A    between atoms: C2_5  and  C3_7 
REMARK    2  A    between atoms: C3_7  and  N3_8 
REMARK    3  A    between atoms: C4_12  and  N4_13 
REMARK       I    between atoms: N4_13  and  C5_14 
REMARK    4  A    between atoms: C5_14  and  C6_16 
REMARK    5  A    between atoms: C6_16  and  N5_17 
REMARK    6  A    between atoms: C6_16  and  C7_21 
REMARK    7  A    between atoms: C7_21  and  N6_22 
REMARK    8  A    between atoms: C10_27  and  N8_28 
REMARK    9  A    between atoms: C14_41  and  O3_42 
REMARK   10  A    between atoms: O3_42  and  C15_43 
REMARK   11  A    between atoms: C15_43  and  C16_44 
REMARK   12  A    between atoms: C21_50  and  C22_51 
ROOT
HETATM    1  N1  UNL     1      28.623  49.151  67.112  1.00  0.00    -0.172 NA
HETATM    2  C1  UNL     1      27.493  49.346  66.901  1.00  0.00     0.184 C 
HETATM    3  N2  UNL     1      26.159  49.565  66.630  1.00  0.00    -0.261 N 
ATOM      4  H2  UNL     1      25.588  48.757  66.385  1.00  0.00     0.181 HD
HETATM    5  C2  UNL     1      25.520  50.841  66.668  1.00  0.00     0.274 C 
HETATM    6  O1  UNL     1      26.249  51.808  66.972  1.00  0.00    -0.269 OA
ENDROOT
BRANCH   5   7
HETATM    7  C3  UNL     1      24.084  50.917  66.350  1.00  0.00     0.287 C 
HETATM    8  C4  UNL     1      23.732  50.510  64.939  1.00  0.00     0.242 C 
HETATM    9  C13 UNL     1      22.849  51.670  64.433  1.00  0.00     0.278 C 
HETATM   10  N11 UNL     1      22.310  52.261  65.646  1.00  0.00    -0.043 N 
HETATM   11  C14 UNL     1      23.485  52.271  66.535  1.00  0.00     0.370 C 
ATOM     12 2H11 UNL     1      21.857  53.165  65.519  1.00  0.00     0.280 HD
ATOM     13 1H11 UNL     1      21.487  51.792  66.025  1.00  0.00     0.280 HD
BRANCH   7  14
HETATM   14  N3  UNL     1      23.381  49.959  67.242  1.00  0.00    -0.054 N 
ATOM     15  H33 UNL     1      23.783  49.918  68.178  1.00  0.00     0.276 HD
ATOM     16  H32 UNL     1      22.449  50.276  67.512  1.00  0.00     0.276 HD
ATOM     17  H31 UNL     1      23.374  49.054  66.772  1.00  0.00     0.276 HD
ENDBRANCH   7  14
BRANCH   8  18
HETATM   18  N4  UNL     1      24.692  50.241  64.044  1.00  0.00    -0.403 NA
HETATM   19  C5  UNL     1      25.700  49.958  63.103  1.00  0.00     0.319 C 
HETATM   20  O2  UNL     1      26.365  50.791  62.484  1.00  0.00    -0.255 OA
BRANCH  19  21
HETATM   21  C6  UNL     1      26.006  48.508  62.811  1.00  0.00     0.307 C 
BRANCH  21  22
HETATM   22  N5  UNL     1      26.276  47.747  63.994  1.00  0.00    -0.064 N 
ATOM     23  H53 UNL     1      26.846  48.280  64.650  1.00  0.00     0.275 HD
ATOM     24  H52 UNL     1      25.432  47.637  64.558  1.00  0.00     0.275 HD
ATOM     25  H51 UNL     1      26.701  46.841  63.794  1.00  0.00     0.275 HD
ENDBRANCH  21  22
BRANCH  21  26
HETATM   26  C7  UNL     1      27.103  48.319  61.822  1.00  0.00     0.175 C 
BRANCH  26  27
HETATM   27  N6  UNL     1      26.535  47.886  60.534  1.00  0.00    -0.325 N 
HETATM   28  C8  UNL     1      25.883  48.649  59.647  1.00  0.00     0.185 A 
HETATM   29  N7  UNL     1      25.524  47.905  58.572  1.00  0.00    -0.346 N 
HETATM   30  C9  UNL     1      25.962  46.656  58.800  1.00  0.00     0.122 A 
ATOM     31  H7  UNL     1      25.019  48.231  57.748  1.00  0.00     0.167 HD
HETATM   32  C10 UNL     1      25.878  45.507  58.039  1.00  0.00     0.131 A 
HETATM   33  C12 UNL     1      26.594  46.664  60.033  1.00  0.00     0.140 A 
HETATM   34  N9  UNL     1      26.413  44.382  58.503  1.00  0.00    -0.337 N 
HETATM   35  C11 UNL     1      27.028  44.365  59.694  1.00  0.00     0.183 A 
ATOM     36  H9  UNL     1      26.357  43.528  57.950  1.00  0.00     0.168 HD
HETATM   37  N10 UNL     1      27.121  45.478  60.450  1.00  0.00    -0.336 N 
ATOM     38  H10 UNL     1      27.596  45.432  61.352  1.00  0.00     0.168 HD
BRANCH  32  39
HETATM   39  N8  UNL     1      25.287  45.544  56.883  1.00  0.00    -0.383 N 
ATOM     40  H82 UNL     1      24.531  46.203  56.696  1.00  0.00     0.157 HD
ATOM     41  H81 UNL     1      25.575  44.898  56.149  1.00  0.00     0.157 HD
ENDBRANCH  32  39
ENDBRANCH  26  27
ENDBRANCH  21  26
ENDBRANCH  19  21
ENDBRANCH   8  18
BRANCH  11  42
HETATM   42  O3  UNL     1      23.161  52.623  67.806  1.00  0.00    -0.352 OA
BRANCH  42  43
HETATM   43  C15 UNL     1      23.842  53.816  68.193  1.00  0.00     0.210 C 
BRANCH  43  44
HETATM   44  C16 UNL     1      23.246  54.977  67.515  1.00  0.00    -0.018 A 
HETATM   45  C17 UNL     1      22.028  54.797  66.855  1.00  0.00     0.052 A 
HETATM   46  C18 UNL     1      21.449  55.882  66.243  1.00  0.00     0.117 A 
HETATM   47  F1  UNL     1      20.261  55.795  65.588  1.00  0.00    -0.206 F 
HETATM   48  C19 UNL     1      22.031  57.145  66.256  1.00  0.00     0.043 A 
HETATM   49  C20 UNL     1      23.233  57.287  66.915  1.00  0.00     0.019 A 
HETATM   50  C21 UNL     1      23.849  56.203  67.550  1.00  0.00     0.019 A 
BRANCH  50  51
HETATM   51  C22 UNL     1      25.113  56.371  68.240  1.00  0.00     0.148 A 
HETATM   52  N12 UNL     1      25.765  57.569  68.284  1.00  0.00    -0.268 N 
HETATM   53  N13 UNL     1      26.884  57.421  68.958  1.00  0.00    -0.227 N 
ATOM     54  H12 UNL     1      25.436  58.438  67.863  1.00  0.00     0.190 HD
HETATM   55  N14 UNL     1      26.961  56.162  69.343  1.00  0.00    -0.227 N 
ATOM     56  H13 UNL     1      27.571  58.151  69.148  1.00  0.00     0.210 HD
HETATM   57  N15 UNL     1      25.898  55.535  68.912  1.00  0.00    -0.268 N 
ATOM     58  H14 UNL     1      27.720  55.748  69.885  1.00  0.00     0.210 HD
ATOM     59  H15 UNL     1      25.700  54.547  69.070  1.00  0.00     0.190 HD
ENDBRANCH  50  51
ENDBRANCH  43  44
ENDBRANCH  42  43
ENDBRANCH  11  42
ENDBRANCH   5   7
TORSDOF 12
ENDMDL
