MODEL 1
REMARK VINA RESULT: -6.575352540      0.000      0.000
REMARK  8 active torsions:
REMARK  status: ('A' for Active; 'I' for Inactive)
REMARK    1  A    between atoms: C2_2  and  N1_3 
REMARK    2  A    between atoms: N1_3  and  C3_4 
REMARK    3  A    between atoms: N1_3  and  C5_6 
REMARK    4  A    between atoms: C5_6  and  C6_7 
REMARK    5  A    between atoms: C6_7  and  S1_8 
REMARK    6  A    between atoms: S1_8  and  C7_9 
REMARK    7  A    between atoms: C9_13  and  N3_14 
REMARK    8  A    between atoms: N3_14  and  N4_16 
ROOT
HETATM    1  C7  UNL     1      58.994  -8.433  12.447  1.00  0.00     0.146 A 
HETATM    2  N2  UNL     1      57.758  -7.902  12.704  1.00  0.00    -0.332 N 
ATOM      3  H2  UNL     1      57.274  -7.205  12.137  1.00  0.00     0.168 HD
HETATM    4  C8  UNL     1      57.296  -8.459  13.830  1.00  0.00     0.107 A 
HETATM    5  C9  UNL     1      56.115  -8.325  14.579  1.00  0.00     0.082 A 
HETATM    6  C11 UNL     1      55.904  -9.043  15.717  1.00  0.00    -0.016 A 
HETATM    7  C12 UNL     1      54.641  -8.878  16.475  1.00  0.00     0.052 C 
HETATM    8  C13 UNL     1      56.896  -9.928  16.136  1.00  0.00     0.099 A 
HETATM    9  N5  UNL     1      58.034 -10.080  15.445  1.00  0.00    -0.350 N 
ATOM     10  H5  UNL     1      58.751 -10.732  15.764  1.00  0.00     0.166 HD
HETATM   11  C14 UNL     1      58.214  -9.357  14.324  1.00  0.00     0.136 A 
HETATM   12  N6  UNL     1      59.245  -9.295  13.424  1.00  0.00    -0.321 N 
ATOM     13  H6  UNL     1      60.101  -9.845  13.496  1.00  0.00     0.169 HD
ENDROOT
BRANCH   1  14
HETATM   14  S1  UNL     1      60.045  -8.027  11.059  1.00  0.00    -0.089 SA
BRANCH  14  15
HETATM   15  C6  UNL     1      61.769  -8.250  11.403  1.00  0.00     0.127 C 
BRANCH  15  16
HETATM   16  C5  UNL     1      62.276  -9.665  11.463  1.00  0.00     0.073 C 
BRANCH  16  17
HETATM   17  N1  UNL     1      63.077 -10.037  10.387  1.00  0.00    -0.374 N 
BRANCH  17  18
HETATM   18  C2  UNL     1      63.388 -11.353  10.076  1.00  0.00     0.122 C 
HETATM   19  C1  UNL     1      63.282 -12.248  11.330  1.00  0.00     0.027 C 
ENDBRANCH  17  18
BRANCH  17  20
HETATM   20  C3  UNL     1      63.817  -9.069   9.679  1.00  0.00     0.058 C 
HETATM   21  C4  UNL     1      65.228  -8.879  10.174  1.00  0.00     0.055 C 
ENDBRANCH  17  20
ENDBRANCH  16  17
ENDBRANCH  15  16
ENDBRANCH  14  15
ENDBRANCH   1  14
BRANCH   5  22
HETATM   22  N3  UNL     1      55.167  -7.395  14.089  1.00  0.00    -0.302 N 
ATOM     23  H3  UNL     1      54.172  -7.618  14.053  1.00  0.00     0.182 HD
BRANCH  22  24
HETATM   24  N4  UNL     1      55.651  -6.157  13.656  1.00  0.00    -0.146 NA
HETATM   25  C10 UNL     1      54.695  -5.383  12.904  1.00  0.00     0.159 C 
ENDBRANCH  22  24
ENDBRANCH   5  22
TORSDOF 8
ENDMDL
MODEL 2
REMARK VINA RESULT: -6.561770756      0.090      1.468
REMARK  8 active torsions:
REMARK  status: ('A' for Active; 'I' for Inactive)
REMARK    1  A    between atoms: C2_2  and  N1_3 
REMARK    2  A    between atoms: N1_3  and  C3_4 
REMARK    3  A    between atoms: N1_3  and  C5_6 
REMARK    4  A    between atoms: C5_6  and  C6_7 
REMARK    5  A    between atoms: C6_7  and  S1_8 
REMARK    6  A    between atoms: S1_8  and  C7_9 
REMARK    7  A    between atoms: C9_13  and  N3_14 
REMARK    8  A    between atoms: N3_14  and  N4_16 
ROOT
HETATM    1  C7  UNL     1      59.019  -8.431  12.445  1.00  0.00     0.146 A 
HETATM    2  N2  UNL     1      57.782  -7.900  12.700  1.00  0.00    -0.332 N 
ATOM      3  H2  UNL     1      57.301  -7.201  12.133  1.00  0.00     0.168 HD
HETATM    4  C8  UNL     1      57.317  -8.461  13.824  1.00  0.00     0.107 A 
HETATM    5  C9  UNL     1      56.134  -8.329  14.569  1.00  0.00     0.082 A 
HETATM    6  C11 UNL     1      55.919  -9.050  15.704  1.00  0.00    -0.016 A 
HETATM    7  C12 UNL     1      54.654  -8.886  16.459  1.00  0.00     0.052 C 
HETATM    8  C13 UNL     1      56.909  -9.936  16.123  1.00  0.00     0.099 A 
HETATM    9  N5  UNL     1      58.049 -10.087  15.436  1.00  0.00    -0.350 N 
ATOM     10  H5  UNL     1      58.765 -10.740  15.755  1.00  0.00     0.166 HD
HETATM   11  C14 UNL     1      58.233  -9.361  14.317  1.00  0.00     0.136 A 
HETATM   12  N6  UNL     1      59.267  -9.296  13.420  1.00  0.00    -0.321 N 
ATOM     13  H6  UNL     1      60.123  -9.847  13.493  1.00  0.00     0.169 HD
ENDROOT
BRANCH   1  14
HETATM   14  S1  UNL     1      60.074  -8.022  11.062  1.00  0.00    -0.089 SA
BRANCH  14  15
HETATM   15  C6  UNL     1      61.797  -8.260  11.405  1.00  0.00     0.127 C 
BRANCH  15  16
HETATM   16  C5  UNL     1      62.298  -9.678  11.428  1.00  0.00     0.073 C 
BRANCH  16  17
HETATM   17  N1  UNL     1      63.168  -9.999  10.389  1.00  0.00    -0.374 N 
BRANCH  17  18
HETATM   18  C2  UNL     1      63.788  -9.055   9.583  1.00  0.00     0.122 C 
HETATM   19  C1  UNL     1      65.229  -8.786  10.068  1.00  0.00     0.027 C 
ENDBRANCH  17  18
BRANCH  17  20
HETATM   20  C3  UNL     1      63.288 -11.331   9.944  1.00  0.00     0.058 C 
HETATM   21  C4  UNL     1      63.274 -12.359  11.046  1.00  0.00     0.055 C 
ENDBRANCH  17  20
ENDBRANCH  16  17
ENDBRANCH  15  16
ENDBRANCH  14  15
ENDBRANCH   1  14
BRANCH   5  22
HETATM   22  N3  UNL     1      55.187  -7.396  14.079  1.00  0.00    -0.302 N 
ATOM     23  H3  UNL     1      54.192  -7.616  14.049  1.00  0.00     0.182 HD
BRANCH  22  24
HETATM   24  N4  UNL     1      55.675  -6.163  13.638  1.00  0.00    -0.146 NA
HETATM   25  C10 UNL     1      54.715  -5.383  12.897  1.00  0.00     0.159 C 
ENDBRANCH  22  24
ENDBRANCH   5  22
TORSDOF 8
ENDMDL
MODEL 3
REMARK VINA RESULT: -6.535712653      0.927      1.749
REMARK  8 active torsions:
REMARK  status: ('A' for Active; 'I' for Inactive)
REMARK    1  A    between atoms: C2_2  and  N1_3 
REMARK    2  A    between atoms: N1_3  and  C3_4 
REMARK    3  A    between atoms: N1_3  and  C5_6 
REMARK    4  A    between atoms: C5_6  and  C6_7 
REMARK    5  A    between atoms: C6_7  and  S1_8 
REMARK    6  A    between atoms: S1_8  and  C7_9 
REMARK    7  A    between atoms: C9_13  and  N3_14 
REMARK    8  A    between atoms: N3_14  and  N4_16 
ROOT
HETATM    1  C7  UNL     1      59.497  -8.371  12.302  1.00  0.00     0.146 A 
HETATM    2  N2  UNL     1      58.337  -7.655  12.442  1.00  0.00    -0.332 N 
ATOM      3  H2  UNL     1      58.049  -6.862  11.869  1.00  0.00     0.168 HD
HETATM    4  C8  UNL     1      57.650  -8.180  13.464  1.00  0.00     0.107 A 
HETATM    5  C9  UNL     1      56.417  -7.888  14.071  1.00  0.00     0.082 A 
HETATM    6  C11 UNL     1      55.948  -8.614  15.124  1.00  0.00    -0.016 A 
HETATM    7  C12 UNL     1      54.639  -8.277  15.732  1.00  0.00     0.052 C 
HETATM    8  C13 UNL     1      56.724  -9.669  15.600  1.00  0.00     0.099 A 
HETATM    9  N5  UNL     1      57.904  -9.975  15.044  1.00  0.00    -0.350 N 
ATOM     10  H5  UNL     1      58.461 -10.750  15.403  1.00  0.00     0.166 HD
HETATM   11  C14 UNL     1      58.342  -9.240  14.004  1.00  0.00     0.136 A 
HETATM   12  N6  UNL     1      59.479  -9.307  13.242  1.00  0.00    -0.321 N 
ATOM     13  H6  UNL     1      60.220  -9.994  13.381  1.00  0.00     0.169 HD
ENDROOT
BRANCH   1  14
HETATM   14  S1  UNL     1      60.771  -8.080  11.083  1.00  0.00    -0.089 SA
BRANCH  14  15
HETATM   15  C6  UNL     1      62.313  -8.856  11.488  1.00  0.00     0.127 C 
BRANCH  15  16
HETATM   16  C5  UNL     1      62.468 -10.304  11.111  1.00  0.00     0.073 C 
BRANCH  16  17
HETATM   17  N1  UNL     1      63.251 -10.524   9.981  1.00  0.00    -0.374 N 
BRANCH  17  18
HETATM   18  C2  UNL     1      63.883  -9.513   9.271  1.00  0.00     0.122 C 
HETATM   19  C1  UNL     1      63.950  -9.861   7.768  1.00  0.00     0.027 C 
ENDBRANCH  17  18
BRANCH  17  20
HETATM   20  C3  UNL     1      63.256 -11.785   9.350  1.00  0.00     0.058 C 
HETATM   21  C4  UNL     1      62.945 -12.940  10.267  1.00  0.00     0.055 C 
ENDBRANCH  17  20
ENDBRANCH  16  17
ENDBRANCH  15  16
ENDBRANCH  14  15
ENDBRANCH   1  14
BRANCH   5  22
HETATM   22  N3  UNL     1      55.700  -6.792  13.533  1.00  0.00    -0.302 N 
ATOM     23  H3  UNL     1      55.286  -6.081  14.136  1.00  0.00     0.182 HD
BRANCH  22  24
HETATM   24  N4  UNL     1      55.585  -6.724  12.142  1.00  0.00    -0.146 NA
HETATM   25  C10 UNL     1      54.410  -6.028  11.683  1.00  0.00     0.159 C 
ENDBRANCH  22  24
ENDBRANCH   5  22
TORSDOF 8
ENDMDL
MODEL 4
REMARK VINA RESULT: -6.123451447      1.840      8.450
REMARK  8 active torsions:
REMARK  status: ('A' for Active; 'I' for Inactive)
REMARK    1  A    between atoms: C2_2  and  N1_3 
REMARK    2  A    between atoms: N1_3  and  C3_4 
REMARK    3  A    between atoms: N1_3  and  C5_6 
REMARK    4  A    between atoms: C5_6  and  C6_7 
REMARK    5  A    between atoms: C6_7  and  S1_8 
REMARK    6  A    between atoms: S1_8  and  C7_9 
REMARK    7  A    between atoms: C9_13  and  N3_14 
REMARK    8  A    between atoms: N3_14  and  N4_16 
ROOT
HETATM    1  C7  UNL     1      61.076  -8.665  11.221  1.00  0.00     0.146 A 
HETATM    2  N2  UNL     1      61.983  -8.009  10.431  1.00  0.00    -0.332 N 
ATOM      3  H2  UNL     1      61.809  -7.155   9.900  1.00  0.00     0.168 HD
HETATM    4  C8  UNL     1      63.137  -8.686  10.480  1.00  0.00     0.107 A 
HETATM    5  C9  UNL     1      64.404  -8.510   9.898  1.00  0.00     0.082 A 
HETATM    6  C11 UNL     1      65.426  -9.378  10.134  1.00  0.00    -0.016 A 
HETATM    7  C12 UNL     1      66.749  -9.154   9.506  1.00  0.00     0.052 C 
HETATM    8  C13 UNL     1      65.193 -10.463  10.977  1.00  0.00     0.099 A 
HETATM    9  N5  UNL     1      63.997 -10.661  11.548  1.00  0.00    -0.350 N 
ATOM     10  H5  UNL     1      63.841 -11.460  12.163  1.00  0.00     0.166 HD
HETATM   11  C14 UNL     1      63.005  -9.785  11.296  1.00  0.00     0.136 A 
HETATM   12  N6  UNL     1      61.705  -9.719  11.724  1.00  0.00    -0.321 N 
ATOM     13  H6  UNL     1      61.274 -10.396  12.353  1.00  0.00     0.169 HD
ENDROOT
BRANCH   1  14
HETATM   14  S1  UNL     1      59.380  -8.176  11.502  1.00  0.00    -0.089 SA
BRANCH  14  15
HETATM   15  C6  UNL     1      58.709  -8.822  13.010  1.00  0.00     0.127 C 
BRANCH  15  16
HETATM   16  C5  UNL     1      57.222  -9.045  13.056  1.00  0.00     0.073 C 
BRANCH  16  17
HETATM   17  N1  UNL     1      56.509  -8.045  13.713  1.00  0.00    -0.374 N 
BRANCH  17  18
HETATM   18  C2  UNL     1      55.841  -8.237  14.914  1.00  0.00     0.122 C 
HETATM   19  C1  UNL     1      55.893  -9.723  15.334  1.00  0.00     0.027 C 
ENDBRANCH  17  18
BRANCH  17  20
HETATM   20  C3  UNL     1      56.231  -6.824  13.067  1.00  0.00     0.058 C 
HETATM   21  C4  UNL     1      55.027  -6.095  13.607  1.00  0.00     0.055 C 
ENDBRANCH  17  20
ENDBRANCH  16  17
ENDBRANCH  15  16
ENDBRANCH  14  15
ENDBRANCH   1  14
BRANCH   5  22
HETATM   22  N3  UNL     1      64.549  -7.389   9.046  1.00  0.00    -0.302 N 
ATOM     23  H3  UNL     1      65.037  -6.547   9.353  1.00  0.00     0.182 HD
BRANCH  22  24
HETATM   24  N4  UNL     1      63.996  -7.483   7.766  1.00  0.00    -0.146 NA
HETATM   25  C10 UNL     1      64.889  -7.078   6.709  1.00  0.00     0.159 C 
ENDBRANCH  22  24
ENDBRANCH   5  22
TORSDOF 8
ENDMDL
MODEL 5
REMARK VINA RESULT: -5.996698801      1.890      8.548
REMARK  8 active torsions:
REMARK  status: ('A' for Active; 'I' for Inactive)
REMARK    1  A    between atoms: C2_2  and  N1_3 
REMARK    2  A    between atoms: N1_3  and  C3_4 
REMARK    3  A    between atoms: N1_3  and  C5_6 
REMARK    4  A    between atoms: C5_6  and  C6_7 
REMARK    5  A    between atoms: C6_7  and  S1_8 
REMARK    6  A    between atoms: S1_8  and  C7_9 
REMARK    7  A    between atoms: C9_13  and  N3_14 
REMARK    8  A    between atoms: N3_14  and  N4_16 
ROOT
HETATM    1  C7  UNL     1      61.234  -8.515  11.341  1.00  0.00     0.146 A 
HETATM    2  N2  UNL     1      62.126  -7.896  10.505  1.00  0.00    -0.332 N 
ATOM      3  H2  UNL     1      61.982  -7.006  10.027  1.00  0.00     0.168 HD
HETATM    4  C8  UNL     1      63.218  -8.666  10.424  1.00  0.00     0.107 A 
HETATM    5  C9  UNL     1      64.442  -8.566   9.743  1.00  0.00     0.082 A 
HETATM    6  C11 UNL     1      65.403  -9.525   9.852  1.00  0.00    -0.016 A 
HETATM    7  C12 UNL     1      66.684  -9.378   9.121  1.00  0.00     0.052 C 
HETATM    8  C13 UNL     1      65.148 -10.628  10.664  1.00  0.00     0.099 A 
HETATM    9  N5  UNL     1      63.992 -10.756  11.328  1.00  0.00    -0.350 N 
ATOM     10  H5  UNL     1      63.820 -11.569  11.919  1.00  0.00     0.166 HD
HETATM   11  C14 UNL     1      63.061  -9.791  11.201  1.00  0.00     0.136 A 
HETATM   12  N6  UNL     1      61.811  -9.640  11.743  1.00  0.00    -0.321 N 
ATOM     13  H6  UNL     1      61.378 -10.311  12.377  1.00  0.00     0.169 HD
ENDROOT
BRANCH   1  14
HETATM   14  S1  UNL     1      59.615  -7.904  11.789  1.00  0.00    -0.089 SA
BRANCH  14  15
HETATM   15  C6  UNL     1      58.759  -8.966  12.920  1.00  0.00     0.127 C 
BRANCH  15  16
HETATM   16  C5  UNL     1      57.257  -8.982  12.838  1.00  0.00     0.073 C 
BRANCH  16  17
HETATM   17  N1  UNL     1      56.610  -8.787  14.055  1.00  0.00    -0.374 N 
BRANCH  17  18
HETATM   18  C2  UNL     1      55.812  -7.686  14.337  1.00  0.00     0.122 C 
HETATM   19  C1  UNL     1      55.908  -6.640  13.204  1.00  0.00     0.027 C 
ENDBRANCH  17  18
BRANCH  17  20
HETATM   20  C3  UNL     1      56.921  -9.595  15.167  1.00  0.00     0.058 C 
HETATM   21  C4  UNL     1      55.778  -9.797  16.128  1.00  0.00     0.055 C 
ENDBRANCH  17  20
ENDBRANCH  16  17
ENDBRANCH  15  16
ENDBRANCH  14  15
ENDBRANCH   1  14
BRANCH   5  22
HETATM   22  N3  UNL     1      64.611  -7.419   8.929  1.00  0.00    -0.302 N 
ATOM     23  H3  UNL     1      65.149  -6.614   9.251  1.00  0.00     0.182 HD
BRANCH  22  24
HETATM   24  N4  UNL     1      64.011  -7.435   7.668  1.00  0.00    -0.146 NA
HETATM   25  C10 UNL     1      64.816  -6.848   6.626  1.00  0.00     0.159 C 
ENDBRANCH  22  24
ENDBRANCH   5  22
TORSDOF 8
ENDMDL
