MODEL 1
REMARK VINA RESULT: -6.901890579      0.000      0.000
REMARK  9 active torsions:
REMARK  status: ('A' for Active; 'I' for Inactive)
REMARK    1  A    between atoms: C2_2  and  C3_3 
REMARK    2  A    between atoms: C3_3  and  C4_4 
REMARK    3  A    between atoms: C5_9  and  S1_10 
REMARK    4  A    between atoms: S1_10  and  C6_11 
REMARK    5  A    between atoms: C6_11  and  C7_12 
REMARK    6  A    between atoms: C7_12  and  N3_13 
REMARK    7  A    between atoms: C8_18  and  C9_19 
REMARK    8  A    between atoms: C9_19  and  O1_20 
REMARK    9  A    between atoms: C11_22  and  N6_23 
ROOT
HETATM    1  C7  UNL     1      61.893  -9.494  11.496  1.00  0.00     0.163 C 
ENDROOT
BRANCH   1   2
HETATM    2  C6  UNL     1      61.025  -8.345  11.947  1.00  0.00     0.103 C 
BRANCH   2   3
HETATM    3  S1  UNL     1      59.280  -8.581  11.695  1.00  0.00    -0.109 SA
BRANCH   3   4
HETATM    4  C5  UNL     1      58.396  -8.894  13.208  1.00  0.00     0.092 A 
HETATM    5  N2  UNL     1      58.704  -9.641  14.269  1.00  0.00    -0.293 N 
HETATM    6  N1  UNL     1      57.755  -9.583  15.176  1.00  0.00    -0.303 N 
ATOM      7  H2  UNL     1      59.562 -10.184  14.364  1.00  0.00     0.187 HD
HETATM    8  C4  UNL     1      56.730  -8.764  14.744  1.00  0.00     0.034 A 
ATOM      9  H1  UNL     1      57.772 -10.074  16.071  1.00  0.00     0.186 HD
HETATM   10  C12 UNL     1      57.144  -8.339  13.511  1.00  0.00    -0.003 A 
HETATM   11  C13 UNL     1      56.418  -7.404  12.625  1.00  0.00     0.053 C 
BRANCH   8  12
HETATM   12  C3  UNL     1      55.504  -8.518  15.527  1.00  0.00     0.059 C 
BRANCH  12  13
HETATM   13  C2  UNL     1      54.974  -9.625  16.340  1.00  0.00     0.002 C 
HETATM   14  C1  UNL     1      53.557 -10.024  16.046  1.00  0.00     0.005 C 
ENDBRANCH  12  13
ENDBRANCH   8  12
ENDBRANCH   3   4
ENDBRANCH   2   3
ENDBRANCH   1   2
BRANCH   1  15
HETATM   15  N3  UNL     1      62.975  -8.928  10.676  1.00  0.00    -0.260 N 
HETATM   16  N4  UNL     1      62.834  -8.097   9.658  1.00  0.00    -0.239 N 
HETATM   17  N5  UNL     1      64.004  -7.790   9.150  1.00  0.00    -0.284 N 
ATOM     18  H4  UNL     1      61.940  -7.743   9.317  1.00  0.00     0.208 HD
HETATM   19  C8  UNL     1      64.931  -8.422   9.834  1.00  0.00     0.095 A 
ATOM     20  H5  UNL     1      64.166  -7.167   8.359  1.00  0.00     0.188 HD
HETATM   21  C11 UNL     1      64.270  -9.163  10.826  1.00  0.00     0.143 A 
BRANCH  19  22
HETATM   22  C9  UNL     1      66.377  -8.425   9.630  1.00  0.00     0.229 C 
BRANCH  22  23
HETATM   23  O1  UNL     1      67.126  -7.947  10.645  1.00  0.00    -0.390 OA
HETATM   24  C10 UNL     1      67.766  -6.783  10.389  1.00  0.00     0.201 C 
ENDBRANCH  22  23
ENDBRANCH  19  22
BRANCH  21  25
HETATM   25  N6  UNL     1      64.837  -9.916  11.701  1.00  0.00    -0.383 N 
ATOM     26  H62 UNL     1      65.455 -10.702  11.498  1.00  0.00     0.157 HD
ATOM     27  H61 UNL     1      64.768  -9.855  12.717  1.00  0.00     0.157 HD
ENDBRANCH  21  25
ENDBRANCH   1  15
TORSDOF 9
ENDMDL
MODEL 2
REMARK VINA RESULT: -6.892861939      2.031      2.443
REMARK  9 active torsions:
REMARK  status: ('A' for Active; 'I' for Inactive)
REMARK    1  A    between atoms: C2_2  and  C3_3 
REMARK    2  A    between atoms: C3_3  and  C4_4 
REMARK    3  A    between atoms: C5_9  and  S1_10 
REMARK    4  A    between atoms: S1_10  and  C6_11 
REMARK    5  A    between atoms: C6_11  and  C7_12 
REMARK    6  A    between atoms: C7_12  and  N3_13 
REMARK    7  A    between atoms: C8_18  and  C9_19 
REMARK    8  A    between atoms: C9_19  and  O1_20 
REMARK    9  A    between atoms: C11_22  and  N6_23 
ROOT
HETATM    1  C7  UNL     1      61.596  -8.125  12.098  1.00  0.00     0.163 C 
ENDROOT
BRANCH   1   2
HETATM    2  C6  UNL     1      60.364  -7.478  11.518  1.00  0.00     0.103 C 
BRANCH   2   3
HETATM    3  S1  UNL     1      58.937  -8.535  11.420  1.00  0.00    -0.109 SA
BRANCH   3   4
HETATM    4  C5  UNL     1      58.154  -8.795  12.997  1.00  0.00     0.092 A 
HETATM    5  N2  UNL     1      58.513  -9.536  14.046  1.00  0.00    -0.293 N 
HETATM    6  N1  UNL     1      57.635  -9.433  15.018  1.00  0.00    -0.303 N 
ATOM      7  H2  UNL     1      59.358 -10.107  14.089  1.00  0.00     0.187 HD
HETATM    8  C4  UNL     1      56.609  -8.586  14.646  1.00  0.00     0.034 A 
ATOM      9  H1  UNL     1      57.700  -9.910  15.917  1.00  0.00     0.186 HD
HETATM   10  C12 UNL     1      56.947  -8.193  13.380  1.00  0.00    -0.003 A 
HETATM   11  C13 UNL     1      56.190  -7.247  12.532  1.00  0.00     0.053 C 
BRANCH   8  12
HETATM   12  C3  UNL     1      55.452  -8.286  15.511  1.00  0.00     0.059 C 
BRANCH  12  13
HETATM   13  C2  UNL     1      54.978  -9.345  16.417  1.00  0.00     0.002 C 
HETATM   14  C1  UNL     1      53.682  -9.998  16.027  1.00  0.00     0.005 C 
ENDBRANCH  12  13
ENDBRANCH   8  12
ENDBRANCH   3   4
ENDBRANCH   2   3
ENDBRANCH   1   2
BRANCH   1  15
HETATM   15  N3  UNL     1      62.421  -8.585  10.970  1.00  0.00    -0.260 N 
HETATM   16  N4  UNL     1      62.874  -7.840   9.977  1.00  0.00    -0.239 N 
HETATM   17  N5  UNL     1      63.577  -8.566   9.142  1.00  0.00    -0.284 N 
ATOM     18  H4  UNL     1      62.702  -6.839   9.876  1.00  0.00     0.208 HD
HETATM   19  C8  UNL     1      63.592  -9.804   9.581  1.00  0.00     0.095 A 
ATOM     20  H5  UNL     1      64.034  -8.228   8.295  1.00  0.00     0.188 HD
HETATM   21  C11 UNL     1      62.843  -9.823  10.768  1.00  0.00     0.143 A 
BRANCH  19  22
HETATM   22  C9  UNL     1      64.214 -10.982   8.981  1.00  0.00     0.229 C 
BRANCH  22  23
HETATM   23  O1  UNL     1      63.471 -12.107   8.960  1.00  0.00    -0.390 OA
HETATM   24  C10 UNL     1      62.822 -12.346   7.797  1.00  0.00     0.201 C 
ENDBRANCH  22  23
ENDBRANCH  19  22
BRANCH  21  25
HETATM   25  N6  UNL     1      62.626 -10.859  11.500  1.00  0.00    -0.383 N 
ATOM     26  H62 UNL     1      62.166 -11.716  11.194  1.00  0.00     0.157 HD
ATOM     27  H61 UNL     1      62.870 -10.993  12.481  1.00  0.00     0.157 HD
ENDBRANCH  21  25
ENDBRANCH   1  15
TORSDOF 9
ENDMDL
MODEL 3
REMARK VINA RESULT: -6.740074303      1.892      2.421
REMARK  9 active torsions:
REMARK  status: ('A' for Active; 'I' for Inactive)
REMARK    1  A    between atoms: C2_2  and  C3_3 
REMARK    2  A    between atoms: C3_3  and  C4_4 
REMARK    3  A    between atoms: C5_9  and  S1_10 
REMARK    4  A    between atoms: S1_10  and  C6_11 
REMARK    5  A    between atoms: C6_11  and  C7_12 
REMARK    6  A    between atoms: C7_12  and  N3_13 
REMARK    7  A    between atoms: C8_18  and  C9_19 
REMARK    8  A    between atoms: C9_19  and  O1_20 
REMARK    9  A    between atoms: C11_22  and  N6_23 
ROOT
HETATM    1  C7  UNL     1      61.623  -7.927  12.082  1.00  0.00     0.163 C 
ENDROOT
BRANCH   1   2
HETATM    2  C6  UNL     1      60.450  -7.454  11.260  1.00  0.00     0.103 C 
BRANCH   2   3
HETATM    3  S1  UNL     1      59.067  -8.572  11.217  1.00  0.00    -0.109 SA
BRANCH   3   4
HETATM    4  C5  UNL     1      58.347  -8.850  12.820  1.00  0.00     0.092 A 
HETATM    5  N2  UNL     1      58.790  -9.533  13.877  1.00  0.00    -0.293 N 
HETATM    6  N1  UNL     1      57.930  -9.473  14.870  1.00  0.00    -0.303 N 
ATOM      7  H2  UNL     1      59.678 -10.034  13.911  1.00  0.00     0.187 HD
HETATM    8  C4  UNL     1      56.832  -8.720  14.505  1.00  0.00     0.034 A 
ATOM      9  H1  UNL     1      58.056  -9.920  15.778  1.00  0.00     0.186 HD
HETATM   10  C12 UNL     1      57.106  -8.335  13.221  1.00  0.00    -0.003 A 
HETATM   11  C13 UNL     1      56.255  -7.475  12.370  1.00  0.00     0.053 C 
BRANCH   8  12
HETATM   12  C3  UNL     1      55.677  -8.490  15.393  1.00  0.00     0.059 C 
BRANCH  12  13
HETATM   13  C2  UNL     1      55.176  -9.629  16.180  1.00  0.00     0.002 C 
HETATM   14  C1  UNL     1      53.710  -9.921  16.034  1.00  0.00     0.005 C 
ENDBRANCH  12  13
ENDBRANCH   8  12
ENDBRANCH   3   4
ENDBRANCH   2   3
ENDBRANCH   1   2
BRANCH   1  15
HETATM   15  N3  UNL     1      62.259  -9.029  11.343  1.00  0.00    -0.260 N 
HETATM   16  N4  UNL     1      62.118 -10.320  11.589  1.00  0.00    -0.239 N 
HETATM   17  N5  UNL     1      62.824 -11.028  10.741  1.00  0.00    -0.284 N 
ATOM     18  H4  UNL     1      61.541 -10.710  12.335  1.00  0.00     0.208 HD
HETATM   19  C8  UNL     1      63.439 -10.204   9.924  1.00  0.00     0.095 A 
ATOM     20  H5  UNL     1      62.884 -12.046  10.719  1.00  0.00     0.188 HD
HETATM   21  C11 UNL     1      63.076  -8.904  10.309  1.00  0.00     0.143 A 
BRANCH  19  22
HETATM   22  C9  UNL     1      64.360 -10.512   8.833  1.00  0.00     0.229 C 
BRANCH  22  23
HETATM   23  O1  UNL     1      64.171  -9.838   7.680  1.00  0.00    -0.390 OA
HETATM   24  C10 UNL     1      63.541 -10.533   6.704  1.00  0.00     0.201 C 
ENDBRANCH  22  23
ENDBRANCH  19  22
BRANCH  21  25
HETATM   25  N6  UNL     1      63.475  -7.817   9.748  1.00  0.00    -0.383 N 
ATOM     26  H62 UNL     1      64.049  -7.098  10.187  1.00  0.00     0.157 HD
ATOM     27  H61 UNL     1      63.291  -7.503   8.795  1.00  0.00     0.157 HD
ENDBRANCH  21  25
ENDBRANCH   1  15
TORSDOF 9
ENDMDL
MODEL 4
REMARK VINA RESULT: -6.706712563      2.158      2.602
REMARK  9 active torsions:
REMARK  status: ('A' for Active; 'I' for Inactive)
REMARK    1  A    between atoms: C2_2  and  C3_3 
REMARK    2  A    between atoms: C3_3  and  C4_4 
REMARK    3  A    between atoms: C5_9  and  S1_10 
REMARK    4  A    between atoms: S1_10  and  C6_11 
REMARK    5  A    between atoms: C6_11  and  C7_12 
REMARK    6  A    between atoms: C7_12  and  N3_13 
REMARK    7  A    between atoms: C8_18  and  C9_19 
REMARK    8  A    between atoms: C9_19  and  O1_20 
REMARK    9  A    between atoms: C11_22  and  N6_23 
ROOT
HETATM    1  C7  UNL     1      62.204  -8.628  11.648  1.00  0.00     0.163 C 
ENDROOT
BRANCH   1   2
HETATM    2  C6  UNL     1      61.160  -7.566  11.411  1.00  0.00     0.103 C 
BRANCH   2   3
HETATM    3  S1  UNL     1      59.511  -8.181  11.152  1.00  0.00    -0.109 SA
BRANCH   3   4
HETATM    4  C5  UNL     1      58.763  -8.814  12.638  1.00  0.00     0.092 A 
HETATM    5  N2  UNL     1      59.296  -9.407  13.707  1.00  0.00    -0.293 N 
HETATM    6  N1  UNL     1      58.368  -9.713  14.587  1.00  0.00    -0.303 N 
ATOM      7  H2  UNL     1      60.291  -9.598  13.826  1.00  0.00     0.187 HD
HETATM    8  C4  UNL     1      57.126  -9.323  14.125  1.00  0.00     0.034 A 
ATOM      9  H1  UNL     1      58.541 -10.172  15.481  1.00  0.00     0.186 HD
HETATM   10  C12 UNL     1      57.388  -8.761  12.905  1.00  0.00    -0.003 A 
HETATM   11  C13 UNL     1      56.392  -8.149  11.998  1.00  0.00     0.053 C 
BRANCH   8  12
HETATM   12  C3  UNL     1      55.875  -9.553  14.872  1.00  0.00     0.059 C 
BRANCH  12  13
HETATM   13  C2  UNL     1      55.528  -8.603  15.942  1.00  0.00     0.002 C 
HETATM   14  C1  UNL     1      54.612  -7.483  15.540  1.00  0.00     0.005 C 
ENDBRANCH  12  13
ENDBRANCH   8  12
ENDBRANCH   3   4
ENDBRANCH   2   3
ENDBRANCH   1   2
BRANCH   1  15
HETATM   15  N3  UNL     1      62.930  -8.818  10.382  1.00  0.00    -0.260 N 
HETATM   16  N4  UNL     1      63.320  -7.865   9.554  1.00  0.00    -0.239 N 
HETATM   17  N5  UNL     1      63.941  -8.381   8.520  1.00  0.00    -0.284 N 
ATOM     18  H4  UNL     1      63.161  -6.867   9.699  1.00  0.00     0.208 HD
HETATM   19  C8  UNL     1      63.965  -9.687   8.661  1.00  0.00     0.095 A 
ATOM     20  H5  UNL     1      64.339  -7.857   7.740  1.00  0.00     0.188 HD
HETATM   21  C11 UNL     1      63.309  -9.977   9.868  1.00  0.00     0.143 A 
BRANCH  19  22
HETATM   22  C9  UNL     1      64.514 -10.696   7.759  1.00  0.00     0.229 C 
BRANCH  22  23
HETATM   23  O1  UNL     1      63.708 -11.735   7.460  1.00  0.00    -0.390 OA
HETATM   24  C10 UNL     1      62.944 -11.569   6.355  1.00  0.00     0.201 C 
ENDBRANCH  22  23
ENDBRANCH  19  22
BRANCH  21  25
HETATM   25  N6  UNL     1      63.128 -11.153  10.358  1.00  0.00    -0.383 N 
ATOM     26  H62 UNL     1      63.697 -11.975  10.156  1.00  0.00     0.157 HD
ATOM     27  H61 UNL     1      62.405 -11.452  11.012  1.00  0.00     0.157 HD
ENDBRANCH  21  25
ENDBRANCH   1  15
TORSDOF 9
ENDMDL
MODEL 5
REMARK VINA RESULT: -6.663502826      2.182      2.564
REMARK  9 active torsions:
REMARK  status: ('A' for Active; 'I' for Inactive)
REMARK    1  A    between atoms: C2_2  and  C3_3 
REMARK    2  A    between atoms: C3_3  and  C4_4 
REMARK    3  A    between atoms: C5_9  and  S1_10 
REMARK    4  A    between atoms: S1_10  and  C6_11 
REMARK    5  A    between atoms: C6_11  and  C7_12 
REMARK    6  A    between atoms: C7_12  and  N3_13 
REMARK    7  A    between atoms: C8_18  and  C9_19 
REMARK    8  A    between atoms: C9_19  and  O1_20 
REMARK    9  A    between atoms: C11_22  and  N6_23 
ROOT
HETATM    1  C7  UNL     1      60.958  -8.849  12.270  1.00  0.00     0.163 C 
ENDROOT
BRANCH   1   2
HETATM    2  C6  UNL     1      59.938  -7.806  11.884  1.00  0.00     0.103 C 
BRANCH   2   3
HETATM    3  S1  UNL     1      58.323  -8.444  11.502  1.00  0.00    -0.109 SA
BRANCH   3   4
HETATM    4  C5  UNL     1      57.089  -7.974  12.696  1.00  0.00     0.092 A 
HETATM    5  N2  UNL     1      56.109  -7.071  12.640  1.00  0.00    -0.293 N 
HETATM    6  N1  UNL     1      55.419  -7.054  13.758  1.00  0.00    -0.303 N 
ATOM      7  H2  UNL     1      55.920  -6.472  11.835  1.00  0.00     0.187 HD
HETATM    8  C4  UNL     1      55.928  -7.981  14.646  1.00  0.00     0.034 A 
ATOM      9  H1  UNL     1      54.623  -6.444  13.944  1.00  0.00     0.186 HD
HETATM   10  C12 UNL     1      56.972  -8.550  13.969  1.00  0.00    -0.003 A 
HETATM   11  C13 UNL     1      57.841  -9.638  14.467  1.00  0.00     0.053 C 
BRANCH   8  12
HETATM   12  C3  UNL     1      55.388  -8.183  16.004  1.00  0.00     0.059 C 
BRANCH  12  13
HETATM   13  C2  UNL     1      55.017  -9.552  16.400  1.00  0.00     0.002 C 
HETATM   14  C1  UNL     1      53.635  -9.988  16.006  1.00  0.00     0.005 C 
ENDBRANCH  12  13
ENDBRANCH   8  12
ENDBRANCH   3   4
ENDBRANCH   2   3
ENDBRANCH   1   2
BRANCH   1  15
HETATM   15  N3  UNL     1      62.004  -8.840  11.237  1.00  0.00    -0.260 N 
HETATM   16  N4  UNL     1      62.288  -7.842  10.418  1.00  0.00    -0.239 N 
HETATM   17  N5  UNL     1      63.278  -8.169   9.622  1.00  0.00    -0.284 N 
ATOM     18  H4  UNL     1      61.805  -6.944  10.408  1.00  0.00     0.208 HD
HETATM   19  C8  UNL     1      63.656  -9.393   9.911  1.00  0.00     0.095 A 
ATOM     20  H5  UNL     1      63.684  -7.573   8.901  1.00  0.00     0.188 HD
HETATM   21  C11 UNL     1      62.833  -9.835  10.959  1.00  0.00     0.143 A 
BRANCH  19  22
HETATM   22  C9  UNL     1      64.694 -10.204   9.282  1.00  0.00     0.229 C 
BRANCH  22  23
HETATM   23  O1  UNL     1      64.314 -11.415   8.825  1.00  0.00    -0.390 OA
HETATM   24  C10 UNL     1      63.573 -11.395   7.693  1.00  0.00     0.201 C 
ENDBRANCH  22  23
ENDBRANCH  19  22
BRANCH  21  25
HETATM   25  N6  UNL     1      62.894 -10.990  11.524  1.00  0.00    -0.383 N 
ATOM     26  H62 UNL     1      62.942 -11.886  11.040  1.00  0.00     0.157 HD
ATOM     27  H61 UNL     1      62.906 -11.197  12.522  1.00  0.00     0.157 HD
ENDBRANCH  21  25
ENDBRANCH   1  15
TORSDOF 9
ENDMDL
