MODEL 1
REMARK VINA RESULT: -6.774130629      0.000      0.000
REMARK  8 active torsions:
REMARK  status: ('A' for Active; 'I' for Inactive)
REMARK    1  A    between atoms: C2_2  and  C3_3 
REMARK    2  A    between atoms: C3_3  and  S1_4 
REMARK    3  A    between atoms: S1_4  and  C4_5 
REMARK    4  A    between atoms: C5_10  and  C6_11 
REMARK    5  A    between atoms: C6_11  and  C7_12 
REMARK    6  A    between atoms: C7_12  and  N3_13 
REMARK       I    between atoms: N3_13  and  C8_15 
REMARK       I    between atoms: C8_15  and  N5_21 
REMARK    7  A    between atoms: N4_16  and  C9_18 
REMARK    8  A    between atoms: C9_18  and  C10_19 
ROOT
HETATM    1  N3  UNL     1      58.852  -9.226  13.175  1.00  0.00    -0.225 N 
ATOM      2  H3  UNL     1      59.284  -9.901  13.807  1.00  0.00     0.177 HD
HETATM    3  C8  UNL     1      57.603  -8.665  13.528  1.00  0.00     0.682 C 
HETATM    4  N4  UNL     1      57.019  -8.925  14.629  1.00  0.00    -0.225 N 
ATOM      5  H4  UNL     1      56.119  -8.488  14.827  1.00  0.00     0.177 HD
HETATM    6  N5  UNL     1      56.965  -7.769  12.594  1.00  0.00    -0.126 N 
ATOM      7  H5  UNL     1      57.183  -7.831  11.599  1.00  0.00     0.197 HD
HETATM    8  C11 UNL     1      56.054  -6.823  13.049  1.00  0.00     0.196 C 
HETATM    9  N6  UNL     1      55.287  -6.051  13.438  1.00  0.00    -0.171 NA
ENDROOT
BRANCH   1  10
HETATM   10  C7  UNL     1      59.532  -8.881  11.962  1.00  0.00     0.145 C 
BRANCH  10  11
HETATM   11  C6  UNL     1      60.789  -8.118  12.302  1.00  0.00     0.098 C 
BRANCH  11  12
HETATM   12  C5  UNL     1      61.823  -8.582  11.309  1.00  0.00     0.099 A 
HETATM   13  N2  UNL     1      62.417  -7.783  10.385  1.00  0.00    -0.287 N 
HETATM   14  N1  UNL     1      63.252  -8.535   9.698  1.00  0.00    -0.278 N 
ATOM     15  H2  UNL     1      62.248  -6.787  10.248  1.00  0.00     0.188 HD
HETATM   16  C4  UNL     1      63.224  -9.824  10.152  1.00  0.00     0.160 A 
ATOM     17  H1  UNL     1      63.839  -8.202   8.933  1.00  0.00     0.189 HD
HETATM   18  N7  UNL     1      62.324  -9.813  11.152  1.00  0.00    -0.324 N 
ATOM     19  H7  UNL     1      62.061 -10.626  11.710  1.00  0.00     0.169 HD
BRANCH  16  20
HETATM   20  S1  UNL     1      64.191 -11.177   9.491  1.00  0.00    -0.092 SA
BRANCH  20  21
HETATM   21  C3  UNL     1      63.113 -12.340   8.615  1.00  0.00     0.082 C 
BRANCH  21  22
HETATM   22  C2  UNL     1      63.168 -13.666   9.386  1.00  0.00     0.006 C 
HETATM   23  C1  UNL     1      62.762 -14.774   8.425  1.00  0.00     0.006 C 
ENDBRANCH  21  22
ENDBRANCH  20  21
ENDBRANCH  16  20
ENDBRANCH  11  12
ENDBRANCH  10  11
ENDBRANCH   1  10
BRANCH   4  24
HETATM   24  C9  UNL     1      57.590  -9.816  15.602  1.00  0.00     0.149 C 
BRANCH  24  25
HETATM   25  C10 UNL     1      56.508 -10.383  16.526  1.00  0.00     0.106 C 
HETATM   26  S2  UNL     1      55.037  -9.343  16.320  1.00  0.00    -0.096 SA
ENDBRANCH  24  25
ENDBRANCH   4  24
TORSDOF 8
ENDMDL
MODEL 2
REMARK VINA RESULT: -6.520232788      0.799      1.129
REMARK  8 active torsions:
REMARK  status: ('A' for Active; 'I' for Inactive)
REMARK    1  A    between atoms: C2_2  and  C3_3 
REMARK    2  A    between atoms: C3_3  and  S1_4 
REMARK    3  A    between atoms: S1_4  and  C4_5 
REMARK    4  A    between atoms: C5_10  and  C6_11 
REMARK    5  A    between atoms: C6_11  and  C7_12 
REMARK    6  A    between atoms: C7_12  and  N3_13 
REMARK       I    between atoms: N3_13  and  C8_15 
REMARK       I    between atoms: C8_15  and  N5_21 
REMARK    7  A    between atoms: N4_16  and  C9_18 
REMARK    8  A    between atoms: C9_18  and  C10_19 
ROOT
HETATM    1  N3  UNL     1      58.903  -9.261  13.195  1.00  0.00    -0.225 N 
ATOM      2  H3  UNL     1      59.322  -9.941  13.830  1.00  0.00     0.177 HD
HETATM    3  C8  UNL     1      57.651  -8.696  13.530  1.00  0.00     0.682 C 
HETATM    4  N4  UNL     1      57.048  -8.960  14.620  1.00  0.00    -0.225 N 
ATOM      5  H4  UNL     1      56.146  -8.520  14.805  1.00  0.00     0.177 HD
HETATM    6  N5  UNL     1      57.032  -7.793  12.590  1.00  0.00    -0.126 N 
ATOM      7  H5  UNL     1      57.267  -7.850  11.599  1.00  0.00     0.197 HD
HETATM    8  C11 UNL     1      56.118  -6.846  13.035  1.00  0.00     0.196 C 
HETATM    9  N6  UNL     1      55.348  -6.072  13.416  1.00  0.00    -0.171 NA
ENDROOT
BRANCH   1  10
HETATM   10  C7  UNL     1      59.605  -8.912  11.995  1.00  0.00     0.145 C 
BRANCH  10  11
HETATM   11  C6  UNL     1      60.890  -8.211  12.362  1.00  0.00     0.098 C 
BRANCH  11  12
HETATM   12  C5  UNL     1      61.882  -8.605  11.298  1.00  0.00     0.099 A 
HETATM   13  N2  UNL     1      62.381  -7.760  10.359  1.00  0.00    -0.287 N 
HETATM   14  N1  UNL     1      63.207  -8.458   9.607  1.00  0.00    -0.278 N 
ATOM     15  H2  UNL     1      62.158  -6.771  10.256  1.00  0.00     0.188 HD
HETATM   16  C4  UNL     1      63.265  -9.755  10.031  1.00  0.00     0.160 A 
ATOM     17  H1  UNL     1      63.730  -8.082   8.816  1.00  0.00     0.189 HD
HETATM   18  N7  UNL     1      62.429  -9.808  11.084  1.00  0.00    -0.324 N 
ATOM     19  H7  UNL     1      62.238 -10.643  11.638  1.00  0.00     0.169 HD
BRANCH  16  20
HETATM   20  S1  UNL     1      64.252 -11.047   9.282  1.00  0.00    -0.092 SA
BRANCH  20  21
HETATM   21  C3  UNL     1      63.222 -12.055   8.184  1.00  0.00     0.082 C 
BRANCH  21  22
HETATM   22  C2  UNL     1      63.203 -11.351   6.820  1.00  0.00     0.006 C 
HETATM   23  C1  UNL     1      62.453 -12.250   5.848  1.00  0.00     0.006 C 
ENDBRANCH  21  22
ENDBRANCH  20  21
ENDBRANCH  16  20
ENDBRANCH  11  12
ENDBRANCH  10  11
ENDBRANCH   1  10
BRANCH   4  24
HETATM   24  C9  UNL     1      57.599  -9.859  15.597  1.00  0.00     0.149 C 
BRANCH  24  25
HETATM   25  C10 UNL     1      56.520 -10.328  16.578  1.00  0.00     0.106 C 
HETATM   26  S2  UNL     1      55.050  -9.311  16.275  1.00  0.00    -0.096 SA
ENDBRANCH  24  25
ENDBRANCH   4  24
TORSDOF 8
ENDMDL
MODEL 3
REMARK VINA RESULT: -6.435949206      2.109      3.050
REMARK  8 active torsions:
REMARK  status: ('A' for Active; 'I' for Inactive)
REMARK    1  A    between atoms: C2_2  and  C3_3 
REMARK    2  A    between atoms: C3_3  and  S1_4 
REMARK    3  A    between atoms: S1_4  and  C4_5 
REMARK    4  A    between atoms: C5_10  and  C6_11 
REMARK    5  A    between atoms: C6_11  and  C7_12 
REMARK    6  A    between atoms: C7_12  and  N3_13 
REMARK       I    between atoms: N3_13  and  C8_15 
REMARK       I    between atoms: C8_15  and  N5_21 
REMARK    7  A    between atoms: N4_16  and  C9_18 
REMARK    8  A    between atoms: C9_18  and  C10_19 
ROOT
HETATM    1  N3  UNL     1      58.549  -8.952  12.798  1.00  0.00    -0.225 N 
ATOM      2  H3  UNL     1      59.024  -9.666  13.350  1.00  0.00     0.177 HD
HETATM    3  C8  UNL     1      57.323  -8.429  13.270  1.00  0.00     0.682 C 
HETATM    4  N4  UNL     1      56.813  -8.773  14.385  1.00  0.00    -0.225 N 
ATOM      5  H4  UNL     1      55.926  -8.359  14.671  1.00  0.00     0.177 HD
HETATM    6  N5  UNL     1      56.622  -7.474  12.446  1.00  0.00    -0.126 N 
ATOM      7  H5  UNL     1      56.776  -7.462  11.437  1.00  0.00     0.197 HD
HETATM    8  C11 UNL     1      55.739  -6.571  13.025  1.00  0.00     0.196 C 
HETATM    9  N6  UNL     1      54.995  -5.836  13.518  1.00  0.00    -0.171 NA
ENDROOT
BRANCH   1  10
HETATM   10  C7  UNL     1      59.148  -8.514  11.572  1.00  0.00     0.145 C 
BRANCH  10  11
HETATM   11  C6  UNL     1      60.350  -7.658  11.888  1.00  0.00     0.098 C 
BRANCH  11  12
HETATM   12  C5  UNL     1      61.524  -8.365  11.262  1.00  0.00     0.099 A 
HETATM   13  N2  UNL     1      61.873  -9.653  11.518  1.00  0.00    -0.287 N 
HETATM   14  N1  UNL     1      62.945  -9.916  10.798  1.00  0.00    -0.278 N 
ATOM     15  H2  UNL     1      61.396 -10.295  12.148  1.00  0.00     0.188 HD
HETATM   16  C4  UNL     1      63.313  -8.822  10.066  1.00  0.00     0.160 A 
ATOM     17  H1  UNL     1      63.432 -10.812  10.788  1.00  0.00     0.189 HD
HETATM   18  N7  UNL     1      62.407  -7.879  10.382  1.00  0.00    -0.324 N 
ATOM     19  H7  UNL     1      62.395  -6.931  10.005  1.00  0.00     0.169 HD
BRANCH  16  20
HETATM   20  S1  UNL     1      64.722  -8.740   8.965  1.00  0.00    -0.092 SA
BRANCH  20  21
HETATM   21  C3  UNL     1      65.466  -7.089   9.033  1.00  0.00     0.082 C 
BRANCH  21  22
HETATM   22  C2  UNL     1      65.999  -6.781   7.627  1.00  0.00     0.006 C 
HETATM   23  C1  UNL     1      64.809  -6.753   6.679  1.00  0.00     0.006 C 
ENDBRANCH  21  22
ENDBRANCH  20  21
ENDBRANCH  16  20
ENDBRANCH  11  12
ENDBRANCH  10  11
ENDBRANCH   1  10
BRANCH   4  24
HETATM   24  C9  UNL     1      57.450  -9.726  15.252  1.00  0.00     0.149 C 
BRANCH  24  25
HETATM   25  C10 UNL     1      56.492 -10.185  16.357  1.00  0.00     0.106 C 
HETATM   26  S2  UNL     1      55.026  -9.123  16.262  1.00  0.00    -0.096 SA
ENDBRANCH  24  25
ENDBRANCH   4  24
TORSDOF 8
ENDMDL
MODEL 4
REMARK VINA RESULT: -6.428139384      1.552      2.684
REMARK  8 active torsions:
REMARK  status: ('A' for Active; 'I' for Inactive)
REMARK    1  A    between atoms: C2_2  and  C3_3 
REMARK    2  A    between atoms: C3_3  and  S1_4 
REMARK    3  A    between atoms: S1_4  and  C4_5 
REMARK    4  A    between atoms: C5_10  and  C6_11 
REMARK    5  A    between atoms: C6_11  and  C7_12 
REMARK    6  A    between atoms: C7_12  and  N3_13 
REMARK       I    between atoms: N3_13  and  C8_15 
REMARK       I    between atoms: C8_15  and  N5_21 
REMARK    7  A    between atoms: N4_16  and  C9_18 
REMARK    8  A    between atoms: C9_18  and  C10_19 
ROOT
HETATM    1  N3  UNL     1      58.369  -8.237  12.326  1.00  0.00    -0.225 N 
ATOM      2  H3  UNL     1      58.074  -7.578  11.605  1.00  0.00     0.177 HD
HETATM    3  C8  UNL     1      57.571  -8.384  13.484  1.00  0.00     0.682 C 
HETATM    4  N4  UNL     1      56.468  -7.766  13.641  1.00  0.00    -0.225 N 
ATOM      5  H4  UNL     1      55.936  -7.914  14.499  1.00  0.00     0.177 HD
HETATM    6  N5  UNL     1      58.034  -9.263  14.529  1.00  0.00    -0.126 N 
ATOM      7  H5  UNL     1      59.030  -9.463  14.623  1.00  0.00     0.197 HD
HETATM    8  C11 UNL     1      57.125  -9.837  15.410  1.00  0.00     0.196 C 
HETATM    9  N6  UNL     1      56.359 -10.297  16.144  1.00  0.00    -0.171 NA
ENDROOT
BRANCH   1  10
HETATM   10  C7  UNL     1      59.577  -8.983  12.128  1.00  0.00     0.145 C 
BRANCH  10  11
HETATM   11  C6  UNL     1      60.756  -8.048  12.242  1.00  0.00     0.098 C 
BRANCH  11  12
HETATM   12  C5  UNL     1      61.811  -8.618  11.329  1.00  0.00     0.099 A 
HETATM   13  N2  UNL     1      62.485  -7.904  10.391  1.00  0.00    -0.287 N 
HETATM   14  N1  UNL     1      63.314  -8.733   9.791  1.00  0.00    -0.278 N 
ATOM     15  H2  UNL     1      62.372  -6.911  10.189  1.00  0.00     0.188 HD
HETATM   16  C4  UNL     1      63.201  -9.990  10.316  1.00  0.00     0.160 A 
ATOM     17  H1  UNL     1      63.951  -8.473   9.037  1.00  0.00     0.189 HD
HETATM   18  N7  UNL     1      62.258  -9.878  11.268  1.00  0.00    -0.324 N 
ATOM     19  H7  UNL     1      61.930 -10.643  11.859  1.00  0.00     0.169 HD
BRANCH  16  20
HETATM   20  S1  UNL     1      64.131 -11.423   9.781  1.00  0.00    -0.092 SA
BRANCH  20  21
HETATM   21  C3  UNL     1      63.094 -12.482   8.739  1.00  0.00     0.082 C 
BRANCH  21  22
HETATM   22  C2  UNL     1      63.155 -13.893   9.337  1.00  0.00     0.006 C 
HETATM   23  C1  UNL     1      62.773 -14.875   8.239  1.00  0.00     0.006 C 
ENDBRANCH  21  22
ENDBRANCH  20  21
ENDBRANCH  16  20
ENDBRANCH  11  12
ENDBRANCH  10  11
ENDBRANCH   1  10
BRANCH   4  24
HETATM   24  C9  UNL     1      55.950  -6.867  12.646  1.00  0.00     0.149 C 
BRANCH  24  25
HETATM   25  C10 UNL     1      55.000  -5.843  13.276  1.00  0.00     0.106 C 
HETATM   26  S2  UNL     1      53.807  -5.370  11.996  1.00  0.00    -0.096 SA
ENDBRANCH  24  25
ENDBRANCH   4  24
TORSDOF 8
ENDMDL
MODEL 5
REMARK VINA RESULT: -6.406128000      2.376      8.448
REMARK  8 active torsions:
REMARK  status: ('A' for Active; 'I' for Inactive)
REMARK    1  A    between atoms: C2_2  and  C3_3 
REMARK    2  A    between atoms: C3_3  and  S1_4 
REMARK    3  A    between atoms: S1_4  and  C4_5 
REMARK    4  A    between atoms: C5_10  and  C6_11 
REMARK    5  A    between atoms: C6_11  and  C7_12 
REMARK    6  A    between atoms: C7_12  and  N3_13 
REMARK       I    between atoms: N3_13  and  C8_15 
REMARK       I    between atoms: C8_15  and  N5_21 
REMARK    7  A    between atoms: N4_16  and  C9_18 
REMARK    8  A    between atoms: C9_18  and  C10_19 
ROOT
HETATM    1  N3  UNL     1      62.132  -7.962  10.826  1.00  0.00    -0.225 N 
ATOM      2  H3  UNL     1      62.429  -7.141  10.298  1.00  0.00     0.177 HD
HETATM    3  C8  UNL     1      62.857  -9.167  10.678  1.00  0.00     0.682 C 
HETATM    4  N4  UNL     1      63.901  -9.256   9.953  1.00  0.00    -0.225 N 
ATOM      5  H4  UNL     1      64.381 -10.153   9.887  1.00  0.00     0.177 HD
HETATM    6  N5  UNL     1      62.386 -10.341  11.371  1.00  0.00    -0.126 N 
ATOM      7  H5  UNL     1      61.402 -10.419  11.630  1.00  0.00     0.197 HD
HETATM    8  C11 UNL     1      63.271 -11.366  11.686  1.00  0.00     0.196 C 
HETATM    9  N6  UNL     1      64.014 -12.217  11.929  1.00  0.00    -0.171 NA
ENDROOT
BRANCH   1  10
HETATM   10  C7  UNL     1      60.995  -7.854  11.692  1.00  0.00     0.145 C 
BRANCH  10  11
HETATM   11  C6  UNL     1      59.738  -7.869  10.859  1.00  0.00     0.098 C 
BRANCH  11  12
HETATM   12  C5  UNL     1      58.647  -8.343  11.784  1.00  0.00     0.099 A 
HETATM   13  N2  UNL     1      57.334  -8.428  11.447  1.00  0.00    -0.287 N 
HETATM   14  N1  UNL     1      56.689  -8.874  12.506  1.00  0.00    -0.278 N 
ATOM     15  H2  UNL     1      56.925  -8.191  10.545  1.00  0.00     0.188 HD
HETATM   16  C4  UNL     1      57.553  -9.088  13.542  1.00  0.00     0.160 A 
ATOM     17  H1  UNL     1      55.682  -9.036  12.546  1.00  0.00     0.189 HD
HETATM   18  N7  UNL     1      58.760  -8.747  13.055  1.00  0.00    -0.324 N 
ATOM     19  H7  UNL     1      59.634  -8.789  13.579  1.00  0.00     0.169 HD
BRANCH  16  20
HETATM   20  S1  UNL     1      57.094  -9.677  15.169  1.00  0.00    -0.092 SA
BRANCH  20  21
HETATM   21  C3  UNL     1      55.413 -10.351  15.132  1.00  0.00     0.082 C 
BRANCH  21  22
HETATM   22  C2  UNL     1      54.599  -9.579  16.179  1.00  0.00     0.006 C 
HETATM   23  C1  UNL     1      54.846  -8.095  15.950  1.00  0.00     0.006 C 
ENDBRANCH  21  22
ENDBRANCH  20  21
ENDBRANCH  16  20
ENDBRANCH  11  12
ENDBRANCH  10  11
ENDBRANCH   1  10
BRANCH   4  24
HETATM   24  C9  UNL     1      64.422  -8.131   9.226  1.00  0.00     0.149 C 
BRANCH  24  25
HETATM   25  C10 UNL     1      64.364  -8.382   7.716  1.00  0.00     0.106 C 
HETATM   26  S2  UNL     1      65.036  -6.905   6.907  1.00  0.00    -0.096 SA
ENDBRANCH  24  25
ENDBRANCH   4  24
TORSDOF 8
ENDMDL
