MODEL 1
REMARK VINA RESULT: -6.379008241      0.000      0.000
REMARK  10 active torsions:
REMARK  status: ('A' for Active; 'I' for Inactive)
REMARK    1  A    between atoms: N2_4  and  O1_6 
REMARK    2  A    between atoms: O1_6  and  C1_7 
REMARK    3  A    between atoms: C1_7  and  C2_8 
REMARK    4  A    between atoms: C2_8  and  O2_9 
REMARK    5  A    between atoms: C2_8  and  C3_11 
REMARK    6  A    between atoms: C3_11  and  C4_12 
REMARK    7  A    between atoms: C4_12  and  N3_13 
REMARK    8  A    between atoms: N4_15  and  N5_17 
REMARK    9  A    between atoms: N5_17  and  C5_19 
REMARK   10  A    between atoms: C5_19  and  N6_21 
ROOT
HETATM    1  N3  UNL     1      59.031  -8.928  11.458  1.00  0.00    -0.322 N 
ATOM      2  H3  UNL     1      59.150  -9.408  10.566  1.00  0.00     0.181 HD
HETATM    3  N4  UNL     1      57.942  -8.345  11.735  1.00  0.00    -0.245 N 
ATOM      4  H4  UNL     1      57.184  -8.361  11.053  1.00  0.00     0.208 HD
ENDROOT
BRANCH   1   5
HETATM    5  C4  UNL     1      60.102  -8.903  12.428  1.00  0.00     0.143 C 
BRANCH   5   6
HETATM    6  C3  UNL     1      61.363  -9.338  11.734  1.00  0.00     0.055 C 
BRANCH   6   7
HETATM    7  C2  UNL     1      62.029  -8.189  11.009  1.00  0.00     0.146 C 
BRANCH   7   8
HETATM    8  C1  UNL     1      63.299  -8.720  10.394  1.00  0.00     0.234 C 
BRANCH   8   9
HETATM    9  O1  UNL     1      63.812  -7.838   9.430  1.00  0.00    -0.263 OA
BRANCH   9  10
HETATM   10  N2  UNL     1      63.597  -8.101   8.115  1.00  0.00    -0.214 N 
HETATM   11  N1  UNL     1      64.000  -7.359   7.187  1.00  0.00    -0.326 N 
ATOM     12  H12 UNL     1      64.514  -6.520   7.451  1.00  0.00     0.178 HD
ATOM     13  H11 UNL     1      63.838  -7.557   6.199  1.00  0.00     0.178 HD
ATOM     14  H2  UNL     1      63.081  -8.946   7.870  1.00  0.00     0.215 HD
ENDBRANCH   9  10
ENDBRANCH   8   9
ENDBRANCH   7   8
BRANCH   7  15
HETATM   15  O2  UNL     1      61.135  -7.748  10.036  1.00  0.00    -0.393 OA
ATOM     16  H2  UNL     1      60.861  -6.852  10.194  1.00  0.00     0.210 HD
ENDBRANCH   7  15
ENDBRANCH   6   7
ENDBRANCH   5   6
ENDBRANCH   1   5
BRANCH   3  17
HETATM   17  N5  UNL     1      57.756  -7.695  12.925  1.00  0.00    -0.262 N 
ATOM     18  H5  UNL     1      58.577  -7.317  13.398  1.00  0.00     0.191 HD
BRANCH  17  19
HETATM   19  C5  UNL     1      56.502  -7.517  13.534  1.00  0.00     0.189 C 
HETATM   20  S1  UNL     1      55.387  -6.550  12.741  1.00  0.00    -0.039 SA
BRANCH  19  21
HETATM   21  N6  UNL     1      56.089  -8.070  14.748  1.00  0.00    -0.357 N 
HETATM   22  C6  UNL     1      54.942  -7.516  15.404  1.00  0.00     0.125 C 
HETATM   23  C7  UNL     1      54.596  -8.313  16.668  1.00  0.00     0.020 C 
HETATM   24  C8  UNL     1      54.281  -9.742  16.399  1.00  0.00     0.002 C 
HETATM   25  C9  UNL     1      54.649 -10.245  15.042  1.00  0.00     0.002 C 
HETATM   26  C10 UNL     1      56.142 -10.438  14.862  1.00  0.00     0.020 C 
HETATM   27  C11 UNL     1      56.911  -9.193  15.220  1.00  0.00     0.125 C 
ENDBRANCH  19  21
ENDBRANCH  17  19
ENDBRANCH   3  17
TORSDOF 10
ENDMDL
MODEL 2
REMARK VINA RESULT: -6.232834500      3.933      8.232
REMARK  10 active torsions:
REMARK  status: ('A' for Active; 'I' for Inactive)
REMARK    1  A    between atoms: N2_4  and  O1_6 
REMARK    2  A    between atoms: O1_6  and  C1_7 
REMARK    3  A    between atoms: C1_7  and  C2_8 
REMARK    4  A    between atoms: C2_8  and  O2_9 
REMARK    5  A    between atoms: C2_8  and  C3_11 
REMARK    6  A    between atoms: C3_11  and  C4_12 
REMARK    7  A    between atoms: C4_12  and  N3_13 
REMARK    8  A    between atoms: N4_15  and  N5_17 
REMARK    9  A    between atoms: N5_17  and  C5_19 
REMARK   10  A    between atoms: C5_19  and  N6_21 
ROOT
HETATM    1  N3  UNL     1      60.380  -7.491  10.820  1.00  0.00    -0.322 N 
ATOM      2  H3  UNL     1      59.812  -6.725  10.457  1.00  0.00     0.181 HD
HETATM    3  N4  UNL     1      61.643  -7.440  10.761  1.00  0.00    -0.245 N 
ATOM      4  H4  UNL     1      62.088  -6.622  10.345  1.00  0.00     0.208 HD
ENDROOT
BRANCH   1   5
HETATM    5  C4  UNL     1      59.755  -8.653  11.411  1.00  0.00     0.143 C 
BRANCH   5   6
HETATM    6  C3  UNL     1      58.266  -8.464  11.335  1.00  0.00     0.055 C 
BRANCH   6   7
HETATM    7  C2  UNL     1      57.669  -8.159  12.692  1.00  0.00     0.146 C 
BRANCH   7   8
HETATM    8  C1  UNL     1      58.278  -9.120  13.680  1.00  0.00     0.234 C 
BRANCH   8   9
HETATM    9  O1  UNL     1      57.430  -9.337  14.777  1.00  0.00    -0.263 OA
BRANCH   9  10
HETATM   10  N2  UNL     1      56.396  -8.482  14.989  1.00  0.00    -0.214 N 
HETATM   11  N1  UNL     1      55.723  -8.461  16.049  1.00  0.00    -0.326 N 
ATOM     12  H12 UNL     1      55.979  -9.126  16.777  1.00  0.00     0.178 HD
ATOM     13  H11 UNL     1      54.947  -7.819  16.208  1.00  0.00     0.178 HD
ATOM     14  H2  UNL     1      56.153  -7.823  14.249  1.00  0.00     0.215 HD
ENDBRANCH   9  10
ENDBRANCH   8   9
ENDBRANCH   7   8
BRANCH   7  15
HETATM   15  O2  UNL     1      57.996  -6.838  12.993  1.00  0.00    -0.393 OA
ATOM     16  H2  UNL     1      57.435  -6.225  12.533  1.00  0.00     0.210 HD
ENDBRANCH   7  15
ENDBRANCH   6   7
ENDBRANCH   5   6
ENDBRANCH   1   5
BRANCH   3  17
HETATM   17  N5  UNL     1      62.427  -8.454  11.241  1.00  0.00    -0.262 N 
ATOM     18  H5  UNL     1      62.262  -8.779  12.195  1.00  0.00     0.191 HD
BRANCH  17  19
HETATM   19  C5  UNL     1      63.447  -9.075  10.499  1.00  0.00     0.189 C 
HETATM   20  S1  UNL     1      64.358  -8.111   9.476  1.00  0.00    -0.039 SA
BRANCH  19  21
HETATM   21  N6  UNL     1      63.777 -10.433  10.529  1.00  0.00    -0.357 N 
HETATM   22  C6  UNL     1      63.160 -11.270  11.514  1.00  0.00     0.125 C 
HETATM   23  C7  UNL     1      63.578 -12.734  11.327  1.00  0.00     0.020 C 
HETATM   24  C8  UNL     1      63.201 -13.292  10.001  1.00  0.00     0.002 C 
HETATM   25  C9  UNL     1      62.782 -12.296   8.971  1.00  0.00     0.002 C 
HETATM   26  C10 UNL     1      63.939 -11.491   8.413  1.00  0.00     0.020 C 
HETATM   27  C11 UNL     1      64.749 -10.849   9.509  1.00  0.00     0.125 C 
ENDBRANCH  19  21
ENDBRANCH  17  19
ENDBRANCH   3  17
TORSDOF 10
ENDMDL
MODEL 3
REMARK VINA RESULT: -6.168193178      1.293      1.431
REMARK  10 active torsions:
REMARK  status: ('A' for Active; 'I' for Inactive)
REMARK    1  A    between atoms: N2_4  and  O1_6 
REMARK    2  A    between atoms: O1_6  and  C1_7 
REMARK    3  A    between atoms: C1_7  and  C2_8 
REMARK    4  A    between atoms: C2_8  and  O2_9 
REMARK    5  A    between atoms: C2_8  and  C3_11 
REMARK    6  A    between atoms: C3_11  and  C4_12 
REMARK    7  A    between atoms: C4_12  and  N3_13 
REMARK    8  A    between atoms: N4_15  and  N5_17 
REMARK    9  A    between atoms: N5_17  and  C5_19 
REMARK   10  A    between atoms: C5_19  and  N6_21 
ROOT
HETATM    1  N3  UNL     1      60.906  -8.620  12.523  1.00  0.00    -0.322 N 
ATOM      2  H3  UNL     1      61.705  -8.006  12.681  1.00  0.00     0.181 HD
HETATM    3  N4  UNL     1      59.849  -8.491  13.207  1.00  0.00    -0.245 N 
ATOM      4  H4  UNL     1      59.806  -7.764  13.921  1.00  0.00     0.208 HD
ENDROOT
BRANCH   1   5
HETATM    5  C4  UNL     1      60.961  -9.651  11.511  1.00  0.00     0.143 C 
BRANCH   5   6
HETATM    6  C3  UNL     1      62.407  -9.888  11.173  1.00  0.00     0.055 C 
BRANCH   6   7
HETATM    7  C2  UNL     1      62.985  -8.757  10.352  1.00  0.00     0.146 C 
BRANCH   7   8
HETATM    8  C1  UNL     1      63.627  -9.366   9.132  1.00  0.00     0.234 C 
BRANCH   8   9
HETATM    9  O1  UNL     1      63.314  -8.644   7.970  1.00  0.00    -0.263 OA
BRANCH   9  10
HETATM   10  N2  UNL     1      63.963  -7.476   7.726  1.00  0.00    -0.214 N 
HETATM   11  N1  UNL     1      64.291  -7.095   6.576  1.00  0.00    -0.326 N 
ATOM     12  H12 UNL     1      64.051  -7.706   5.796  1.00  0.00     0.178 HD
ATOM     13  H11 UNL     1      64.777  -6.218   6.393  1.00  0.00     0.178 HD
ATOM     14  H2  UNL     1      64.195  -6.877   8.519  1.00  0.00     0.215 HD
ENDBRANCH   9  10
ENDBRANCH   8   9
ENDBRANCH   7   8
BRANCH   7  15
HETATM   15  O2  UNL     1      61.924  -7.920  10.008  1.00  0.00    -0.393 OA
ATOM     16  H2  UNL     1      61.100  -8.391   9.990  1.00  0.00     0.210 HD
ENDBRANCH   7  15
ENDBRANCH   6   7
ENDBRANCH   5   6
ENDBRANCH   1   5
BRANCH   3  17
HETATM   17  N5  UNL     1      58.763  -9.302  13.014  1.00  0.00    -0.262 N 
ATOM     18  H5  UNL     1      58.930 -10.271  12.740  1.00  0.00     0.191 HD
BRANCH  17  19
HETATM   19  C5  UNL     1      57.432  -8.879  13.170  1.00  0.00     0.189 C 
HETATM   20  S1  UNL     1      56.559  -8.536  11.782  1.00  0.00    -0.039 SA
BRANCH  19  21
HETATM   21  N6  UNL     1      56.758  -8.713  14.383  1.00  0.00    -0.357 N 
HETATM   22  C6  UNL     1      55.679  -7.773  14.447  1.00  0.00     0.125 C 
HETATM   23  C7  UNL     1      55.011  -7.800  15.828  1.00  0.00     0.020 C 
HETATM   24  C8  UNL     1      54.439  -9.127  16.182  1.00  0.00     0.002 C 
HETATM   25  C9  UNL     1      54.865 -10.270  15.322  1.00  0.00     0.002 C 
HETATM   26  C10 UNL     1      56.294 -10.708  15.576  1.00  0.00     0.020 C 
HETATM   27  C11 UNL     1      57.255  -9.552  15.480  1.00  0.00     0.125 C 
ENDBRANCH  19  21
ENDBRANCH  17  19
ENDBRANCH   3  17
TORSDOF 10
ENDMDL
MODEL 4
REMARK VINA RESULT: -6.150319660      1.905      2.100
REMARK  10 active torsions:
REMARK  status: ('A' for Active; 'I' for Inactive)
REMARK    1  A    between atoms: N2_4  and  O1_6 
REMARK    2  A    between atoms: O1_6  and  C1_7 
REMARK    3  A    between atoms: C1_7  and  C2_8 
REMARK    4  A    between atoms: C2_8  and  O2_9 
REMARK    5  A    between atoms: C2_8  and  C3_11 
REMARK    6  A    between atoms: C3_11  and  C4_12 
REMARK    7  A    between atoms: C4_12  and  N3_13 
REMARK    8  A    between atoms: N4_15  and  N5_17 
REMARK    9  A    between atoms: N5_17  and  C5_19 
REMARK   10  A    between atoms: C5_19  and  N6_21 
ROOT
HETATM    1  N3  UNL     1      59.266  -8.385  11.083  1.00  0.00    -0.322 N 
ATOM      2  H3  UNL     1      59.385  -8.505  10.077  1.00  0.00     0.181 HD
HETATM    3  N4  UNL     1      58.121  -8.486  11.612  1.00  0.00    -0.245 N 
ATOM      4  H4  UNL     1      57.317  -8.690  11.019  1.00  0.00     0.208 HD
ENDROOT
BRANCH   1   5
HETATM    5  C4  UNL     1      60.402  -8.096  11.928  1.00  0.00     0.143 C 
BRANCH   5   6
HETATM    6  C3  UNL     1      61.338  -9.271  11.860  1.00  0.00     0.055 C 
BRANCH   6   7
HETATM    7  C2  UNL     1      62.576  -8.957  11.048  1.00  0.00     0.146 C 
BRANCH   7   8
HETATM    8  C1  UNL     1      63.122 -10.264  10.534  1.00  0.00     0.234 C 
BRANCH   8   9
HETATM    9  O1  UNL     1      62.093 -11.121  10.113  1.00  0.00    -0.263 OA
BRANCH   9  10
HETATM   10  N2  UNL     1      62.413 -12.244   9.418  1.00  0.00    -0.214 N 
HETATM   11  N1  UNL     1      62.444 -13.389   9.930  1.00  0.00    -0.326 N 
ATOM     12  H12 UNL     1      62.215 -13.463  10.920  1.00  0.00     0.178 HD
ATOM     13  H11 UNL     1      62.685 -14.231   9.408  1.00  0.00     0.178 HD
ATOM     14  H2  UNL     1      62.640 -12.150   8.427  1.00  0.00     0.215 HD
ENDBRANCH   9  10
ENDBRANCH   8   9
ENDBRANCH   7   8
BRANCH   7  15
HETATM   15  O2  UNL     1      62.179  -8.122  10.006  1.00  0.00    -0.393 OA
ATOM     16  H2  UNL     1      61.285  -7.821  10.121  1.00  0.00     0.210 HD
ENDBRANCH   7  15
ENDBRANCH   6   7
ENDBRANCH   5   6
ENDBRANCH   1   5
BRANCH   3  17
HETATM   17  N5  UNL     1      57.934  -8.329  12.959  1.00  0.00    -0.262 N 
ATOM     18  H5  UNL     1      58.718  -8.532  13.579  1.00  0.00     0.191 HD
BRANCH  17  19
HETATM   19  C5  UNL     1      56.726  -7.904  13.538  1.00  0.00     0.189 C 
HETATM   20  S1  UNL     1      55.782  -6.832  12.664  1.00  0.00    -0.039 SA
BRANCH  19  21
HETATM   21  N6  UNL     1      56.231  -8.290  14.787  1.00  0.00    -0.357 N 
HETATM   22  C6  UNL     1      55.114  -7.578  15.334  1.00  0.00     0.125 C 
HETATM   23  C7  UNL     1      54.663  -8.205  16.660  1.00  0.00     0.020 C 
HETATM   24  C8  UNL     1      54.238  -9.625  16.528  1.00  0.00     0.002 C 
HETATM   25  C9  UNL     1      54.605 -10.298  15.247  1.00  0.00     0.002 C 
HETATM   26  C10 UNL     1      56.082 -10.628  15.149  1.00  0.00     0.020 C 
HETATM   27  C11 UNL     1      56.940  -9.417  15.405  1.00  0.00     0.125 C 
ENDBRANCH  19  21
ENDBRANCH  17  19
ENDBRANCH   3  17
TORSDOF 10
ENDMDL
MODEL 5
REMARK VINA RESULT: -6.148028312      3.827      8.370
REMARK  10 active torsions:
REMARK  status: ('A' for Active; 'I' for Inactive)
REMARK    1  A    between atoms: N2_4  and  O1_6 
REMARK    2  A    between atoms: O1_6  and  C1_7 
REMARK    3  A    between atoms: C1_7  and  C2_8 
REMARK    4  A    between atoms: C2_8  and  O2_9 
REMARK    5  A    between atoms: C2_8  and  C3_11 
REMARK    6  A    between atoms: C3_11  and  C4_12 
REMARK    7  A    between atoms: C4_12  and  N3_13 
REMARK    8  A    between atoms: N4_15  and  N5_17 
REMARK    9  A    between atoms: N5_17  and  C5_19 
REMARK   10  A    between atoms: C5_19  and  N6_21 
ROOT
HETATM    1  N3  UNL     1      60.439  -8.057  11.460  1.00  0.00    -0.322 N 
ATOM      2  H3  UNL     1      59.588  -7.525  11.279  1.00  0.00     0.181 HD
HETATM    3  N4  UNL     1      61.478  -7.866  10.764  1.00  0.00    -0.245 N 
ATOM      4  H4  UNL     1      61.455  -7.171  10.018  1.00  0.00     0.208 HD
ENDROOT
BRANCH   1   5
HETATM    5  C4  UNL     1      60.478  -9.043  12.517  1.00  0.00     0.143 C 
BRANCH   5   6
HETATM    6  C3  UNL     1      59.142  -9.034  13.206  1.00  0.00     0.055 C 
BRANCH   6   7
HETATM    7  C2  UNL     1      58.113  -8.246  12.426  1.00  0.00     0.146 C 
BRANCH   7   8
HETATM    8  C1  UNL     1      56.780  -8.919  12.629  1.00  0.00     0.234 C 
BRANCH   8   9
HETATM    9  O1  UNL     1      56.585  -9.281  13.971  1.00  0.00    -0.263 OA
BRANCH   9  10
HETATM   10  N2  UNL     1      56.190  -8.331  14.859  1.00  0.00    -0.214 N 
HETATM   11  N1  UNL     1      55.906  -8.580  16.056  1.00  0.00    -0.326 N 
ATOM     12  H12 UNL     1      55.980  -9.549  16.361  1.00  0.00     0.178 HD
ATOM     13  H11 UNL     1      55.610  -7.867  16.722  1.00  0.00     0.178 HD
ATOM     14  H2  UNL     1      56.122  -7.366  14.535  1.00  0.00     0.215 HD
ENDBRANCH   9  10
ENDBRANCH   8   9
ENDBRANCH   7   8
BRANCH   7  15
HETATM   15  O2  UNL     1      58.116  -6.951  12.940  1.00  0.00    -0.393 OA
ATOM     16  H2  UNL     1      58.862  -6.803  13.510  1.00  0.00     0.210 HD
ENDBRANCH   7  15
ENDBRANCH   6   7
ENDBRANCH   5   6
ENDBRANCH   1   5
BRANCH   3  17
HETATM   17  N5  UNL     1      62.633  -8.567  10.987  1.00  0.00    -0.262 N 
ATOM     18  H5  UNL     1      63.120  -8.420  11.871  1.00  0.00     0.191 HD
BRANCH  17  19
HETATM   19  C5  UNL     1      63.186  -9.478  10.070  1.00  0.00     0.189 C 
HETATM   20  S1  UNL     1      63.954  -8.849   8.721  1.00  0.00    -0.039 SA
BRANCH  19  21
HETATM   21  N6  UNL     1      63.156 -10.871  10.173  1.00  0.00    -0.357 N 
HETATM   22  C6  UNL     1      63.129 -11.650   8.971  1.00  0.00     0.125 C 
HETATM   23  C7  UNL     1      63.190 -13.150   9.289  1.00  0.00     0.020 C 
HETATM   24  C8  UNL     1      64.421 -13.548  10.024  1.00  0.00     0.002 C 
HETATM   25  C9  UNL     1      65.223 -12.430  10.604  1.00  0.00     0.002 C 
HETATM   26  C10 UNL     1      64.578 -11.804  11.825  1.00  0.00     0.020 C 
HETATM   27  C11 UNL     1      63.158 -11.383  11.549  1.00  0.00     0.125 C 
ENDBRANCH  19  21
ENDBRANCH  17  19
ENDBRANCH   3  17
TORSDOF 10
ENDMDL
