MODEL 1
REMARK VINA RESULT: -6.701374765      0.000      0.000
REMARK  10 active torsions:
REMARK  status: ('A' for Active; 'I' for Inactive)
REMARK    1  A    between atoms: C2_2  and  O1_3 
REMARK    2  A    between atoms: C2_2  and  C3_5 
REMARK    3  A    between atoms: C3_5  and  C4_6 
REMARK    4  A    between atoms: C4_6  and  N1_7 
REMARK    5  A    between atoms: C4_6  and  C8_13 
REMARK    6  A    between atoms: N1_7  and  C5_10 
REMARK    7  A    between atoms: C9_17  and  C10_18 
REMARK    8  A    between atoms: C10_18  and  C12_20 
REMARK    9  A    between atoms: C12_20  and  O3_21 
REMARK   10  A    between atoms: C12_20  and  C13_23 
ROOT
HETATM    1  C8  UNL     1      61.210  -8.244  11.419  1.00  0.00     0.135 A 
HETATM    2  N2  UNL     1      61.009  -6.963  11.729  1.00  0.00    -0.245 N 
ATOM      3  H2  UNL     1      61.728  -6.242  11.675  1.00  0.00     0.196 HD
HETATM    4  O2  UNL     1      59.773  -6.742  12.112  1.00  0.00    -0.222 OA
HETATM    5  C9  UNL     1      59.112  -7.863  12.066  1.00  0.00     0.154 A 
HETATM    6  N3  UNL     1      59.982  -8.805  11.643  1.00  0.00    -0.325 N 
ATOM      7  H3  UNL     1      59.756  -9.790  11.509  1.00  0.00     0.169 HD
ENDROOT
BRANCH   1   8
HETATM    8  C4  UNL     1      62.439  -8.982  11.000  1.00  0.00     0.257 C 
BRANCH   8   9
HETATM    9  C3  UNL     1      62.463 -10.419  11.327  1.00  0.00     0.072 C 
BRANCH   9  10
HETATM   10  C2  UNL     1      62.847 -11.393  10.289  1.00  0.00     0.116 C 
HETATM   11  C1  UNL     1      63.256 -12.702  10.966  1.00  0.00     0.039 C 
BRANCH  10  12
HETATM   12  O1  UNL     1      61.912 -11.703   9.328  1.00  0.00    -0.396 OA
ATOM     13  H1  UNL     1      61.230 -12.212   9.750  1.00  0.00     0.210 HD
ENDBRANCH  10  12
ENDBRANCH   9  10
ENDBRANCH   8   9
BRANCH   8  14
HETATM   14  N1  UNL     1      62.824  -8.610   9.661  1.00  0.00    -0.060 N 
ATOM     15  H12 UNL     1      62.818  -9.408   9.027  1.00  0.00     0.278 HD
ATOM     16  H11 UNL     1      62.110  -8.047   9.201  1.00  0.00     0.278 HD
BRANCH  14  17
HETATM   17  C5  UNL     1      64.104  -7.946   9.680  1.00  0.00     0.187 A 
HETATM   18  C6  UNL     1      65.394  -8.670   9.623  1.00  0.00     0.035 A 
HETATM   19  C7  UNL     1      64.942  -7.901   8.430  1.00  0.00     0.035 A 
ENDBRANCH  14  17
ENDBRANCH   8  14
ENDBRANCH   1   8
BRANCH   5  20
HETATM   20  C10 UNL     1      57.687  -8.166  12.389  1.00  0.00     0.088 C 
HETATM   21  C11 UNL     1      56.971  -8.664  11.159  1.00  0.00     0.021 C 
BRANCH  20  22
HETATM   22  C12 UNL     1      57.727  -9.286  13.408  1.00  0.00     0.133 C 
BRANCH  22  23
HETATM   23  O3  UNL     1      58.901  -9.237  14.151  1.00  0.00    -0.394 OA
ATOM     24  H3  UNL     1      58.980  -8.404  14.602  1.00  0.00     0.210 HD
ENDBRANCH  22  23
BRANCH  22  25
HETATM   25  C13 UNL     1      56.510  -9.377  14.273  1.00  0.00     0.007 C 
HETATM   26  C14 UNL     1      56.895  -9.903  15.648  1.00  0.00     0.012 C 
HETATM   27  C15 UNL     1      56.011  -7.937  14.454  1.00  0.00     0.012 C 
ENDBRANCH  22  25
ENDBRANCH  20  22
ENDBRANCH   5  20
TORSDOF 10
ENDMDL
MODEL 2
REMARK VINA RESULT: -6.668657203      1.115      2.474
REMARK  10 active torsions:
REMARK  status: ('A' for Active; 'I' for Inactive)
REMARK    1  A    between atoms: C2_2  and  O1_3 
REMARK    2  A    between atoms: C2_2  and  C3_5 
REMARK    3  A    between atoms: C3_5  and  C4_6 
REMARK    4  A    between atoms: C4_6  and  N1_7 
REMARK    5  A    between atoms: C4_6  and  C8_13 
REMARK    6  A    between atoms: N1_7  and  C5_10 
REMARK    7  A    between atoms: C9_17  and  C10_18 
REMARK    8  A    between atoms: C10_18  and  C12_20 
REMARK    9  A    between atoms: C12_20  and  O3_21 
REMARK   10  A    between atoms: C12_20  and  C13_23 
ROOT
HETATM    1  C8  UNL     1      60.933  -8.480  11.374  1.00  0.00     0.135 A 
HETATM    2  N2  UNL     1      60.821  -7.192  11.700  1.00  0.00    -0.245 N 
ATOM      3  H2  UNL     1      61.572  -6.509  11.600  1.00  0.00     0.196 HD
HETATM    4  O2  UNL     1      59.627  -6.908  12.167  1.00  0.00    -0.222 OA
HETATM    5  C9  UNL     1      58.907  -7.992  12.163  1.00  0.00     0.154 A 
HETATM    6  N3  UNL     1      59.694  -8.976  11.679  1.00  0.00    -0.325 N 
ATOM      7  H3  UNL     1      59.409  -9.948  11.559  1.00  0.00     0.169 HD
ENDROOT
BRANCH   1   8
HETATM    8  C4  UNL     1      62.089  -9.279  10.871  1.00  0.00     0.257 C 
BRANCH   8   9
HETATM    9  C3  UNL     1      63.365  -8.551  10.752  1.00  0.00     0.072 C 
BRANCH   9  10
HETATM   10  C2  UNL     1      63.863  -8.171   9.417  1.00  0.00     0.116 C 
HETATM   11  C1  UNL     1      65.231  -8.817   9.197  1.00  0.00     0.039 C 
BRANCH  10  12
HETATM   12  O1  UNL     1      63.080  -8.486   8.331  1.00  0.00    -0.396 OA
ATOM     13  H1  UNL     1      63.591  -8.305   7.551  1.00  0.00     0.210 HD
ENDBRANCH  10  12
ENDBRANCH   9  10
ENDBRANCH   8   9
BRANCH   8  14
HETATM   14  N1  UNL     1      62.131 -10.571  11.509  1.00  0.00    -0.060 N 
ATOM     15  H12 UNL     1      62.216 -10.494  12.522  1.00  0.00     0.278 HD
ATOM     16  H11 UNL     1      61.228 -11.045  11.471  1.00  0.00     0.278 HD
BRANCH  14  17
HETATM   17  C5  UNL     1      63.184 -11.373  10.939  1.00  0.00     0.187 A 
HETATM   18  C6  UNL     1      63.810 -12.513  11.647  1.00  0.00     0.035 A 
HETATM   19  C7  UNL     1      62.898 -12.784  10.502  1.00  0.00     0.035 A 
ENDBRANCH  14  17
ENDBRANCH   8  14
ENDBRANCH   1   8
BRANCH   5  20
HETATM   20  C10 UNL     1      57.492  -8.222  12.581  1.00  0.00     0.088 C 
HETATM   21  C11 UNL     1      56.670  -8.676  11.402  1.00  0.00     0.021 C 
BRANCH  20  22
HETATM   22  C12 UNL     1      57.542  -9.348  13.594  1.00  0.00     0.133 C 
BRANCH  22  23
HETATM   23  O3  UNL     1      58.741  -9.328  14.296  1.00  0.00    -0.394 OA
ATOM     24  H3  UNL     1      58.592  -9.127  15.213  1.00  0.00     0.210 HD
ENDBRANCH  22  23
BRANCH  22  25
HETATM   25  C13 UNL     1      56.353  -9.417  14.498  1.00  0.00     0.007 C 
HETATM   26  C14 UNL     1      56.768  -9.978  15.851  1.00  0.00     0.012 C 
HETATM   27  C15 UNL     1      55.905  -7.966  14.720  1.00  0.00     0.012 C 
ENDBRANCH  22  25
ENDBRANCH  20  22
ENDBRANCH   5  20
TORSDOF 10
ENDMDL
MODEL 3
REMARK VINA RESULT: -6.611430369      2.414      7.543
REMARK  10 active torsions:
REMARK  status: ('A' for Active; 'I' for Inactive)
REMARK    1  A    between atoms: C2_2  and  O1_3 
REMARK    2  A    between atoms: C2_2  and  C3_5 
REMARK    3  A    between atoms: C3_5  and  C4_6 
REMARK    4  A    between atoms: C4_6  and  N1_7 
REMARK    5  A    between atoms: C4_6  and  C8_13 
REMARK    6  A    between atoms: N1_7  and  C5_10 
REMARK    7  A    between atoms: C9_17  and  C10_18 
REMARK    8  A    between atoms: C10_18  and  C12_20 
REMARK    9  A    between atoms: C12_20  and  O3_21 
REMARK   10  A    between atoms: C12_20  and  C13_23 
ROOT
HETATM    1  C8  UNL     1      57.525  -7.877  12.381  1.00  0.00     0.135 A 
HETATM    2  N2  UNL     1      57.421  -8.616  11.276  1.00  0.00    -0.245 N 
ATOM      3  H2  UNL     1      56.549  -9.024  10.941  1.00  0.00     0.196 HD
HETATM    4  O2  UNL     1      58.578  -8.755  10.672  1.00  0.00    -0.222 OA
HETATM    5  C9  UNL     1      59.485  -8.113  11.349  1.00  0.00     0.154 A 
HETATM    6  N3  UNL     1      58.857  -7.565  12.411  1.00  0.00    -0.325 N 
ATOM      7  H3  UNL     1      59.309  -7.001  13.131  1.00  0.00     0.169 HD
ENDROOT
BRANCH   1   8
HETATM    8  C4  UNL     1      56.520  -7.498  13.419  1.00  0.00     0.257 C 
BRANCH   8   9
HETATM    9  C3  UNL     1      55.703  -6.310  13.114  1.00  0.00     0.072 C 
BRANCH   9  10
HETATM   10  C2  UNL     1      54.608  -6.415  12.132  1.00  0.00     0.116 C 
HETATM   11  C1  UNL     1      53.810  -5.111  12.141  1.00  0.00     0.039 C 
BRANCH  10  12
HETATM   12  O1  UNL     1      54.946  -6.680  10.825  1.00  0.00    -0.396 OA
ATOM     13  H1  UNL     1      54.341  -7.339  10.504  1.00  0.00     0.210 HD
ENDBRANCH  10  12
ENDBRANCH   9  10
ENDBRANCH   8   9
BRANCH   8  14
HETATM   14  N1  UNL     1      55.823  -8.664  13.902  1.00  0.00    -0.060 N 
ATOM     15  H12 UNL     1      54.843  -8.666  13.622  1.00  0.00     0.278 HD
ATOM     16  H11 UNL     1      56.117  -9.512  13.419  1.00  0.00     0.278 HD
BRANCH  14  17
HETATM   17  C5  UNL     1      55.976  -8.778  15.331  1.00  0.00     0.187 A 
HETATM   18  C6  UNL     1      54.964  -8.290  16.296  1.00  0.00     0.035 A 
HETATM   19  C7  UNL     1      55.129  -9.758  16.098  1.00  0.00     0.035 A 
ENDBRANCH  14  17
ENDBRANCH   8  14
ENDBRANCH   1   8
BRANCH   5  20
HETATM   20  C10 UNL     1      60.948  -7.945  11.101  1.00  0.00     0.088 C 
HETATM   21  C11 UNL     1      61.446  -6.687  11.765  1.00  0.00     0.021 C 
BRANCH  20  22
HETATM   22  C12 UNL     1      61.615  -9.134  11.764  1.00  0.00     0.133 C 
BRANCH  22  23
HETATM   23  O3  UNL     1      60.730  -9.786  12.614  1.00  0.00    -0.394 OA
ATOM     24  H3  UNL     1      61.157 -10.022  13.429  1.00  0.00     0.210 HD
ENDBRANCH  22  23
BRANCH  22  25
HETATM   25  C13 UNL     1      62.288 -10.072  10.814  1.00  0.00     0.007 C 
HETATM   26  C14 UNL     1      63.409  -9.347  10.084  1.00  0.00     0.012 C 
HETATM   27  C15 UNL     1      62.933 -11.162  11.680  1.00  0.00     0.012 C 
ENDBRANCH  22  25
ENDBRANCH  20  22
ENDBRANCH   5  20
TORSDOF 10
ENDMDL
MODEL 4
REMARK VINA RESULT: -6.572712971      1.217      1.809
REMARK  10 active torsions:
REMARK  status: ('A' for Active; 'I' for Inactive)
REMARK    1  A    between atoms: C2_2  and  O1_3 
REMARK    2  A    between atoms: C2_2  and  C3_5 
REMARK    3  A    between atoms: C3_5  and  C4_6 
REMARK    4  A    between atoms: C4_6  and  N1_7 
REMARK    5  A    between atoms: C4_6  and  C8_13 
REMARK    6  A    between atoms: N1_7  and  C5_10 
REMARK    7  A    between atoms: C9_17  and  C10_18 
REMARK    8  A    between atoms: C10_18  and  C12_20 
REMARK    9  A    between atoms: C12_20  and  O3_21 
REMARK   10  A    between atoms: C12_20  and  C13_23 
ROOT
HETATM    1  C8  UNL     1      61.402  -8.457  11.176  1.00  0.00     0.135 A 
HETATM    2  N2  UNL     1      60.683  -7.404  10.786  1.00  0.00    -0.245 N 
ATOM      3  H2  UNL     1      61.021  -6.686  10.145  1.00  0.00     0.196 HD
HETATM    4  O2  UNL     1      59.487  -7.401  11.327  1.00  0.00    -0.222 OA
HETATM    5  C9  UNL     1      59.369  -8.450  12.088  1.00  0.00     0.154 A 
HETATM    6  N3  UNL     1      60.541  -9.115  12.012  1.00  0.00    -0.325 N 
ATOM      7  H3  UNL     1      60.755  -9.982  12.505  1.00  0.00     0.169 HD
ENDROOT
BRANCH   1   8
HETATM    8  C4  UNL     1      62.811  -8.857  10.888  1.00  0.00     0.257 C 
BRANCH   8   9
HETATM    9  C3  UNL     1      63.182 -10.225  11.294  1.00  0.00     0.072 C 
BRANCH   9  10
HETATM   10  C2  UNL     1      63.131 -11.315  10.302  1.00  0.00     0.116 C 
HETATM   11  C1  UNL     1      63.465 -12.634  10.999  1.00  0.00     0.039 C 
BRANCH  10  12
HETATM   12  O1  UNL     1      61.953 -11.500   9.617  1.00  0.00    -0.396 OA
ATOM     13  H1  UNL     1      61.379 -10.776   9.838  1.00  0.00     0.210 HD
ENDBRANCH  10  12
ENDBRANCH   9  10
ENDBRANCH   8   9
BRANCH   8  14
HETATM   14  N1  UNL     1      63.198  -8.441   9.563  1.00  0.00    -0.060 N 
ATOM     15  H12 UNL     1      63.092  -9.191   8.881  1.00  0.00     0.278 HD
ATOM     16  H11 UNL     1      62.534  -7.779   9.162  1.00  0.00     0.278 HD
BRANCH  14  17
HETATM   17  C5  UNL     1      64.540  -7.914   9.580  1.00  0.00     0.187 A 
HETATM   18  C6  UNL     1      65.680  -8.574   8.904  1.00  0.00     0.035 A 
HETATM   19  C7  UNL     1      65.126  -7.318   8.329  1.00  0.00     0.035 A 
ENDBRANCH  14  17
ENDBRANCH   8  14
ENDBRANCH   1   8
BRANCH   5  20
HETATM   20  C10 UNL     1      58.224  -8.925  12.921  1.00  0.00     0.088 C 
HETATM   21  C11 UNL     1      58.734  -9.607  14.164  1.00  0.00     0.021 C 
BRANCH  20  22
HETATM   22  C12 UNL     1      57.472  -7.675  13.333  1.00  0.00     0.133 C 
BRANCH  22  23
HETATM   23  O3  UNL     1      58.172  -6.533  12.963  1.00  0.00    -0.394 OA
ATOM     24  H3  UNL     1      57.994  -6.305  12.058  1.00  0.00     0.210 HD
ENDBRANCH  22  23
BRANCH  22  25
HETATM   25  C13 UNL     1      56.046  -7.638  12.886  1.00  0.00     0.007 C 
HETATM   26  C14 UNL     1      55.493  -6.229  13.045  1.00  0.00     0.012 C 
HETATM   27  C15 UNL     1      56.064  -7.958  11.385  1.00  0.00     0.012 C 
ENDBRANCH  22  25
ENDBRANCH  20  22
ENDBRANCH   5  20
TORSDOF 10
ENDMDL
MODEL 5
REMARK VINA RESULT: -6.541125484      2.259      7.716
REMARK  10 active torsions:
REMARK  status: ('A' for Active; 'I' for Inactive)
REMARK    1  A    between atoms: C2_2  and  O1_3 
REMARK    2  A    between atoms: C2_2  and  C3_5 
REMARK    3  A    between atoms: C3_5  and  C4_6 
REMARK    4  A    between atoms: C4_6  and  N1_7 
REMARK    5  A    between atoms: C4_6  and  C8_13 
REMARK    6  A    between atoms: N1_7  and  C5_10 
REMARK    7  A    between atoms: C9_17  and  C10_18 
REMARK    8  A    between atoms: C10_18  and  C12_20 
REMARK    9  A    between atoms: C12_20  and  O3_21 
REMARK   10  A    between atoms: C12_20  and  C13_23 
ROOT
HETATM    1  C8  UNL     1      58.156  -8.639  13.304  1.00  0.00     0.135 A 
HETATM    2  N2  UNL     1      58.963  -9.547  13.852  1.00  0.00    -0.245 N 
ATOM      3  H2  UNL     1      58.725 -10.101  14.675  1.00  0.00     0.196 HD
HETATM    4  O2  UNL     1      60.101  -9.643  13.206  1.00  0.00    -0.222 OA
HETATM    5  C9  UNL     1      60.088  -8.808  12.207  1.00  0.00     0.154 A 
HETATM    6  N3  UNL     1      58.896  -8.175  12.250  1.00  0.00    -0.325 N 
ATOM      7  H3  UNL     1      58.592  -7.456  11.594  1.00  0.00     0.169 HD
ENDROOT
BRANCH   1   8
HETATM    8  C4  UNL     1      56.809  -8.136  13.707  1.00  0.00     0.257 C 
BRANCH   8   9
HETATM    9  C3  UNL     1      56.139  -7.254  12.735  1.00  0.00     0.072 C 
BRANCH   9  10
HETATM   10  C2  UNL     1      55.324  -6.125  13.220  1.00  0.00     0.116 C 
HETATM   11  C1  UNL     1      54.346  -5.712  12.120  1.00  0.00     0.039 C 
BRANCH  10  12
HETATM   12  O1  UNL     1      54.593  -6.314  14.370  1.00  0.00    -0.396 OA
ATOM     13  H1  UNL     1      54.605  -7.244  14.564  1.00  0.00     0.210 HD
ENDBRANCH  10  12
ENDBRANCH   9  10
ENDBRANCH   8   9
BRANCH   8  14
HETATM   14  N1  UNL     1      56.019  -9.199  14.277  1.00  0.00    -0.060 N 
ATOM     15  H12 UNL     1      55.086  -9.243  13.868  1.00  0.00     0.278 HD
ATOM     16  H11 UNL     1      56.351 -10.119  13.989  1.00  0.00     0.278 HD
BRANCH  14  17
HETATM   17  C5  UNL     1      55.972  -9.068  15.712  1.00  0.00     0.187 A 
HETATM   18  C6  UNL     1      54.893  -9.646  16.545  1.00  0.00     0.035 A 
HETATM   19  C7  UNL     1      56.247 -10.265  16.582  1.00  0.00     0.035 A 
ENDBRANCH  14  17
ENDBRANCH   8  14
ENDBRANCH   1   8
BRANCH   5  20
HETATM   20  C10 UNL     1      61.117  -8.523  11.164  1.00  0.00     0.088 C 
HETATM   21  C11 UNL     1      61.783  -7.199  11.440  1.00  0.00     0.021 C 
BRANCH  20  22
HETATM   22  C12 UNL     1      62.154  -9.620  11.300  1.00  0.00     0.133 C 
BRANCH  22  23
HETATM   23  O3  UNL     1      61.744 -10.771  10.639  1.00  0.00    -0.394 OA
ATOM     24  H3  UNL     1      61.523 -11.456  11.259  1.00  0.00     0.210 HD
ENDBRANCH  22  23
BRANCH  22  25
HETATM   25  C13 UNL     1      63.540  -9.208  10.921  1.00  0.00     0.007 C 
HETATM   26  C14 UNL     1      64.550 -10.137  11.579  1.00  0.00     0.012 C 
HETATM   27  C15 UNL     1      63.644  -9.416   9.404  1.00  0.00     0.012 C 
ENDBRANCH  22  25
ENDBRANCH  20  22
ENDBRANCH   5  20
TORSDOF 10
ENDMDL
