MODEL 1
REMARK VINA RESULT: -6.859585049      0.000      0.000
REMARK  4 active torsions:
REMARK  status: ('A' for Active; 'I' for Inactive)
REMARK    1  A    between atoms: C4_6  and  N2_7 
REMARK    2  A    between atoms: C5_12  and  C6_13 
REMARK    3  A    between atoms: C9_18  and  N5_19 
REMARK    4  A    between atoms: N5_19  and  C10_21 
ROOT
HETATM    1  C6  UNL     1      12.393  44.301  17.193  1.00  0.00     0.078 A 
HETATM    2  C7  UNL     1      13.487  44.661  17.948  1.00  0.00     0.050 A 
HETATM    3  C8  UNL     1      13.327  45.314  19.185  1.00  0.00     0.108 A 
HETATM    4  N4  UNL     1      12.114  45.608  19.668  1.00  0.00    -0.202 N 
ATOM      5  H4  UNL     1      11.998  46.081  20.564  1.00  0.00     0.183 HD
HETATM    6  C9  UNL     1      11.060  45.254  18.923  1.00  0.00     0.683 A 
HETATM    7  N7  UNL     1      11.201  44.630  17.743  1.00  0.00    -0.189 N 
ATOM      8  H7  UNL     1      10.355  44.389  17.227  1.00  0.00     0.184 HD
ENDROOT
BRANCH   1   9
HETATM    9  C5  UNL     1      12.503  43.618  15.899  1.00  0.00     0.083 A 
HETATM   10  C2  UNL     1      12.190  44.226  14.706  1.00  0.00    -0.016 A 
HETATM   11  C1  UNL     1      11.712  45.630  14.647  1.00  0.00     0.052 C 
HETATM   12  C3  UNL     1      12.321  43.509  13.516  1.00  0.00     0.115 A 
HETATM   13  N1  UNL     1      12.747  42.244  13.519  1.00  0.00    -0.202 N 
HETATM   14  C4  UNL     1      13.047  41.667  14.676  1.00  0.00     0.676 A 
ATOM     15  H1  UNL     1      12.839  41.728  12.644  1.00  0.00     0.183 HD
HETATM   16  N3  UNL     1      12.926  42.343  15.835  1.00  0.00    -0.189 N 
ATOM     17  H3  UNL     1      13.167  41.865  16.704  1.00  0.00     0.184 HD
BRANCH  14  18
HETATM   18  N2  UNL     1      13.460  40.439  14.692  1.00  0.00    -0.234 N 
ATOM     19  H22 UNL     1      14.340  40.198  14.235  1.00  0.00     0.174 HD
ATOM     20  H21 UNL     1      12.903  39.725  15.161  1.00  0.00     0.174 HD
ENDBRANCH  14  18
ENDBRANCH   1   9
BRANCH   6  21
HETATM   21  N5  UNL     1       9.856  45.498  19.313  1.00  0.00    -0.190 N 
ATOM     22  H5  UNL     1       9.087  45.021  18.842  1.00  0.00     0.184 HD
BRANCH  21  23
HETATM   23  C10 UNL     1       9.548  46.401  20.365  1.00  0.00     0.064 A 
HETATM   24  C11 UNL     1      10.357  47.455  20.732  1.00  0.00     0.033 A 
HETATM   25  C12 UNL     1       9.964  48.286  21.782  1.00  0.00     0.019 A 
HETATM   26  C13 UNL     1       8.787  48.091  22.474  1.00  0.00     0.088 A 
HETATM   27  N6  UNL     1       8.024  47.051  22.087  1.00  0.00    -0.373 N 
HETATM   28  C14 UNL     1       8.375  46.223  21.071  1.00  0.00     0.117 A 
ATOM     29  H6  UNL     1       7.147  46.880  22.577  1.00  0.00     0.164 HD
ENDBRANCH  21  23
ENDBRANCH   6  21
TORSDOF 4
ENDMDL
MODEL 2
REMARK VINA RESULT: -6.695113604      4.254      6.034
REMARK  4 active torsions:
REMARK  status: ('A' for Active; 'I' for Inactive)
REMARK    1  A    between atoms: C4_6  and  N2_7 
REMARK    2  A    between atoms: C5_12  and  C6_13 
REMARK    3  A    between atoms: C9_18  and  N5_19 
REMARK    4  A    between atoms: N5_19  and  C10_21 
ROOT
HETATM    1  C6  UNL     1      14.748  47.675  16.659  1.00  0.00     0.078 A 
HETATM    2  C7  UNL     1      14.879  47.015  15.459  1.00  0.00     0.050 A 
HETATM    3  C8  UNL     1      14.432  45.689  15.312  1.00  0.00     0.108 A 
HETATM    4  N4  UNL     1      13.866  45.026  16.328  1.00  0.00    -0.202 N 
ATOM      5  H4  UNL     1      13.541  44.065  16.222  1.00  0.00     0.183 HD
HETATM    6  C9  UNL     1      13.746  45.679  17.489  1.00  0.00     0.683 A 
HETATM    7  N7  UNL     1      14.169  46.944  17.640  1.00  0.00    -0.189 N 
ATOM      8  H7  UNL     1      14.046  47.382  18.553  1.00  0.00     0.184 HD
ENDROOT
BRANCH   1   9
HETATM    9  C5  UNL     1      15.197  49.058  16.867  1.00  0.00     0.083 A 
HETATM   10  C2  UNL     1      14.636  50.129  16.213  1.00  0.00    -0.016 A 
HETATM   11  C1  UNL     1      13.528  49.957  15.240  1.00  0.00     0.052 C 
HETATM   12  C3  UNL     1      15.118  51.414  16.464  1.00  0.00     0.115 A 
HETATM   13  N1  UNL     1      16.114  51.618  17.330  1.00  0.00    -0.202 N 
HETATM   14  C4  UNL     1      16.647  50.577  17.958  1.00  0.00     0.676 A 
ATOM     15  H1  UNL     1      16.459  52.561  17.507  1.00  0.00     0.183 HD
HETATM   16  N3  UNL     1      16.195  49.329  17.727  1.00  0.00    -0.189 N 
ATOM     17  H3  UNL     1      16.630  48.553  18.228  1.00  0.00     0.184 HD
BRANCH  14  18
HETATM   18  N2  UNL     1      17.613  50.761  18.799  1.00  0.00    -0.234 N 
ATOM     19  H22 UNL     1      18.370  51.405  18.564  1.00  0.00     0.174 HD
ATOM     20  H21 UNL     1      17.610  50.264  19.690  1.00  0.00     0.174 HD
ENDBRANCH  14  18
ENDBRANCH   1   9
BRANCH   6  21
HETATM   21  N5  UNL     1      13.213  45.116  18.519  1.00  0.00    -0.190 N 
ATOM     22  H5  UNL     1      13.703  44.335  18.953  1.00  0.00     0.184 HD
BRANCH  21  23
HETATM   23  C10 UNL     1      11.975  45.532  19.079  1.00  0.00     0.064 A 
HETATM   24  C11 UNL     1      10.745  45.123  18.607  1.00  0.00     0.033 A 
HETATM   25  C12 UNL     1       9.586  45.589  19.227  1.00  0.00     0.019 A 
HETATM   26  C13 UNL     1       9.622  46.452  20.303  1.00  0.00     0.088 A 
HETATM   27  N6  UNL     1      10.840  46.828  20.734  1.00  0.00    -0.373 N 
HETATM   28  C14 UNL     1      11.989  46.395  20.155  1.00  0.00     0.117 A 
ATOM     29  H6  UNL     1      10.903  47.464  21.528  1.00  0.00     0.164 HD
ENDBRANCH  21  23
ENDBRANCH   6  21
TORSDOF 4
ENDMDL
MODEL 3
REMARK VINA RESULT: -6.688876093      2.839      5.162
REMARK  4 active torsions:
REMARK  status: ('A' for Active; 'I' for Inactive)
REMARK    1  A    between atoms: C4_6  and  N2_7 
REMARK    2  A    between atoms: C5_12  and  C6_13 
REMARK    3  A    between atoms: C9_18  and  N5_19 
REMARK    4  A    between atoms: N5_19  and  C10_21 
ROOT
HETATM    1  C6  UNL     1      12.658  44.343  17.200  1.00  0.00     0.078 A 
HETATM    2  C7  UNL     1      11.819  44.416  18.289  1.00  0.00     0.050 A 
HETATM    3  C8  UNL     1      12.137  45.231  19.392  1.00  0.00     0.108 A 
HETATM    4  N4  UNL     1      13.260  45.960  19.421  1.00  0.00    -0.202 N 
ATOM      5  H4  UNL     1      13.491  46.551  20.219  1.00  0.00     0.183 HD
HETATM    6  C9  UNL     1      14.066  45.878  18.356  1.00  0.00     0.683 A 
HETATM    7  N7  UNL     1      13.772  45.104  17.299  1.00  0.00    -0.189 N 
ATOM      8  H7  UNL     1      14.432  45.090  16.521  1.00  0.00     0.184 HD
ENDROOT
BRANCH   1   9
HETATM    9  C5  UNL     1      12.374  43.510  16.025  1.00  0.00     0.083 A 
HETATM   10  C2  UNL     1      11.380  43.808  15.123  1.00  0.00    -0.016 A 
HETATM   11  C1  UNL     1      10.516  45.005  15.280  1.00  0.00     0.052 C 
HETATM   12  C3  UNL     1      11.172  42.967  14.030  1.00  0.00     0.115 A 
HETATM   13  N1  UNL     1      11.923  41.878  13.846  1.00  0.00    -0.202 N 
HETATM   14  C4  UNL     1      12.881  41.601  14.723  1.00  0.00     0.676 A 
ATOM     15  H1  UNL     1      11.763  41.269  13.045  1.00  0.00     0.183 HD
HETATM   16  N3  UNL     1      13.096  42.401  15.785  1.00  0.00    -0.189 N 
ATOM     17  H3  UNL     1      13.841  42.155  16.437  1.00  0.00     0.184 HD
BRANCH  14  18
HETATM   18  N2  UNL     1      13.616  40.548  14.557  1.00  0.00    -0.234 N 
ATOM     19  H22 UNL     1      13.945  40.305  13.622  1.00  0.00     0.174 HD
ATOM     20  H21 UNL     1      13.861  39.971  15.362  1.00  0.00     0.174 HD
ENDBRANCH  14  18
ENDBRANCH   1   9
BRANCH   6  21
HETATM   21  N5  UNL     1      15.167  46.546  18.301  1.00  0.00    -0.190 N 
ATOM     22  H5  UNL     1      15.166  47.445  17.819  1.00  0.00     0.184 HD
BRANCH  21  23
HETATM   23  C10 UNL     1      16.383  46.091  18.878  1.00  0.00     0.064 A 
HETATM   24  C11 UNL     1      16.445  45.278  19.990  1.00  0.00     0.033 A 
HETATM   25  C12 UNL     1      17.691  44.885  20.481  1.00  0.00     0.019 A 
HETATM   26  C13 UNL     1      18.873  45.284  19.892  1.00  0.00     0.088 A 
HETATM   27  N6  UNL     1      18.770  46.077  18.810  1.00  0.00    -0.373 N 
HETATM   28  C14 UNL     1      17.576  46.479  18.305  1.00  0.00     0.117 A 
ATOM     29  H6  UNL     1      19.625  46.389  18.350  1.00  0.00     0.164 HD
ENDBRANCH  21  23
ENDBRANCH   6  21
TORSDOF 4
ENDMDL
MODEL 4
REMARK VINA RESULT: -6.672355974      4.224      5.986
REMARK  4 active torsions:
REMARK  status: ('A' for Active; 'I' for Inactive)
REMARK    1  A    between atoms: C4_6  and  N2_7 
REMARK    2  A    between atoms: C5_12  and  C6_13 
REMARK    3  A    between atoms: C9_18  and  N5_19 
REMARK    4  A    between atoms: N5_19  and  C10_21 
ROOT
HETATM    1  C6  UNL     1      14.772  47.659  16.674  1.00  0.00     0.078 A 
HETATM    2  C7  UNL     1      14.912  46.991  15.479  1.00  0.00     0.050 A 
HETATM    3  C8  UNL     1      14.466  45.663  15.337  1.00  0.00     0.108 A 
HETATM    4  N4  UNL     1      13.893  45.007  16.353  1.00  0.00    -0.202 N 
ATOM      5  H4  UNL     1      13.569  44.045  16.251  1.00  0.00     0.183 HD
HETATM    6  C9  UNL     1      13.763  45.668  17.509  1.00  0.00     0.683 A 
HETATM    7  N7  UNL     1      14.185  46.934  17.655  1.00  0.00    -0.189 N 
ATOM      8  H7  UNL     1      14.055  47.378  18.564  1.00  0.00     0.184 HD
ENDROOT
BRANCH   1   9
HETATM    9  C5  UNL     1      15.218  49.043  16.875  1.00  0.00     0.083 A 
HETATM   10  C2  UNL     1      14.656  50.111  16.217  1.00  0.00    -0.016 A 
HETATM   11  C1  UNL     1      13.549  49.933  15.244  1.00  0.00     0.052 C 
HETATM   12  C3  UNL     1      15.136  51.397  16.463  1.00  0.00     0.115 A 
HETATM   13  N1  UNL     1      16.131  51.607  17.328  1.00  0.00    -0.202 N 
HETATM   14  C4  UNL     1      16.666  50.569  17.960  1.00  0.00     0.676 A 
ATOM     15  H1  UNL     1      16.476  52.551  17.501  1.00  0.00     0.183 HD
HETATM   16  N3  UNL     1      16.216  49.319  17.735  1.00  0.00    -0.189 N 
ATOM     17  H3  UNL     1      16.652  48.546  18.239  1.00  0.00     0.184 HD
BRANCH  14  18
HETATM   18  N2  UNL     1      17.632  50.758  18.801  1.00  0.00    -0.234 N 
ATOM     19  H22 UNL     1      17.425  51.121  19.732  1.00  0.00     0.174 HD
ATOM     20  H21 UNL     1      18.590  50.543  18.526  1.00  0.00     0.174 HD
ENDBRANCH  14  18
ENDBRANCH   1   9
BRANCH   6  21
HETATM   21  N5  UNL     1      13.223  45.112  18.539  1.00  0.00    -0.190 N 
ATOM     22  H5  UNL     1      13.695  44.314  18.963  1.00  0.00     0.184 HD
BRANCH  21  23
HETATM   23  C10 UNL     1      12.001  45.557  19.111  1.00  0.00     0.064 A 
HETATM   24  C11 UNL     1      11.926  46.415  20.187  1.00  0.00     0.033 A 
HETATM   25  C12 UNL     1      10.675  46.792  20.676  1.00  0.00     0.019 A 
HETATM   26  C13 UNL     1       9.499  46.335  20.119  1.00  0.00     0.088 A 
HETATM   27  N6  UNL     1       9.613  45.499  19.071  1.00  0.00    -0.373 N 
HETATM   28  C14 UNL     1      10.813  45.110  18.570  1.00  0.00     0.117 A 
ATOM     29  H6  UNL     1       8.763  45.143  18.635  1.00  0.00     0.164 HD
ENDBRANCH  21  23
ENDBRANCH   6  21
TORSDOF 4
ENDMDL
MODEL 5
REMARK VINA RESULT: -6.653941438      1.477      2.064
REMARK  4 active torsions:
REMARK  status: ('A' for Active; 'I' for Inactive)
REMARK    1  A    between atoms: C4_6  and  N2_7 
REMARK    2  A    between atoms: C5_12  and  C6_13 
REMARK    3  A    between atoms: C9_18  and  N5_19 
REMARK    4  A    between atoms: N5_19  and  C10_21 
ROOT
HETATM    1  C6  UNL     1      10.974  44.829  16.683  1.00  0.00     0.078 A 
HETATM    2  C7  UNL     1       9.853  45.270  16.018  1.00  0.00     0.050 A 
HETATM    3  C8  UNL     1       8.729  45.736  16.726  1.00  0.00     0.108 A 
HETATM    4  N4  UNL     1       8.711  45.766  18.064  1.00  0.00    -0.202 N 
ATOM      5  H4  UNL     1       7.898  46.104  18.578  1.00  0.00     0.183 HD
HETATM    6  C9  UNL     1       9.808  45.335  18.698  1.00  0.00     0.683 A 
HETATM    7  N7  UNL     1      10.884  44.889  18.032  1.00  0.00    -0.189 N 
ATOM      8  H7  UNL     1      11.686  44.574  18.579  1.00  0.00     0.184 HD
ENDROOT
BRANCH   1   9
HETATM    9  C5  UNL     1      12.172  44.335  15.994  1.00  0.00     0.083 A 
HETATM   10  C2  UNL     1      13.256  45.134  15.716  1.00  0.00    -0.016 A 
HETATM   11  C1  UNL     1      13.286  46.568  16.098  1.00  0.00     0.052 C 
HETATM   12  C3  UNL     1      14.358  44.589  15.058  1.00  0.00     0.115 A 
HETATM   13  N1  UNL     1      14.377  43.305  14.694  1.00  0.00    -0.202 N 
HETATM   14  C4  UNL     1      13.326  42.541  14.968  1.00  0.00     0.676 A 
ATOM     15  H1  UNL     1      15.187  42.916  14.212  1.00  0.00     0.183 HD
HETATM   16  N3  UNL     1      12.252  43.050  15.603  1.00  0.00    -0.189 N 
ATOM     17  H3  UNL     1      11.463  42.432  15.796  1.00  0.00     0.184 HD
BRANCH  14  18
HETATM   18  N2  UNL     1      13.332  41.294  14.620  1.00  0.00    -0.234 N 
ATOM     19  H22 UNL     1      14.221  40.818  14.465  1.00  0.00     0.174 HD
ATOM     20  H21 UNL     1      12.448  40.798  14.506  1.00  0.00     0.174 HD
ENDBRANCH  14  18
ENDBRANCH   1   9
BRANCH   6  21
HETATM   21  N5  UNL     1       9.875  45.330  19.986  1.00  0.00    -0.190 N 
ATOM     22  H5  UNL     1      10.179  44.475  20.453  1.00  0.00     0.184 HD
BRANCH  21  23
HETATM   23  C10 UNL     1       9.548  46.457  20.786  1.00  0.00     0.064 A 
HETATM   24  C11 UNL     1      10.360  47.563  20.920  1.00  0.00     0.033 A 
HETATM   25  C12 UNL     1       9.947  48.620  21.731  1.00  0.00     0.019 A 
HETATM   26  C13 UNL     1       8.747  48.601  22.412  1.00  0.00     0.088 A 
HETATM   27  N6  UNL     1       7.983  47.504  22.256  1.00  0.00    -0.373 N 
HETATM   28  C14 UNL     1       8.353  46.457  21.475  1.00  0.00     0.117 A 
ATOM     29  H6  UNL     1       7.089  47.457  22.745  1.00  0.00     0.164 HD
ENDBRANCH  21  23
ENDBRANCH   6  21
TORSDOF 4
ENDMDL
