MODEL 1
REMARK VINA RESULT: -4.920017760      0.000      0.000
REMARK  3 active torsions:
REMARK  status: ('A' for Active; 'I' for Inactive)
REMARK    1  A    between atoms: O1_1  and  C1_3 
REMARK    2  A    between atoms: C1_3  and  C2_4 
REMARK    3  A    between atoms: C2_4  and  N1_5 
ROOT
HETATM    1  N1  UNL     1      15.806  47.733  16.788  1.00  0.00    -0.292 N 
HETATM    2  C3  UNL     1      15.152  46.465  17.012  1.00  0.00     0.149 C 
HETATM    3  C4  UNL     1      15.076  46.227  18.523  1.00  0.00     0.022 C 
HETATM    4  C5  UNL     1      14.087  45.115  18.754  1.00  0.00     0.002 C 
HETATM    5  C6  UNL     1      12.724  45.742  18.915  1.00  0.00     0.000 C 
HETATM    6  C7  UNL     1      11.612  44.737  18.798  1.00  0.00     0.000 C 
HETATM    7  C8  UNL     1      11.534  44.133  17.426  1.00  0.00     0.002 C 
HETATM    8  C9  UNL     1      10.381  44.779  16.662  1.00  0.00     0.027 C 
HETATM    9  C10 UNL     1      10.998  45.641  15.596  1.00  0.00     0.232 C 
HETATM   10  N2  UNL     1      10.030  46.523  14.969  1.00  0.00    -0.074 N 
ATOM     11  H21 UNL     1       9.759  47.314  15.553  1.00  0.00     0.277 HD
ATOM     12  H22 UNL     1       9.101  46.112  14.879  1.00  0.00     0.277 HD
HETATM   13  C11 UNL     1      10.624  46.917  13.686  1.00  0.00     0.259 C 
HETATM   14  C12 UNL     1      11.725  47.884  13.979  1.00  0.00     0.259 C 
HETATM   15  N3  UNL     1      13.052  47.346  13.783  1.00  0.00    -0.073 N 
ATOM     16  H31 UNL     1      13.007  46.364  13.511  1.00  0.00     0.277 HD
ATOM     17  H32 UNL     1      13.539  47.253  14.674  1.00  0.00     0.277 HD
HETATM   18  C13 UNL     1      13.843  48.092  12.850  1.00  0.00     0.234 C 
HETATM   19  C14 UNL     1      15.084  48.704  13.428  1.00  0.00     0.056 C 
HETATM   20  C15 UNL     1      15.734  47.817  14.492  1.00  0.00     0.202 C 
HETATM   21  O2  UNL     1      15.440  48.382  15.709  1.00  0.00    -0.283 OA
ENDROOT
BRANCH   1  22
HETATM   22  C2  UNL     1      17.187  47.647  17.098  1.00  0.00     0.175 C 
BRANCH  22  23
HETATM   23  C1  UNL     1      17.788  48.939  17.567  1.00  0.00     0.185 C 
BRANCH  23  24
HETATM   24  O1  UNL     1      17.230  49.306  18.784  1.00  0.00    -0.399 OA
ATOM     25  H1  UNL     1      17.824  49.086  19.491  1.00  0.00     0.209 HD
ENDBRANCH  23  24
ENDBRANCH  22  23
ENDBRANCH   1  22
TORSDOF 3
ENDMDL
MODEL 2
REMARK VINA RESULT: -4.650764371      1.537      2.292
REMARK  3 active torsions:
REMARK  status: ('A' for Active; 'I' for Inactive)
REMARK    1  A    between atoms: O1_1  and  C1_3 
REMARK    2  A    between atoms: C1_3  and  C2_4 
REMARK    3  A    between atoms: C2_4  and  N1_5 
ROOT
HETATM    1  N1  UNL     1      14.969  46.047  18.135  1.00  0.00    -0.292 N 
HETATM    2  C3  UNL     1      13.885  45.219  17.661  1.00  0.00     0.149 C 
HETATM    3  C4  UNL     1      13.016  44.835  18.862  1.00  0.00     0.022 C 
HETATM    4  C5  UNL     1      11.715  44.299  18.324  1.00  0.00     0.002 C 
HETATM    5  C6  UNL     1      10.768  45.465  18.178  1.00  0.00     0.000 C 
HETATM    6  C7  UNL     1       9.573  45.129  17.329  1.00  0.00     0.000 C 
HETATM    7  C8  UNL     1       9.951  44.833  15.907  1.00  0.00     0.002 C 
HETATM    8  C9  UNL     1       9.621  46.046  15.041  1.00  0.00     0.027 C 
HETATM    9  C10 UNL     1      10.933  46.657  14.634  1.00  0.00     0.232 C 
HETATM   10  N2  UNL     1      10.770  47.969  14.034  1.00  0.00    -0.074 N 
ATOM     11  H21 UNL     1      10.555  48.703  14.709  1.00  0.00     0.277 HD
ATOM     12  H22 UNL     1       9.921  48.061  13.478  1.00  0.00     0.277 HD
HETATM   13  C11 UNL     1      12.000  48.213  13.273  1.00  0.00     0.259 C 
HETATM   14  C12 UNL     1      13.089  48.496  14.257  1.00  0.00     0.259 C 
HETATM   15  N3  UNL     1      14.056  47.429  14.391  1.00  0.00    -0.073 N 
ATOM     16  H31 UNL     1      13.800  46.634  13.806  1.00  0.00     0.277 HD
ATOM     17  H32 UNL     1      13.988  46.994  15.310  1.00  0.00     0.277 HD
HETATM   18  C13 UNL     1      15.403  47.839  14.123  1.00  0.00     0.234 C 
HETATM   19  C14 UNL     1      16.341  47.706  15.285  1.00  0.00     0.056 C 
HETATM   20  C15 UNL     1      16.038  46.477  16.146  1.00  0.00     0.202 C 
HETATM   21  O2  UNL     1      15.422  46.937  17.284  1.00  0.00    -0.283 OA
ENDROOT
BRANCH   1  22
HETATM   22  C2  UNL     1      15.898  45.278  18.880  1.00  0.00     0.175 C 
BRANCH  22  23
HETATM   23  C1  UNL     1      16.667  46.068  19.896  1.00  0.00     0.185 C 
BRANCH  23  24
HETATM   24  O1  UNL     1      17.216  47.197  19.301  1.00  0.00    -0.399 OA
ATOM     25  H1  UNL     1      17.568  47.775  19.968  1.00  0.00     0.209 HD
ENDBRANCH  23  24
ENDBRANCH  22  23
ENDBRANCH   1  22
TORSDOF 3
ENDMDL
MODEL 3
REMARK VINA RESULT: -4.534323952      3.464      4.397
REMARK  3 active torsions:
REMARK  status: ('A' for Active; 'I' for Inactive)
REMARK    1  A    between atoms: O1_1  and  C1_3 
REMARK    2  A    between atoms: C1_3  and  C2_4 
REMARK    3  A    between atoms: C2_4  and  N1_5 
ROOT
HETATM    1  N1  UNL     1      16.267  50.965  17.124  1.00  0.00    -0.292 N 
HETATM    2  C3  UNL     1      15.915  49.972  16.136  1.00  0.00     0.149 C 
HETATM    3  C4  UNL     1      16.025  48.590  16.787  1.00  0.00     0.022 C 
HETATM    4  C5  UNL     1      15.314  47.612  15.889  1.00  0.00     0.002 C 
HETATM    5  C6  UNL     1      13.871  47.558  16.325  1.00  0.00     0.000 C 
HETATM    6  C7  UNL     1      12.986  46.899  15.303  1.00  0.00     0.000 C 
HETATM    7  C8  UNL     1      12.914  47.682  14.025  1.00  0.00     0.002 C 
HETATM    8  C9  UNL     1      11.588  48.438  13.979  1.00  0.00     0.027 C 
HETATM    9  C10 UNL     1      11.913  49.894  14.155  1.00  0.00     0.232 C 
HETATM   10  N2  UNL     1      10.731  50.700  14.401  1.00  0.00    -0.074 N 
ATOM     11  H21 UNL     1      10.354  50.596  15.342  1.00  0.00     0.277 HD
ATOM     12  H22 UNL     1       9.903  50.374  13.901  1.00  0.00     0.277 HD
HETATM   13  C11 UNL     1      11.112  52.077  14.069  1.00  0.00     0.259 C 
HETATM   14  C12 UNL     1      12.009  52.570  15.159  1.00  0.00     0.259 C 
HETATM   15  N3  UNL     1      13.396  52.693  14.771  1.00  0.00    -0.073 N 
ATOM     16  H31 UNL     1      13.532  52.377  13.811  1.00  0.00     0.277 HD
ATOM     17  H32 UNL     1      13.969  52.006  15.259  1.00  0.00     0.277 HD
HETATM   18  C13 UNL     1      13.926  54.012  14.949  1.00  0.00     0.234 C 
HETATM   19  C14 UNL     1      15.059  54.106  15.927  1.00  0.00     0.056 C 
HETATM   20  C15 UNL     1      15.973  52.879  15.885  1.00  0.00     0.202 C 
HETATM   21  O2  UNL     1      15.678  52.130  16.998  1.00  0.00    -0.283 OA
ENDROOT
BRANCH   1  22
HETATM   22  C2  UNL     1      17.657  50.928  17.398  1.00  0.00     0.175 C 
BRANCH  22  23
HETATM   23  C1  UNL     1      18.014  51.336  18.796  1.00  0.00     0.185 C 
BRANCH  23  24
HETATM   24  O1  UNL     1      17.239  50.630  19.707  1.00  0.00    -0.399 OA
ATOM     25  H1  UNL     1      17.757  49.941  20.106  1.00  0.00     0.209 HD
ENDBRANCH  23  24
ENDBRANCH  22  23
ENDBRANCH   1  22
TORSDOF 3
ENDMDL
MODEL 4
REMARK VINA RESULT: -4.439403494      2.706      5.806
REMARK  3 active torsions:
REMARK  status: ('A' for Active; 'I' for Inactive)
REMARK    1  A    between atoms: O1_1  and  C1_3 
REMARK    2  A    between atoms: C1_3  and  C2_4 
REMARK    3  A    between atoms: C2_4  and  N1_5 
ROOT
HETATM    1  N1  UNL     1      10.246  45.839  14.016  1.00  0.00    -0.292 N 
HETATM    2  C3  UNL     1      10.402  46.097  15.429  1.00  0.00     0.149 C 
HETATM    3  C4  UNL     1       9.739  44.951  16.200  1.00  0.00     0.022 C 
HETATM    4  C5  UNL     1      10.219  45.032  17.626  1.00  0.00     0.002 C 
HETATM    5  C6  UNL     1      11.475  44.201  17.731  1.00  0.00     0.000 C 
HETATM    6  C7  UNL     1      12.242  44.479  18.994  1.00  0.00     0.000 C 
HETATM    7  C8  UNL     1      12.771  45.883  19.040  1.00  0.00     0.002 C 
HETATM    8  C9  UNL     1      14.262  45.864  18.711  1.00  0.00     0.027 C 
HETATM    9  C10 UNL     1      14.413  46.488  17.352  1.00  0.00     0.232 C 
HETATM   10  N2  UNL     1      15.741  46.292  16.797  1.00  0.00    -0.074 N 
ATOM     11  H21 UNL     1      15.907  45.344  16.461  1.00  0.00     0.277 HD
ATOM     12  H22 UNL     1      16.482  46.305  17.498  1.00  0.00     0.277 HD
HETATM   13  C11 UNL     1      15.894  47.319  15.761  1.00  0.00     0.259 C 
HETATM   14  C12 UNL     1      15.049  46.913  14.597  1.00  0.00     0.259 C 
HETATM   15  N3  UNL     1      13.861  47.717  14.420  1.00  0.00    -0.073 N 
ATOM     16  H31 UNL     1      13.783  48.413  15.161  1.00  0.00     0.277 HD
ATOM     17  H32 UNL     1      13.023  47.169  14.612  1.00  0.00     0.277 HD
HETATM   18  C13 UNL     1      13.775  48.338  13.132  1.00  0.00     0.234 C 
HETATM   19  C14 UNL     1      12.597  47.914  12.308  1.00  0.00     0.056 C 
HETATM   20  C15 UNL     1      11.348  47.663  13.156  1.00  0.00     0.202 C 
HETATM   21  O2  UNL     1      11.198  46.300  13.242  1.00  0.00    -0.283 OA
ENDROOT
BRANCH   1  22
HETATM   22  C2  UNL     1       8.896  46.018  13.620  1.00  0.00     0.175 C 
BRANCH  22  23
HETATM   23  C1  UNL     1       8.384  44.953  12.698  1.00  0.00     0.185 C 
BRANCH  23  24
HETATM   24  O1  UNL     1       7.234  44.382  13.227  1.00  0.00    -0.399 OA
ATOM     25  H1  UNL     1       6.468  44.739  12.793  1.00  0.00     0.209 HD
ENDBRANCH  23  24
ENDBRANCH  22  23
ENDBRANCH   1  22
TORSDOF 3
ENDMDL
MODEL 5
REMARK VINA RESULT: -4.410599807      3.298      7.201
REMARK  3 active torsions:
REMARK  status: ('A' for Active; 'I' for Inactive)
REMARK    1  A    between atoms: O1_1  and  C1_3 
REMARK    2  A    between atoms: C1_3  and  C2_4 
REMARK    3  A    between atoms: C2_4  and  N1_5 
ROOT
HETATM    1  N1  UNL     1       8.963  47.419  14.356  1.00  0.00    -0.292 N 
HETATM    2  C3  UNL     1      10.078  48.128  13.773  1.00  0.00     0.149 C 
HETATM    3  C4  UNL     1       9.690  49.604  13.643  1.00  0.00     0.022 C 
HETATM    4  C5  UNL     1      10.955  50.381  13.390  1.00  0.00     0.002 C 
HETATM    5  C6  UNL     1      11.518  50.783  14.732  1.00  0.00     0.000 C 
HETATM    6  C7  UNL     1      12.945  51.250  14.638  1.00  0.00     0.000 C 
HETATM    7  C8  UNL     1      13.874  50.153  14.207  1.00  0.00     0.002 C 
HETATM    8  C9  UNL     1      14.630  49.633  15.427  1.00  0.00     0.027 C 
HETATM    9  C10 UNL     1      14.098  48.256  15.712  1.00  0.00     0.232 C 
HETATM   10  N2  UNL     1      14.533  47.750  17.001  1.00  0.00    -0.074 N 
ATOM     11  H21 UNL     1      14.051  48.178  17.791  1.00  0.00     0.277 HD
ATOM     12  H22 UNL     1      15.475  48.044  17.259  1.00  0.00     0.277 HD
HETATM   13  C11 UNL     1      14.370  46.294  16.932  1.00  0.00     0.259 C 
HETATM   14  C12 UNL     1      12.906  46.002  17.004  1.00  0.00     0.259 C 
HETATM   15  N3  UNL     1      12.330  45.557  15.754  1.00  0.00    -0.073 N 
ATOM     16  H31 UNL     1      13.031  45.559  15.014  1.00  0.00     0.277 HD
ATOM     17  H32 UNL     1      11.690  46.258  15.383  1.00  0.00     0.277 HD
HETATM   18  C13 UNL     1      11.689  44.280  15.841  1.00  0.00     0.234 C 
HETATM   19  C14 UNL     1      10.218  44.295  15.548  1.00  0.00     0.056 C 
HETATM   20  C15 UNL     1       9.849  45.300  14.455  1.00  0.00     0.202 C 
HETATM   21  O2  UNL     1       9.269  46.373  15.087  1.00  0.00    -0.283 OA
ENDROOT
BRANCH   1  22
HETATM   22  C2  UNL     1       7.894  47.316  13.430  1.00  0.00     0.175 C 
BRANCH  22  23
HETATM   23  C1  UNL     1       6.546  47.609  14.018  1.00  0.00     0.185 C 
BRANCH  23  24
HETATM   24  O1  UNL     1       6.684  47.999  15.344  1.00  0.00    -0.399 OA
ATOM     25  H1  UNL     1       7.003  48.893  15.386  1.00  0.00     0.209 HD
ENDBRANCH  23  24
ENDBRANCH  22  23
ENDBRANCH   1  22
TORSDOF 3
ENDMDL
