MODEL 1
REMARK VINA RESULT: -6.068467026      0.000      0.000
REMARK  4 active torsions:
REMARK  status: ('A' for Active; 'I' for Inactive)
REMARK    1  A    between atoms: O1_2  and  C2_3 
REMARK    2  A    between atoms: C6_7  and  N1_8 
REMARK    3  A    between atoms: N1_8  and  C7_10 
REMARK    4  A    between atoms: C10_19  and  N5_20 
ROOT
HETATM    1  C7  UNL     1      15.539  46.332  18.473  1.00  0.00     0.138 A 
HETATM    2  N2  UNL     1      15.149  47.160  17.502  1.00  0.00    -0.337 N 
ATOM      3  H2  UNL     1      14.157  47.301  17.310  1.00  0.00     0.168 HD
HETATM    4  C8  UNL     1      16.084  47.807  16.780  1.00  0.00     0.183 A 
HETATM    5  N3  UNL     1      17.389  47.612  17.044  1.00  0.00    -0.336 N 
ATOM      6  H3  UNL     1      18.083  48.111  16.486  1.00  0.00     0.168 HD
HETATM    7  C9  UNL     1      17.813  46.787  18.012  1.00  0.00     0.153 A 
HETATM    8  N4  UNL     1      19.021  46.423  18.470  1.00  0.00    -0.174 N 
ATOM      9  H4  UNL     1      19.922  46.748  18.120  1.00  0.00     0.186 HD
HETATM   10  C10 UNL     1      18.826  45.549  19.477  1.00  0.00     0.680 A 
HETATM   11  N6  UNL     1      17.509  45.350  19.670  1.00  0.00    -0.180 N 
HETATM   12  C11 UNL     1      16.905  44.495  20.643  1.00  0.00     0.176 C 
HETATM   13  C12 UNL     1      16.867  46.110  18.769  1.00  0.00     0.139 A 
ENDROOT
BRANCH   1  14
HETATM   14  N1  UNL     1      14.670  45.697  19.184  1.00  0.00    -0.340 N 
ATOM     15  H1  UNL     1      14.838  45.561  20.181  1.00  0.00     0.167 HD
BRANCH  14  16
HETATM   16  C6  UNL     1      13.466  45.175  18.586  1.00  0.00     0.042 A 
HETATM   17  C5  UNL     1      13.526  44.346  17.483  1.00  0.00     0.030 A 
HETATM   18  C4  UNL     1      12.332  43.889  16.968  1.00  0.00     0.005 A 
HETATM   19  C3  UNL     1      11.105  44.223  17.504  1.00  0.00     0.037 A 
HETATM   20  C2  UNL     1      11.041  45.053  18.607  1.00  0.00     0.076 A 
HETATM   21  C13 UNL     1      12.237  45.510  19.122  1.00  0.00    -0.002 A 
HETATM   22  C14 UNL     1      12.169  46.403  20.310  1.00  0.00     0.053 C 
BRANCH  20  23
HETATM   23  O1  UNL     1       9.819  45.415  19.181  1.00  0.00    -0.355 OA
HETATM   24  C1  UNL     1       8.728  45.668  18.314  1.00  0.00     0.210 C 
ENDBRANCH  20  23
ENDBRANCH  14  16
ENDBRANCH   1  14
BRANCH  10  25
HETATM   25  N5  UNL     1      19.782  45.004  20.139  1.00  0.00    -0.234 N 
ATOM     26  H52 UNL     1      20.642  45.459  20.444  1.00  0.00     0.174 HD
ATOM     27  H51 UNL     1      19.777  44.028  20.434  1.00  0.00     0.174 HD
ENDBRANCH  10  25
TORSDOF 4
ENDMDL
MODEL 2
REMARK VINA RESULT: -5.640711133      4.401      5.644
REMARK  4 active torsions:
REMARK  status: ('A' for Active; 'I' for Inactive)
REMARK    1  A    between atoms: O1_2  and  C2_3 
REMARK    2  A    between atoms: C6_7  and  N1_8 
REMARK    3  A    between atoms: N1_8  and  C7_10 
REMARK    4  A    between atoms: C10_19  and  N5_20 
ROOT
HETATM    1  C7  UNL     1      10.400  45.004  16.726  1.00  0.00     0.138 A 
HETATM    2  N2  UNL     1       9.383  45.750  16.291  1.00  0.00    -0.337 N 
ATOM      3  H2  UNL     1       8.611  45.985  16.914  1.00  0.00     0.168 HD
HETATM    4  C8  UNL     1       9.393  46.189  15.017  1.00  0.00     0.183 A 
HETATM    5  N3  UNL     1      10.419  45.873  14.206  1.00  0.00    -0.336 N 
ATOM      6  H3  UNL     1      10.408  46.215  13.244  1.00  0.00     0.168 HD
HETATM    7  C9  UNL     1      11.455  45.125  14.613  1.00  0.00     0.153 A 
HETATM    8  N4  UNL     1      12.575  44.676  14.024  1.00  0.00    -0.174 N 
ATOM      9  H4  UNL     1      12.859  44.847  13.060  1.00  0.00     0.186 HD
HETATM   10  C10 UNL     1      13.255  43.959  14.940  1.00  0.00     0.680 A 
HETATM   11  N6  UNL     1      12.585  43.944  16.107  1.00  0.00    -0.180 N 
HETATM   12  C11 UNL     1      12.982  43.290  17.315  1.00  0.00     0.176 C 
HETATM   13  C12 UNL     1      11.466  44.662  15.921  1.00  0.00     0.139 A 
ENDROOT
BRANCH   1  14
HETATM   14  N1  UNL     1      10.423  44.567  17.939  1.00  0.00    -0.340 N 
ATOM     15  H1  UNL     1      10.283  43.573  18.119  1.00  0.00     0.167 HD
BRANCH  14  16
HETATM   16  C6  UNL     1      10.645  45.467  19.044  1.00  0.00     0.042 A 
HETATM   17  C5  UNL     1      11.914  45.929  19.335  1.00  0.00     0.030 A 
HETATM   18  C4  UNL     1      12.046  46.786  20.407  1.00  0.00     0.005 A 
HETATM   19  C3  UNL     1      10.977  47.189  21.183  1.00  0.00     0.037 A 
HETATM   20  C2  UNL     1       9.708  46.728  20.895  1.00  0.00     0.076 A 
HETATM   21  C13 UNL     1       9.577  45.871  19.821  1.00  0.00    -0.002 A 
HETATM   22  C14 UNL     1       8.209  45.374  19.510  1.00  0.00     0.053 C 
BRANCH  20  23
HETATM   23  O1  UNL     1       8.599  47.112  21.655  1.00  0.00    -0.355 OA
HETATM   24  C1  UNL     1       8.761  48.180  22.571  1.00  0.00     0.210 C 
ENDBRANCH  20  23
ENDBRANCH  14  16
ENDBRANCH   1  14
BRANCH  10  25
HETATM   25  N5  UNL     1      14.379  43.386  14.701  1.00  0.00    -0.234 N 
ATOM     26  H52 UNL     1      14.696  43.030  13.799  1.00  0.00     0.174 HD
ATOM     27  H51 UNL     1      15.091  43.225  15.413  1.00  0.00     0.174 HD
ENDBRANCH  10  25
TORSDOF 4
ENDMDL
MODEL 3
REMARK VINA RESULT: -5.623049719      4.187      5.650
REMARK  4 active torsions:
REMARK  status: ('A' for Active; 'I' for Inactive)
REMARK    1  A    between atoms: O1_2  and  C2_3 
REMARK    2  A    between atoms: C6_7  and  N1_8 
REMARK    3  A    between atoms: N1_8  and  C7_10 
REMARK    4  A    between atoms: C10_19  and  N5_20 
ROOT
HETATM    1  C7  UNL     1      12.893  42.785  14.380  1.00  0.00     0.138 A 
HETATM    2  N2  UNL     1      12.010  41.788  14.309  1.00  0.00    -0.337 N 
ATOM      3  H2  UNL     1      11.033  41.944  14.558  1.00  0.00     0.168 HD
HETATM    4  C8  UNL     1      12.427  40.573  13.903  1.00  0.00     0.183 A 
HETATM    5  N3  UNL     1      13.718  40.381  13.577  1.00  0.00    -0.336 N 
ATOM      6  H3  UNL     1      14.015  39.454  13.271  1.00  0.00     0.168 HD
HETATM    7  C9  UNL     1      14.629  41.362  13.637  1.00  0.00     0.153 A 
HETATM    8  N4  UNL     1      15.944  41.438  13.375  1.00  0.00    -0.174 N 
ATOM      9  H4  UNL     1      16.538  40.676  13.049  1.00  0.00     0.186 HD
HETATM   10  C10 UNL     1      16.335  42.703  13.622  1.00  0.00     0.680 A 
HETATM   11  N6  UNL     1      15.288  43.440  14.037  1.00  0.00    -0.180 N 
HETATM   12  C11 UNL     1      15.301  44.823  14.395  1.00  0.00     0.176 C 
HETATM   13  C12 UNL     1      14.223  42.623  14.053  1.00  0.00     0.139 A 
ENDROOT
BRANCH   1  14
HETATM   14  N1  UNL     1      12.528  43.961  14.765  1.00  0.00    -0.340 N 
ATOM     15  H1  UNL     1      12.547  44.737  14.102  1.00  0.00     0.167 HD
BRANCH  14  16
HETATM   16  C6  UNL     1      12.095  44.193  16.121  1.00  0.00     0.042 A 
HETATM   17  C5  UNL     1      12.955  43.986  17.182  1.00  0.00     0.030 A 
HETATM   18  C4  UNL     1      12.467  44.229  18.449  1.00  0.00     0.005 A 
HETATM   19  C3  UNL     1      11.178  44.662  18.688  1.00  0.00     0.037 A 
HETATM   20  C2  UNL     1      10.316  44.869  17.628  1.00  0.00     0.076 A 
HETATM   21  C13 UNL     1      10.805  44.627  16.361  1.00  0.00    -0.002 A 
HETATM   22  C14 UNL     1       9.877  44.849  15.219  1.00  0.00     0.053 C 
BRANCH  20  23
HETATM   23  O1  UNL     1       9.004  45.308  17.827  1.00  0.00    -0.355 OA
HETATM   24  C1  UNL     1       8.610  45.647  19.144  1.00  0.00     0.210 C 
ENDBRANCH  20  23
ENDBRANCH  14  16
ENDBRANCH   1  14
BRANCH  10  25
HETATM   25  N5  UNL     1      17.542  43.116  13.470  1.00  0.00    -0.234 N 
ATOM     26  H52 UNL     1      18.122  43.560  14.181  1.00  0.00     0.174 HD
ATOM     27  H51 UNL     1      18.057  43.038  12.594  1.00  0.00     0.174 HD
ENDBRANCH  10  25
TORSDOF 4
ENDMDL
MODEL 4
REMARK VINA RESULT: -5.465801671      0.975      1.845
REMARK  4 active torsions:
REMARK  status: ('A' for Active; 'I' for Inactive)
REMARK    1  A    between atoms: O1_2  and  C2_3 
REMARK    2  A    between atoms: C6_7  and  N1_8 
REMARK    3  A    between atoms: N1_8  and  C7_10 
REMARK    4  A    between atoms: C10_19  and  N5_20 
ROOT
HETATM    1  C7  UNL     1      14.977  46.130  18.378  1.00  0.00     0.138 A 
HETATM    2  N2  UNL     1      14.437  46.914  17.443  1.00  0.00    -0.337 N 
ATOM      3  H2  UNL     1      13.435  46.878  17.254  1.00  0.00     0.168 HD
HETATM    4  C8  UNL     1      15.234  47.752  16.753  1.00  0.00     0.183 A 
HETATM    5  N3  UNL     1      16.554  47.789  17.013  1.00  0.00    -0.336 N 
ATOM      6  H3  UNL     1      17.141  48.431  16.480  1.00  0.00     0.168 HD
HETATM    7  C9  UNL     1      17.126  47.015  17.945  1.00  0.00     0.153 A 
HETATM    8  N4  UNL     1      18.383  46.859  18.391  1.00  0.00    -0.174 N 
ATOM      9  H4  UNL     1      19.207  47.359  18.059  1.00  0.00     0.186 HD
HETATM   10  C10 UNL     1      18.357  45.921  19.359  1.00  0.00     0.680 A 
HETATM   11  N6  UNL     1      17.100  45.475  19.538  1.00  0.00    -0.180 N 
HETATM   12  C11 UNL     1      16.668  44.482  20.471  1.00  0.00     0.176 C 
HETATM   13  C12 UNL     1      16.325  46.143  18.669  1.00  0.00     0.139 A 
ENDROOT
BRANCH   1  14
HETATM   14  N1  UNL     1      14.243  45.315  19.058  1.00  0.00    -0.340 N 
ATOM     15  H1  UNL     1      14.673  44.507  19.508  1.00  0.00     0.167 HD
BRANCH  14  16
HETATM   16  C6  UNL     1      12.823  45.533  19.187  1.00  0.00     0.042 A 
HETATM   17  C5  UNL     1      12.317  46.293  20.224  1.00  0.00     0.030 A 
HETATM   18  C4  UNL     1      10.949  46.455  20.281  1.00  0.00     0.005 A 
HETATM   19  C3  UNL     1      10.087  45.897  19.359  1.00  0.00     0.037 A 
HETATM   20  C2  UNL     1      10.590  45.136  18.322  1.00  0.00     0.076 A 
HETATM   21  C13 UNL     1      11.959  44.974  18.265  1.00  0.00    -0.002 A 
HETATM   22  C14 UNL     1      12.503  44.155  17.148  1.00  0.00     0.053 C 
BRANCH  20  23
HETATM   23  O1  UNL     1       9.752  44.553  17.367  1.00  0.00    -0.355 OA
HETATM   24  C1  UNL     1       9.463  45.295  16.196  1.00  0.00     0.210 C 
ENDBRANCH  20  23
ENDBRANCH  14  16
ENDBRANCH   1  14
BRANCH  10  25
HETATM   25  N5  UNL     1      19.400  45.532  19.999  1.00  0.00    -0.234 N 
ATOM     26  H52 UNL     1      20.370  45.724  19.747  1.00  0.00     0.174 HD
ATOM     27  H51 UNL     1      19.362  44.974  20.851  1.00  0.00     0.174 HD
ENDBRANCH  10  25
TORSDOF 4
ENDMDL
MODEL 5
REMARK VINA RESULT: -5.443184306      3.543      6.197
REMARK  4 active torsions:
REMARK  status: ('A' for Active; 'I' for Inactive)
REMARK    1  A    between atoms: O1_2  and  C2_3 
REMARK    2  A    between atoms: C6_7  and  N1_8 
REMARK    3  A    between atoms: N1_8  and  C7_10 
REMARK    4  A    between atoms: C10_19  and  N5_20 
ROOT
HETATM    1  C7  UNL     1      11.978  44.804  17.880  1.00  0.00     0.138 A 
HETATM    2  N2  UNL     1      13.297  44.644  17.757  1.00  0.00    -0.337 N 
ATOM      3  H2  UNL     1      13.681  44.101  16.984  1.00  0.00     0.168 HD
HETATM    4  C8  UNL     1      14.112  45.211  18.667  1.00  0.00     0.183 A 
HETATM    5  N3  UNL     1      13.591  45.925  19.682  1.00  0.00    -0.336 N 
ATOM      6  H3  UNL     1      14.224  46.346  20.362  1.00  0.00     0.168 HD
HETATM    7  C9  UNL     1      12.271  46.103  19.834  1.00  0.00     0.153 A 
HETATM    8  N4  UNL     1      11.510  46.752  20.730  1.00  0.00    -0.174 N 
ATOM      9  H4  UNL     1      11.845  47.277  21.538  1.00  0.00     0.186 HD
HETATM   10  C10 UNL     1      10.223  46.582  20.368  1.00  0.00     0.680 A 
HETATM   11  N6  UNL     1      10.151  45.834  19.251  1.00  0.00    -0.180 N 
HETATM   12  C11 UNL     1       8.963  45.438  18.561  1.00  0.00     0.176 C 
HETATM   13  C12 UNL     1      11.411  45.529  18.907  1.00  0.00     0.139 A 
ENDROOT
BRANCH   1  14
HETATM   14  N1  UNL     1      11.168  44.275  17.027  1.00  0.00    -0.340 N 
ATOM     15  H1  UNL     1      10.541  43.527  17.323  1.00  0.00     0.167 HD
BRANCH  14  16
HETATM   16  C6  UNL     1      11.139  44.729  15.658  1.00  0.00     0.042 A 
HETATM   17  C5  UNL     1      10.593  45.955  15.332  1.00  0.00     0.030 A 
HETATM   18  C4  UNL     1      10.601  46.318  14.002  1.00  0.00     0.005 A 
HETATM   19  C3  UNL     1      11.125  45.517  13.007  1.00  0.00     0.037 A 
HETATM   20  C2  UNL     1      11.671  44.290  13.330  1.00  0.00     0.076 A 
HETATM   21  C13 UNL     1      11.662  43.928  14.661  1.00  0.00    -0.002 A 
HETATM   22  C14 UNL     1      12.250  42.606  15.010  1.00  0.00     0.053 C 
BRANCH  20  23
HETATM   23  O1  UNL     1      12.211  43.449  12.353  1.00  0.00    -0.355 OA
HETATM   24  C1  UNL     1      11.341  42.945  11.356  1.00  0.00     0.210 C 
ENDBRANCH  20  23
ENDBRANCH  14  16
ENDBRANCH   1  14
BRANCH  10  25
HETATM   25  N5  UNL     1       9.232  47.078  21.017  1.00  0.00    -0.234 N 
ATOM     26  H52 UNL     1       8.852  48.019  20.913  1.00  0.00     0.174 HD
ATOM     27  H51 UNL     1       8.709  46.563  21.725  1.00  0.00     0.174 HD
ENDBRANCH  10  25
TORSDOF 4
ENDMDL
