MODEL 1
REMARK VINA RESULT: -7.442301956      0.000      0.000
REMARK  3 active torsions:
REMARK  status: ('A' for Active; 'I' for Inactive)
REMARK    1  A    between atoms: C4_9  and  N3_10 
REMARK    2  A    between atoms: N3_10  and  C5_12 
REMARK    3  A    between atoms: C5_12  and  C6_13 
ROOT
HETATM    1  C6  UNL     1      11.932  45.718  19.550  1.00  0.00    -0.038 A 
HETATM    2  C7  UNL     1      11.014  45.088  18.732  1.00  0.00     0.009 A 
HETATM    3  C8  UNL     1       9.668  45.327  18.913  1.00  0.00     0.002 A 
HETATM    4  C9  UNL     1       9.216  46.188  19.901  1.00  0.00     0.022 A 
HETATM    5  C10 UNL     1      10.137  46.826  20.729  1.00  0.00     0.045 A 
HETATM    6  C11 UNL     1       9.702  47.727  21.764  1.00  0.00     0.099 C 
HETATM    7  N4  UNL     1       9.364  48.472  22.602  1.00  0.00    -0.191 NA
HETATM    8  C12 UNL     1      11.490  46.581  20.539  1.00  0.00     0.031 A 
ENDROOT
BRANCH   1   9
HETATM    9  C5  UNL     1      13.390  45.523  19.430  1.00  0.00     0.176 C 
BRANCH   9  10
HETATM   10  N3  UNL     1      13.844  45.588  18.069  1.00  0.00    -0.222 N 
ATOM     11  H3  UNL     1      13.510  44.912  17.382  1.00  0.00     0.178 HD
BRANCH  10  12
HETATM   12  C4  UNL     1      14.677  46.510  17.724  1.00  0.00     0.682 A 
HETATM   13  N2  UNL     1      14.297  47.572  16.977  1.00  0.00    -0.167 N 
HETATM   14  C3  UNL     1      15.136  48.551  16.599  1.00  0.00     0.200 A 
ATOM     15  H2  UNL     1      13.321  47.633  16.686  1.00  0.00     0.186 HD
HETATM   16  O1  UNL     1      15.048  49.653  15.905  1.00  0.00    -0.218 OA
HETATM   17  C14 UNL     1      16.442  48.455  16.997  1.00  0.00     0.086 A 
HETATM   18  N1  UNL     1      16.191  50.261  15.831  1.00  0.00    -0.263 N 
HETATM   19  C2  UNL     1      17.112  49.549  16.505  1.00  0.00     0.047 A 
ATOM     20  H1  UNL     1      16.364  51.139  15.341  1.00  0.00     0.194 HD
HETATM   21  C1  UNL     1      18.550  49.910  16.659  1.00  0.00     0.071 C 
HETATM   22  C13 UNL     1      16.863  47.393  17.754  1.00  0.00     0.131 A 
HETATM   23  N5  UNL     1      15.966  46.452  18.094  1.00  0.00    -0.176 N 
HETATM   24  N6  UNL     1      18.100  47.349  18.102  1.00  0.00    -0.384 N 
ATOM     25  H5  UNL     1      16.277  45.660  18.656  1.00  0.00     0.186 HD
ATOM     26  H62 UNL     1      18.413  46.559  18.665  1.00  0.00     0.157 HD
ATOM     27  H61 UNL     1      18.781  48.063  17.844  1.00  0.00     0.157 HD
ENDBRANCH  10  12
ENDBRANCH   9  10
ENDBRANCH   1   9
TORSDOF 3
ENDMDL
MODEL 2
REMARK VINA RESULT: -7.424883399      2.608      3.483
REMARK  3 active torsions:
REMARK  status: ('A' for Active; 'I' for Inactive)
REMARK    1  A    between atoms: C4_9  and  N3_10 
REMARK    2  A    between atoms: N3_10  and  C5_12 
REMARK    3  A    between atoms: C5_12  and  C6_13 
ROOT
HETATM    1  C6  UNL     1      11.940  45.318  18.782  1.00  0.00    -0.038 A 
HETATM    2  C7  UNL     1      10.887  44.899  17.991  1.00  0.00     0.009 A 
HETATM    3  C8  UNL     1       9.600  45.255  18.330  1.00  0.00     0.002 A 
HETATM    4  C9  UNL     1       9.338  46.025  19.453  1.00  0.00     0.022 A 
HETATM    5  C10 UNL     1      10.395  46.451  20.255  1.00  0.00     0.045 A 
HETATM    6  C11 UNL     1      10.159  47.253  21.427  1.00  0.00     0.099 C 
HETATM    7  N4  UNL     1       9.983  47.915  22.376  1.00  0.00    -0.191 NA
HETATM    8  C12 UNL     1      11.688  46.089  19.905  1.00  0.00     0.031 A 
ENDROOT
BRANCH   1   9
HETATM    9  C5  UNL     1      13.349  44.986  18.495  1.00  0.00     0.176 C 
BRANCH   9  10
HETATM   10  N3  UNL     1      14.239  46.077  18.774  1.00  0.00    -0.222 N 
ATOM     11  H3  UNL     1      13.903  47.039  18.735  1.00  0.00     0.178 HD
BRANCH  10  12
HETATM   12  C4  UNL     1      15.470  45.829  19.074  1.00  0.00     0.682 A 
HETATM   13  N2  UNL     1      16.496  46.388  18.392  1.00  0.00    -0.167 N 
HETATM   14  C3  UNL     1      17.789  46.153  18.675  1.00  0.00     0.200 A 
ATOM     15  H2  UNL     1      16.277  47.020  17.622  1.00  0.00     0.186 HD
HETATM   16  O1  UNL     1      18.942  46.540  18.204  1.00  0.00    -0.218 OA
HETATM   17  C14 UNL     1      18.066  45.302  19.710  1.00  0.00     0.086 A 
HETATM   18  N1  UNL     1      19.927  46.003  18.856  1.00  0.00    -0.263 N 
HETATM   19  C2  UNL     1      19.432  45.209  19.822  1.00  0.00     0.047 A 
ATOM     20  H1  UNL     1      20.917  46.157  18.665  1.00  0.00     0.194 HD
HETATM   21  C1  UNL     1      20.237  44.412  20.790  1.00  0.00     0.071 C 
HETATM   22  C13 UNL     1      17.051  44.718  20.424  1.00  0.00     0.131 A 
HETATM   23  N5  UNL     1      15.782  45.000  20.082  1.00  0.00    -0.176 N 
HETATM   24  N6  UNL     1      17.365  43.926  21.386  1.00  0.00    -0.384 N 
ATOM     25  H5  UNL     1      15.026  44.566  20.610  1.00  0.00     0.186 HD
ATOM     26  H62 UNL     1      16.610  43.491  21.916  1.00  0.00     0.157 HD
ATOM     27  H61 UNL     1      18.328  43.711  21.645  1.00  0.00     0.157 HD
ENDBRANCH  10  12
ENDBRANCH   9  10
ENDBRANCH   1   9
TORSDOF 3
ENDMDL
MODEL 3
REMARK VINA RESULT: -7.374672050      2.767      3.712
REMARK  3 active torsions:
REMARK  status: ('A' for Active; 'I' for Inactive)
REMARK    1  A    between atoms: C4_9  and  N3_10 
REMARK    2  A    between atoms: N3_10  and  C5_12 
REMARK    3  A    between atoms: C5_12  and  C6_13 
ROOT
HETATM    1  C6  UNL     1      11.566  45.332  18.814  1.00  0.00    -0.038 A 
HETATM    2  C7  UNL     1      10.492  44.953  18.032  1.00  0.00     0.009 A 
HETATM    3  C8  UNL     1       9.219  45.334  18.397  1.00  0.00     0.002 A 
HETATM    4  C9  UNL     1       8.993  46.091  19.536  1.00  0.00     0.022 A 
HETATM    5  C10 UNL     1      10.071  46.477  20.330  1.00  0.00     0.045 A 
HETATM    6  C11 UNL     1       9.872  47.263  21.519  1.00  0.00     0.099 C 
HETATM    7  N4  UNL     1       9.726  47.913  22.482  1.00  0.00    -0.191 NA
HETATM    8  C12 UNL     1      11.350  46.089  19.954  1.00  0.00     0.031 A 
ENDROOT
BRANCH   1   9
HETATM    9  C5  UNL     1      12.962  44.970  18.502  1.00  0.00     0.176 C 
BRANCH   9  10
HETATM   10  N3  UNL     1      13.864  46.077  18.652  1.00  0.00    -0.222 N 
ATOM     11  H3  UNL     1      13.544  47.030  18.481  1.00  0.00     0.178 HD
BRANCH  10  12
HETATM   12  C4  UNL     1      15.085  45.855  19.007  1.00  0.00     0.682 A 
HETATM   13  N2  UNL     1      15.392  44.987  19.998  1.00  0.00    -0.167 N 
HETATM   14  C3  UNL     1      16.651  44.730  20.394  1.00  0.00     0.200 A 
ATOM     15  H2  UNL     1      14.628  44.502  20.470  1.00  0.00     0.186 HD
HETATM   16  O1  UNL     1      17.221  43.970  21.288  1.00  0.00    -0.218 OA
HETATM   17  C14 UNL     1      17.664  45.389  19.752  1.00  0.00     0.086 A 
HETATM   18  N1  UNL     1      18.512  44.094  21.264  1.00  0.00    -0.263 N 
HETATM   19  C2  UNL     1      18.851  44.980  20.310  1.00  0.00     0.047 A 
ATOM     20  H1  UNL     1      19.165  43.599  21.871  1.00  0.00     0.194 HD
HETATM   21  C1  UNL     1      20.238  45.400  19.966  1.00  0.00     0.071 C 
HETATM   22  C13 UNL     1      17.390  46.276  18.743  1.00  0.00     0.131 A 
HETATM   23  N5  UNL     1      16.106  46.482  18.402  1.00  0.00    -0.176 N 
HETATM   24  N6  UNL     1      18.377  46.868  18.172  1.00  0.00    -0.384 N 
ATOM     25  H5  UNL     1      15.899  47.141  17.652  1.00  0.00     0.186 HD
ATOM     26  H62 UNL     1      18.172  47.528  17.422  1.00  0.00     0.157 HD
ATOM     27  H61 UNL     1      19.351  46.713  18.431  1.00  0.00     0.157 HD
ENDBRANCH  10  12
ENDBRANCH   9  10
ENDBRANCH   1   9
TORSDOF 3
ENDMDL
MODEL 4
REMARK VINA RESULT: -7.294499271      1.113      1.860
REMARK  3 active torsions:
REMARK  status: ('A' for Active; 'I' for Inactive)
REMARK    1  A    between atoms: C4_9  and  N3_10 
REMARK    2  A    between atoms: N3_10  and  C5_12 
REMARK    3  A    between atoms: C5_12  and  C6_13 
ROOT
HETATM    1  C6  UNL     1      12.095  45.780  19.567  1.00  0.00    -0.038 A 
HETATM    2  C7  UNL     1      11.211  45.123  18.733  1.00  0.00     0.009 A 
HETATM    3  C8  UNL     1       9.856  45.331  18.881  1.00  0.00     0.002 A 
HETATM    4  C9  UNL     1       9.362  46.188  19.853  1.00  0.00     0.022 A 
HETATM    5  C10 UNL     1      10.248  46.854  20.697  1.00  0.00     0.045 A 
HETATM    6  C11 UNL     1       9.768  47.751  21.716  1.00  0.00     0.099 C 
HETATM    7  N4  UNL     1       9.394  48.493  22.540  1.00  0.00    -0.191 NA
HETATM    8  C12 UNL     1      11.610  46.639  20.540  1.00  0.00     0.031 A 
ENDROOT
BRANCH   1   9
HETATM    9  C5  UNL     1      13.560  45.619  19.481  1.00  0.00     0.176 C 
BRANCH   9  10
HETATM   10  N3  UNL     1      14.031  45.589  18.125  1.00  0.00    -0.222 N 
ATOM     11  H3  UNL     1      13.790  44.810  17.513  1.00  0.00     0.178 HD
BRANCH  10  12
HETATM   12  C4  UNL     1      14.765  46.557  17.689  1.00  0.00     0.682 A 
HETATM   13  N2  UNL     1      16.086  46.631  17.966  1.00  0.00    -0.167 N 
HETATM   14  C3  UNL     1      16.881  47.624  17.530  1.00  0.00     0.200 A 
ATOM     15  H2  UNL     1      16.502  45.895  18.537  1.00  0.00     0.186 HD
HETATM   16  O1  UNL     1      18.143  47.938  17.639  1.00  0.00    -0.218 OA
HETATM   17  C14 UNL     1      16.309  48.604  16.766  1.00  0.00     0.086 A 
HETATM   18  N1  UNL     1      18.415  49.038  17.006  1.00  0.00    -0.263 N 
HETATM   19  C2  UNL     1      17.291  49.505  16.433  1.00  0.00     0.047 A 
ATOM     20  H1  UNL     1      19.334  49.477  16.952  1.00  0.00     0.194 HD
HETATM   21  C1  UNL     1      17.182  50.747  15.617  1.00  0.00     0.071 C 
HETATM   22  C13 UNL     1      14.971  48.562  16.465  1.00  0.00     0.131 A 
HETATM   23  N5  UNL     1      14.240  47.538  16.937  1.00  0.00    -0.176 N 
HETATM   24  N6  UNL     1      14.482  49.507  15.744  1.00  0.00    -0.384 N 
ATOM     25  H5  UNL     1      13.245  47.504  16.716  1.00  0.00     0.186 HD
ATOM     26  H62 UNL     1      13.488  49.475  15.520  1.00  0.00     0.157 HD
ATOM     27  H61 UNL     1      15.037  50.284  15.386  1.00  0.00     0.157 HD
ENDBRANCH  10  12
ENDBRANCH   9  10
ENDBRANCH   1   9
TORSDOF 3
ENDMDL
MODEL 5
REMARK VINA RESULT: -7.078502851      2.041      2.586
REMARK  3 active torsions:
REMARK  status: ('A' for Active; 'I' for Inactive)
REMARK    1  A    between atoms: C4_9  and  N3_10 
REMARK    2  A    between atoms: N3_10  and  C5_12 
REMARK    3  A    between atoms: C5_12  and  C6_13 
ROOT
HETATM    1  C6  UNL     1      11.655  45.891  19.636  1.00  0.00    -0.038 A 
HETATM    2  C7  UNL     1      10.731  45.207  18.869  1.00  0.00     0.009 A 
HETATM    3  C8  UNL     1       9.386  45.378  19.115  1.00  0.00     0.002 A 
HETATM    4  C9  UNL     1       8.939  46.223  20.119  1.00  0.00     0.022 A 
HETATM    5  C10 UNL     1       9.865  46.915  20.896  1.00  0.00     0.045 A 
HETATM    6  C11 UNL     1       9.435  47.801  21.947  1.00  0.00     0.099 C 
HETATM    7  N4  UNL     1       9.100  48.535  22.796  1.00  0.00    -0.191 NA
HETATM    8  C12 UNL     1      11.217  46.738  20.641  1.00  0.00     0.031 A 
ENDROOT
BRANCH   1   9
HETATM    9  C5  UNL     1      13.113  45.771  19.444  1.00  0.00     0.176 C 
BRANCH   9  10
HETATM   10  N3  UNL     1      13.558  46.370  18.218  1.00  0.00    -0.222 N 
ATOM     11  H3  UNL     1      12.885  46.784  17.573  1.00  0.00     0.178 HD
BRANCH  10  12
HETATM   12  C4  UNL     1      14.818  46.380  17.939  1.00  0.00     0.682 A 
HETATM   13  N2  UNL     1      15.758  46.128  18.879  1.00  0.00    -0.167 N 
HETATM   14  C3  UNL     1      17.078  46.128  18.626  1.00  0.00     0.200 A 
ATOM     15  H2  UNL     1      15.448  45.926  19.830  1.00  0.00     0.186 HD
HETATM   16  O1  UNL     1      18.169  45.926  19.312  1.00  0.00    -0.218 OA
HETATM   17  C14 UNL     1      17.477  46.400  17.346  1.00  0.00     0.086 A 
HETATM   18  N1  UNL     1      19.227  46.049  18.570  1.00  0.00    -0.263 N 
HETATM   19  C2  UNL     1      18.850  46.348  17.315  1.00  0.00     0.047 A 
ATOM     20  H1  UNL     1      20.189  45.936  18.889  1.00  0.00     0.194 HD
HETATM   21  C1  UNL     1      19.767  46.570  16.161  1.00  0.00     0.071 C 
HETATM   22  C13 UNL     1      16.553  46.661  16.367  1.00  0.00     0.131 A 
HETATM   23  N5  UNL     1      15.250  46.642  16.696  1.00  0.00    -0.176 N 
HETATM   24  N6  UNL     1      16.980  46.910  15.181  1.00  0.00    -0.384 N 
ATOM     25  H5  UNL     1      14.560  46.836  15.970  1.00  0.00     0.186 HD
ATOM     26  H62 UNL     1      16.292  47.104  14.454  1.00  0.00     0.157 HD
ATOM     27  H61 UNL     1      17.968  46.925  14.932  1.00  0.00     0.157 HD
ENDBRANCH  10  12
ENDBRANCH   9  10
ENDBRANCH   1   9
TORSDOF 3
ENDMDL
