MODEL 1
REMARK VINA RESULT: -6.562232155      0.000      0.000
REMARK  4 active torsions:
REMARK  status: ('A' for Active; 'I' for Inactive)
REMARK    1  A    between atoms: C5_6  and  N2_7 
REMARK    2  A    between atoms: N5_16  and  C8_17 
REMARK    3  A    between atoms: C8_17  and  C9_18 
REMARK    4  A    between atoms: C15_24  and  N6_25 
ROOT
HETATM    1  C1  UNL     1      17.076  46.876  18.465  1.00  0.00     0.051 C 
HETATM    2  C2  UNL     1      16.364  47.102  17.203  1.00  0.00    -0.020 A 
HETATM    3  C3  UNL     1      16.966  47.834  16.160  1.00  0.00     0.095 A 
HETATM    4  C4  UNL     1      18.301  48.354  16.369  1.00  0.00     0.104 C 
HETATM    5  N1  UNL     1      19.366  48.785  16.528  1.00  0.00    -0.191 NA
HETATM    6  C5  UNL     1      16.322  48.059  14.973  1.00  0.00     0.122 A 
HETATM    7  N3  UNL     1      15.089  47.589  14.753  1.00  0.00    -0.327 N 
ATOM      8  H3  UNL     1      14.626  47.767  13.862  1.00  0.00     0.169 HD
HETATM    9  C6  UNL     1      14.462  46.885  15.707  1.00  0.00     0.122 A 
HETATM   10  N4  UNL     1      13.205  46.402  15.494  1.00  0.00    -0.338 N 
ATOM     11  H4  UNL     1      12.746  46.582  14.601  1.00  0.00     0.168 HD
HETATM   12  C7  UNL     1      12.557  45.697  16.429  1.00  0.00     0.186 A 
HETATM   13  N5  UNL     1      13.139  45.444  17.618  1.00  0.00    -0.325 N 
HETATM   14  C15 UNL     1      14.388  45.906  17.864  1.00  0.00     0.117 A 
HETATM   15  C16 UNL     1      15.088  46.650  16.899  1.00  0.00     0.059 A 
ENDROOT
BRANCH   6  16
HETATM   16  N2  UNL     1      16.927  48.737  14.056  1.00  0.00    -0.384 N 
ATOM     17  H22 UNL     1      17.946  48.748  14.018  1.00  0.00     0.157 HD
ATOM     18  H21 UNL     1      16.368  49.256  13.379  1.00  0.00     0.157 HD
ENDBRANCH   6  16
BRANCH  14  19
HETATM   19  N6  UNL     1      15.010  45.683  18.940  1.00  0.00    -0.384 N 
ATOM     20  H62 UNL     1      14.877  46.373  19.679  1.00  0.00     0.157 HD
ATOM     21  H61 UNL     1      15.629  44.883  19.073  1.00  0.00     0.157 HD
ENDBRANCH  14  19
BRANCH  13  22
HETATM   22  C8  UNL     1      12.397  44.720  18.590  1.00  0.00     0.170 C 
BRANCH  22  23
HETATM   23  C9  UNL     1      11.373  45.468  19.319  1.00  0.00    -0.040 A 
HETATM   24  C10 UNL     1      10.028  45.312  19.119  1.00  0.00     0.009 A 
HETATM   25  C11 UNL     1       9.087  46.040  19.835  1.00  0.00     0.001 A 
HETATM   26  C12 UNL     1       9.508  46.958  20.786  1.00  0.00     0.000 A 
HETATM   27  C13 UNL     1      10.861  47.099  20.973  1.00  0.00     0.001 A 
HETATM   28  C14 UNL     1      11.787  46.380  20.267  1.00  0.00     0.009 A 
ENDBRANCH  22  23
ENDBRANCH  13  22
TORSDOF 4
ENDMDL
MODEL 2
REMARK VINA RESULT: -6.541344102      0.085      1.009
REMARK  4 active torsions:
REMARK  status: ('A' for Active; 'I' for Inactive)
REMARK    1  A    between atoms: C5_6  and  N2_7 
REMARK    2  A    between atoms: N5_16  and  C8_17 
REMARK    3  A    between atoms: C8_17  and  C9_18 
REMARK    4  A    between atoms: C15_24  and  N6_25 
ROOT
HETATM    1  C1  UNL     1      16.973  46.831  18.469  1.00  0.00     0.051 C 
HETATM    2  C2  UNL     1      16.285  47.068  17.196  1.00  0.00    -0.020 A 
HETATM    3  C3  UNL     1      16.909  47.800  16.167  1.00  0.00     0.095 A 
HETATM    4  C4  UNL     1      18.245  48.309  16.401  1.00  0.00     0.104 C 
HETATM    5  N1  UNL     1      19.310  48.730  16.580  1.00  0.00    -0.191 NA
HETATM    6  C5  UNL     1      16.288  48.036  14.970  1.00  0.00     0.122 A 
HETATM    7  N3  UNL     1      15.054  47.577  14.728  1.00  0.00    -0.327 N 
ATOM      8  H3  UNL     1      14.608  47.762  13.830  1.00  0.00     0.169 HD
HETATM    9  C6  UNL     1      14.406  46.873  15.667  1.00  0.00     0.122 A 
HETATM   10  N4  UNL     1      13.149  46.401  15.431  1.00  0.00    -0.338 N 
ATOM     11  H4  UNL     1      12.707  46.589  14.532  1.00  0.00     0.168 HD
HETATM   12  C7  UNL     1      12.480  45.697  16.352  1.00  0.00     0.186 A 
HETATM   13  N5  UNL     1      13.040  45.434  17.549  1.00  0.00    -0.325 N 
HETATM   14  C15 UNL     1      14.288  45.885  17.819  1.00  0.00     0.117 A 
HETATM   15  C16 UNL     1      15.010  46.627  16.869  1.00  0.00     0.059 A 
ENDROOT
BRANCH   6  16
HETATM   16  N2  UNL     1      16.913  48.713  14.067  1.00  0.00    -0.384 N 
ATOM     17  H22 UNL     1      17.926  48.820  14.119  1.00  0.00     0.157 HD
ATOM     18  H21 UNL     1      16.376  49.135  13.310  1.00  0.00     0.157 HD
ENDBRANCH   6  16
BRANCH  14  19
HETATM   19  N6  UNL     1      14.890  45.652  18.903  1.00  0.00    -0.384 N 
ATOM     20  H62 UNL     1      15.026  46.456  19.515  1.00  0.00     0.157 HD
ATOM     21  H61 UNL     1      15.247  44.731  19.159  1.00  0.00     0.157 HD
ENDBRANCH  14  19
BRANCH  13  22
HETATM   22  C8  UNL     1      12.276  44.711  18.505  1.00  0.00     0.170 C 
BRANCH  22  23
HETATM   23  C9  UNL     1      11.338  45.490  19.314  1.00  0.00    -0.040 A 
HETATM   24  C10 UNL     1      11.722  46.393  20.268  1.00  0.00     0.009 A 
HETATM   25  C11 UNL     1      10.800  47.116  21.014  1.00  0.00     0.001 A 
HETATM   26  C12 UNL     1       9.444  46.924  20.798  1.00  0.00     0.000 A 
HETATM   27  C13 UNL     1       9.078  46.015  19.838  1.00  0.00     0.001 A 
HETATM   28  C14 UNL     1       9.989  45.304  19.103  1.00  0.00     0.009 A 
ENDBRANCH  22  23
ENDBRANCH  13  22
TORSDOF 4
ENDMDL
MODEL 3
REMARK VINA RESULT: -6.514654000      1.117      2.708
REMARK  4 active torsions:
REMARK  status: ('A' for Active; 'I' for Inactive)
REMARK    1  A    between atoms: C5_6  and  N2_7 
REMARK    2  A    between atoms: N5_16  and  C8_17 
REMARK    3  A    between atoms: C8_17  and  C9_18 
REMARK    4  A    between atoms: C15_24  and  N6_25 
ROOT
HETATM    1  C1  UNL     1      14.490  48.147  14.908  1.00  0.00     0.051 C 
HETATM    2  C2  UNL     1      15.543  48.002  15.918  1.00  0.00    -0.020 A 
HETATM    3  C3  UNL     1      16.748  48.722  15.807  1.00  0.00     0.095 A 
HETATM    4  C4  UNL     1      16.917  49.606  14.672  1.00  0.00     0.104 C 
HETATM    5  N1  UNL     1      17.069  50.309  13.762  1.00  0.00    -0.191 NA
HETATM    6  C5  UNL     1      17.747  48.604  16.736  1.00  0.00     0.122 A 
HETATM    7  N3  UNL     1      17.617  47.795  17.794  1.00  0.00    -0.327 N 
ATOM      8  H3  UNL     1      18.372  47.721  18.475  1.00  0.00     0.169 HD
HETATM    9  C6  UNL     1      16.492  47.083  17.957  1.00  0.00     0.122 A 
HETATM   10  N4  UNL     1      16.349  46.255  19.031  1.00  0.00    -0.338 N 
ATOM     11  H4  UNL     1      17.107  46.185  19.710  1.00  0.00     0.168 HD
HETATM   12  C7  UNL     1      15.238  45.533  19.216  1.00  0.00     0.186 A 
HETATM   13  N5  UNL     1      14.221  45.608  18.334  1.00  0.00    -0.325 N 
HETATM   14  C15 UNL     1      14.327  46.420  17.257  1.00  0.00     0.117 A 
HETATM   15  C16 UNL     1      15.484  47.188  17.039  1.00  0.00     0.059 A 
ENDROOT
BRANCH   6  16
HETATM   16  N2  UNL     1      18.828  49.290  16.578  1.00  0.00    -0.384 N 
ATOM     17  H22 UNL     1      19.732  48.817  16.539  1.00  0.00     0.157 HD
ATOM     18  H21 UNL     1      18.760  50.304  16.494  1.00  0.00     0.157 HD
ENDBRANCH   6  16
BRANCH  14  19
HETATM   19  N6  UNL     1      13.406  46.567  16.406  1.00  0.00    -0.384 N 
ATOM     20  H62 UNL     1      12.466  46.333  16.727  1.00  0.00     0.157 HD
ATOM     21  H61 UNL     1      13.572  46.874  15.448  1.00  0.00     0.157 HD
ENDBRANCH  14  19
BRANCH  13  22
HETATM   22  C8  UNL     1      13.076  44.796  18.558  1.00  0.00     0.170 C 
BRANCH  22  23
HETATM   23  C9  UNL     1      11.932  45.444  19.199  1.00  0.00    -0.040 A 
HETATM   24  C10 UNL     1      12.043  46.373  20.198  1.00  0.00     0.009 A 
HETATM   25  C11 UNL     1      10.931  46.968  20.780  1.00  0.00     0.001 A 
HETATM   26  C12 UNL     1       9.661  46.619  20.345  1.00  0.00     0.000 A 
HETATM   27  C13 UNL     1       9.569  45.686  19.343  1.00  0.00     0.001 A 
HETATM   28  C14 UNL     1      10.667  45.101  18.771  1.00  0.00     0.009 A 
ENDBRANCH  22  23
ENDBRANCH  13  22
TORSDOF 4
ENDMDL
MODEL 4
REMARK VINA RESULT: -6.480998757      1.117      2.511
REMARK  4 active torsions:
REMARK  status: ('A' for Active; 'I' for Inactive)
REMARK    1  A    between atoms: C5_6  and  N2_7 
REMARK    2  A    between atoms: N5_16  and  C8_17 
REMARK    3  A    between atoms: C8_17  and  C9_18 
REMARK    4  A    between atoms: C15_24  and  N6_25 
ROOT
HETATM    1  C1  UNL     1      14.483  48.123  14.941  1.00  0.00     0.051 C 
HETATM    2  C2  UNL     1      15.524  47.977  15.962  1.00  0.00    -0.020 A 
HETATM    3  C3  UNL     1      16.728  48.703  15.870  1.00  0.00     0.095 A 
HETATM    4  C4  UNL     1      16.906  49.594  14.742  1.00  0.00     0.104 C 
HETATM    5  N1  UNL     1      17.065  50.304  13.840  1.00  0.00    -0.191 NA
HETATM    6  C5  UNL     1      17.716  48.583  16.810  1.00  0.00     0.122 A 
HETATM    7  N3  UNL     1      17.577  47.766  17.861  1.00  0.00    -0.327 N 
ATOM      8  H3  UNL     1      18.324  47.691  18.551  1.00  0.00     0.169 HD
HETATM    9  C6  UNL     1      16.454  47.048  18.006  1.00  0.00     0.122 A 
HETATM   10  N4  UNL     1      16.302  46.213  19.073  1.00  0.00    -0.338 N 
ATOM     11  H4  UNL     1      17.052  46.141  19.760  1.00  0.00     0.168 HD
HETATM   12  C7  UNL     1      15.192  45.485  19.240  1.00  0.00     0.186 A 
HETATM   13  N5  UNL     1      14.186  45.560  18.347  1.00  0.00    -0.325 N 
HETATM   14  C15 UNL     1      14.300  46.380  17.276  1.00  0.00     0.117 A 
HETATM   15  C16 UNL     1      15.456  47.154  17.077  1.00  0.00     0.059 A 
ENDROOT
BRANCH   6  16
HETATM   16  N2  UNL     1      18.796  49.275  16.669  1.00  0.00    -0.384 N 
ATOM     17  H22 UNL     1      18.745  50.291  16.593  1.00  0.00     0.157 HD
ATOM     18  H21 UNL     1      19.691  48.788  16.635  1.00  0.00     0.157 HD
ENDBRANCH   6  16
BRANCH  14  19
HETATM   19  N6  UNL     1      13.388  46.528  16.416  1.00  0.00    -0.384 N 
ATOM     20  H62 UNL     1      13.202  47.490  16.130  1.00  0.00     0.157 HD
ATOM     21  H61 UNL     1      12.845  45.753  16.036  1.00  0.00     0.157 HD
ENDBRANCH  14  19
BRANCH  13  22
HETATM   22  C8  UNL     1      13.042  44.742  18.552  1.00  0.00     0.170 C 
BRANCH  22  23
HETATM   23  C9  UNL     1      11.879  45.386  19.162  1.00  0.00    -0.040 A 
HETATM   24  C10 UNL     1      10.585  45.119  18.805  1.00  0.00     0.009 A 
HETATM   25  C11 UNL     1       9.507  45.751  19.412  1.00  0.00     0.001 A 
HETATM   26  C12 UNL     1       9.734  46.685  20.411  1.00  0.00     0.000 A 
HETATM   27  C13 UNL     1      11.038  46.939  20.756  1.00  0.00     0.001 A 
HETATM   28  C14 UNL     1      12.099  46.315  20.157  1.00  0.00     0.009 A 
ENDBRANCH  22  23
ENDBRANCH  13  22
TORSDOF 4
ENDMDL
MODEL 5
REMARK VINA RESULT: -6.375203685      3.536      5.004
REMARK  4 active torsions:
REMARK  status: ('A' for Active; 'I' for Inactive)
REMARK    1  A    between atoms: C5_6  and  N2_7 
REMARK    2  A    between atoms: N5_16  and  C8_17 
REMARK    3  A    between atoms: C8_17  and  C9_18 
REMARK    4  A    between atoms: C15_24  and  N6_25 
ROOT
HETATM    1  C1  UNL     1      13.767  44.582  17.168  1.00  0.00     0.051 C 
HETATM    2  C2  UNL     1      12.357  44.619  16.770  1.00  0.00    -0.020 A 
HETATM    3  C3  UNL     1      11.966  44.240  15.471  1.00  0.00     0.095 A 
HETATM    4  C4  UNL     1      12.993  43.815  14.543  1.00  0.00     0.104 C 
HETATM    5  N1  UNL     1      13.807  43.482  13.788  1.00  0.00    -0.191 NA
HETATM    6  C5  UNL     1      10.656  44.267  15.075  1.00  0.00     0.122 A 
HETATM    7  N3  UNL     1       9.687  44.656  15.913  1.00  0.00    -0.327 N 
ATOM      8  H3  UNL     1       8.716  44.669  15.600  1.00  0.00     0.169 HD
HETATM    9  C6  UNL     1       9.994  45.029  17.164  1.00  0.00     0.122 A 
HETATM   10  N4  UNL     1       9.015  45.427  18.025  1.00  0.00    -0.338 N 
ATOM     11  H4  UNL     1       8.046  45.437  17.707  1.00  0.00     0.168 HD
HETATM   12  C7  UNL     1       9.295  45.804  19.278  1.00  0.00     0.186 A 
HETATM   13  N5  UNL     1      10.566  45.799  19.724  1.00  0.00    -0.325 N 
HETATM   14  C15 UNL     1      11.565  45.408  18.897  1.00  0.00     0.117 A 
HETATM   15  C16 UNL     1      11.297  45.009  17.577  1.00  0.00     0.059 A 
ENDROOT
BRANCH   6  16
HETATM   16  N2  UNL     1      10.362  43.908  13.871  1.00  0.00    -0.384 N 
ATOM     17  H22 UNL     1      11.082  43.511  13.267  1.00  0.00     0.157 HD
ATOM     18  H21 UNL     1       9.404  44.030  13.542  1.00  0.00     0.157 HD
ENDBRANCH   6  16
BRANCH  14  19
HETATM   19  N6  UNL     1      12.775  45.347  19.253  1.00  0.00    -0.384 N 
ATOM     20  H62 UNL     1      13.176  46.215  19.608  1.00  0.00     0.157 HD
ATOM     21  H61 UNL     1      13.339  44.501  19.175  1.00  0.00     0.157 HD
ENDBRANCH  14  19
BRANCH  13  22
HETATM   22  C8  UNL     1      10.815  46.241  21.052  1.00  0.00     0.170 C 
BRANCH  22  23
HETATM   23  C9  UNL     1      10.092  47.435  21.489  1.00  0.00    -0.040 A 
HETATM   24  C10 UNL     1      10.434  48.709  21.123  1.00  0.00     0.009 A 
HETATM   25  C11 UNL     1       9.719  49.819  21.557  1.00  0.00     0.001 A 
HETATM   26  C12 UNL     1       8.623  49.645  22.389  1.00  0.00     0.000 A 
HETATM   27  C13 UNL     1       8.295  48.360  22.744  1.00  0.00     0.001 A 
HETATM   28  C14 UNL     1       9.001  47.269  22.315  1.00  0.00     0.009 A 
ENDBRANCH  22  23
ENDBRANCH  13  22
TORSDOF 4
ENDMDL
