MODEL 1
REMARK VINA RESULT: -6.339265072      0.000      0.000
REMARK  3 active torsions:
REMARK  status: ('A' for Active; 'I' for Inactive)
REMARK    1  A    between atoms: C6_8  and  C7_9 
REMARK    2  A    between atoms: C7_9  and  N3_10 
REMARK       I    between atoms: N3_10  and  C8_12 
REMARK    3  A    between atoms: C11_19  and  O1_20 
ROOT
HETATM    1  C1  UNL     1      17.288 -15.581  21.092  1.00  0.00     0.274 C 
HETATM    2  N1  UNL     1      16.066 -14.870  21.532  1.00  0.00    -0.041 N 
HETATM    3  C2  UNL     1      16.532 -14.152  22.690  1.00  0.00     0.274 C 
HETATM    4  C3  UNL     1      15.105 -15.880  21.853  1.00  0.00     0.267 C 
HETATM    5  C4  UNL     1      14.010 -15.699  20.808  1.00  0.00     0.268 C 
HETATM    6  N2  UNL     1      14.111 -14.348  20.336  1.00  0.00    -0.032 N 
HETATM    7  C5  UNL     1      13.822 -14.432  18.883  1.00  0.00     0.276 C 
HETATM    8  C6  UNL     1      13.149 -13.439  20.870  1.00  0.00     0.210 C 
HETATM    9  C9  UNL     1      13.504 -12.003  20.620  1.00  0.00     0.038 C 
HETATM   10  C10 UNL     1      14.916 -11.648  20.913  1.00  0.00     0.037 C 
HETATM   11  C11 UNL     1      15.915 -12.644  20.463  1.00  0.00     0.177 C 
HETATM   12  C12 UNL     1      15.497 -14.066  20.478  1.00  0.00     0.419 C 
ENDROOT
BRANCH   8  13
HETATM   13  C7  UNL     1      12.720 -13.698  22.273  1.00  0.00     0.155 C 
BRANCH  13  14
HETATM   14  N3  UNL     1      12.474 -12.457  22.972  1.00  0.00    -0.363 N 
HETATM   15  C8  UNL     1      11.260 -12.122  23.618  1.00  0.00     0.181 C 
HETATM   16  N4  UNL     1      10.289 -12.960  23.682  1.00  0.00    -0.374 N 
HETATM   17  N5  UNL     1      11.094 -10.866  24.224  1.00  0.00    -0.064 NA
ATOM     18  H42 UNL     1      10.409 -13.873  23.242  1.00  0.00     0.158 HD
ATOM     19  H41 UNL     1       9.413 -12.719  24.147  1.00  0.00     0.158 HD
ATOM     20  H3  UNL     1      13.230 -11.773  23.002  1.00  0.00     0.162 HD
ENDBRANCH  13  14
ENDBRANCH   8  13
BRANCH  11  21
HETATM   21  O1  UNL     1      16.412 -12.223  19.203  1.00  0.00    -0.392 OA
ATOM     22  H1  UNL     1      16.797 -12.978  18.775  1.00  0.00     0.210 HD
ENDBRANCH  11  21
TORSDOF 3
ENDMDL
MODEL 2
REMARK VINA RESULT: -6.205568641      2.712      4.720
REMARK  3 active torsions:
REMARK  status: ('A' for Active; 'I' for Inactive)
REMARK    1  A    between atoms: C6_8  and  C7_9 
REMARK    2  A    between atoms: C7_9  and  N3_10 
REMARK       I    between atoms: N3_10  and  C8_12 
REMARK    3  A    between atoms: C11_19  and  O1_20 
ROOT
HETATM    1  C1  UNL     1      17.195 -14.526  22.898  1.00  0.00     0.274 C 
HETATM    2  N1  UNL     1      16.479 -14.357  21.613  1.00  0.00    -0.041 N 
HETATM    3  C2  UNL     1      17.019 -15.431  20.820  1.00  0.00     0.274 C 
HETATM    4  C3  UNL     1      16.839 -13.064  21.118  1.00  0.00     0.267 C 
HETATM    5  C4  UNL     1      15.538 -12.271  21.164  1.00  0.00     0.268 C 
HETATM    6  N2  UNL     1      14.471 -13.230  21.143  1.00  0.00    -0.032 N 
HETATM    7  C5  UNL     1      13.443 -12.674  22.057  1.00  0.00     0.276 C 
HETATM    8  C6  UNL     1      13.820 -13.393  19.884  1.00  0.00     0.210 C 
HETATM    9  C9  UNL     1      12.965 -14.625  19.826  1.00  0.00     0.038 C 
HETATM   10  C10 UNL     1      13.607 -15.857  20.352  1.00  0.00     0.037 C 
HETATM   11  C11 UNL     1      14.382 -15.670  21.600  1.00  0.00     0.177 C 
HETATM   12  C12 UNL     1      15.047 -14.358  21.786  1.00  0.00     0.419 C 
ENDROOT
BRANCH   8  13
HETATM   13  C7  UNL     1      14.681 -13.225  18.680  1.00  0.00     0.155 C 
BRANCH  13  14
HETATM   14  N3  UNL     1      14.339 -12.015  17.968  1.00  0.00    -0.363 N 
HETATM   15  C8  UNL     1      14.790 -11.690  16.666  1.00  0.00     0.181 C 
HETATM   16  N4  UNL     1      15.504 -12.514  15.986  1.00  0.00    -0.374 N 
HETATM   17  N5  UNL     1      14.450 -10.461  16.076  1.00  0.00    -0.064 NA
ATOM     18  H42 UNL     1      15.750 -13.406  16.414  1.00  0.00     0.158 HD
ATOM     19  H41 UNL     1      15.829 -12.280  15.048  1.00  0.00     0.158 HD
ATOM     20  H3  UNL     1      13.728 -11.346  18.437  1.00  0.00     0.162 HD
ENDBRANCH  13  14
ENDBRANCH   8  13
BRANCH  11  21
HETATM   21  O1  UNL     1      13.548 -16.032  22.688  1.00  0.00    -0.392 OA
ATOM     22  H1  UNL     1      14.069 -16.542  23.297  1.00  0.00     0.210 HD
ENDBRANCH  11  21
TORSDOF 3
ENDMDL
MODEL 3
REMARK VINA RESULT: -6.157057816      1.317      1.992
REMARK  3 active torsions:
REMARK  status: ('A' for Active; 'I' for Inactive)
REMARK    1  A    between atoms: C6_8  and  C7_9 
REMARK    2  A    between atoms: C7_9  and  N3_10 
REMARK       I    between atoms: N3_10  and  C8_12 
REMARK    3  A    between atoms: C11_19  and  O1_20 
ROOT
HETATM    1  C1  UNL     1      14.458 -17.702  20.185  1.00  0.00     0.274 C 
HETATM    2  N1  UNL     1      14.100 -16.502  20.975  1.00  0.00    -0.041 N 
HETATM    3  C2  UNL     1      14.448 -16.904  22.313  1.00  0.00     0.274 C 
HETATM    4  C3  UNL     1      12.693 -16.308  20.800  1.00  0.00     0.267 C 
HETATM    5  C4  UNL     1      12.591 -14.994  20.033  1.00  0.00     0.268 C 
HETATM    6  N2  UNL     1      13.806 -14.275  20.285  1.00  0.00    -0.032 N 
HETATM    7  C5  UNL     1      14.131 -13.616  18.996  1.00  0.00     0.276 C 
HETATM    8  C6  UNL     1      13.705 -13.221  21.242  1.00  0.00     0.210 C 
HETATM    9  C9  UNL     1      15.044 -12.738  21.718  1.00  0.00     0.038 C 
HETATM   10  C10 UNL     1      16.003 -13.811  22.082  1.00  0.00     0.037 C 
HETATM   11  C11 UNL     1      16.029 -14.964  21.152  1.00  0.00     0.177 C 
HETATM   12  C12 UNL     1      14.754 -15.314  20.483  1.00  0.00     0.419 C 
ENDROOT
BRANCH   8  13
HETATM   13  C7  UNL     1      12.737 -13.442  22.353  1.00  0.00     0.155 C 
BRANCH  13  14
HETATM   14  N3  UNL     1      12.414 -12.196  23.009  1.00  0.00    -0.363 N 
HETATM   15  C8  UNL     1      11.212 -11.942  23.712  1.00  0.00     0.181 C 
HETATM   16  N4  UNL     1      10.330 -12.862  23.872  1.00  0.00    -0.374 N 
HETATM   17  N5  UNL     1      10.962 -10.677  24.270  1.00  0.00    -0.064 NA
ATOM     18  H42 UNL     1      10.512 -13.780  23.467  1.00  0.00     0.158 HD
ATOM     19  H41 UNL     1       9.464 -12.679  24.379  1.00  0.00     0.158 HD
ATOM     20  H3  UNL     1      13.103 -11.444  22.963  1.00  0.00     0.162 HD
ENDBRANCH  13  14
ENDBRANCH   8  13
BRANCH  11  21
HETATM   21  O1  UNL     1      17.100 -14.765  20.243  1.00  0.00    -0.392 OA
ATOM     22  H1  UNL     1      16.780 -14.959  19.370  1.00  0.00     0.210 HD
ENDBRANCH  11  21
TORSDOF 3
ENDMDL
MODEL 4
REMARK VINA RESULT: -6.141736325      2.822      5.120
REMARK  3 active torsions:
REMARK  status: ('A' for Active; 'I' for Inactive)
REMARK    1  A    between atoms: C6_8  and  C7_9 
REMARK    2  A    between atoms: C7_9  and  N3_10 
REMARK       I    between atoms: N3_10  and  C8_12 
REMARK    3  A    between atoms: C11_19  and  O1_20 
ROOT
HETATM    1  C1  UNL     1      12.527 -15.254  21.997  1.00  0.00     0.274 C 
HETATM    2  N1  UNL     1      13.270 -14.456  20.995  1.00  0.00    -0.041 N 
HETATM    3  C2  UNL     1      12.717 -13.140  21.184  1.00  0.00     0.274 C 
HETATM    4  C3  UNL     1      12.952 -15.015  19.717  1.00  0.00     0.267 C 
HETATM    5  C4  UNL     1      14.273 -15.598  19.227  1.00  0.00     0.268 C 
HETATM    6  N2  UNL     1      15.315 -14.903  19.927  1.00  0.00    -0.032 N 
HETATM    7  C5  UNL     1      16.340 -15.938  20.206  1.00  0.00     0.276 C 
HETATM    8  C6  UNL     1      15.984 -13.889  19.177  1.00  0.00     0.210 C 
HETATM    9  C9  UNL     1      16.807 -12.977  20.038  1.00  0.00     0.038 C 
HETATM   10  C10 UNL     1      16.124 -12.488  21.263  1.00  0.00     0.037 C 
HETATM   11  C11 UNL     1      15.331 -13.510  21.984  1.00  0.00     0.177 C 
HETATM   12  C12 UNL     1      14.698 -14.569  21.162  1.00  0.00     0.419 C 
ENDROOT
BRANCH   8  13
HETATM   13  C7  UNL     1      15.149 -13.156  18.185  1.00  0.00     0.155 C 
BRANCH  13  14
HETATM   14  N3  UNL     1      15.840 -11.985  17.696  1.00  0.00    -0.363 N 
HETATM   15  C8  UNL     1      16.574 -11.926  16.487  1.00  0.00     0.181 C 
HETATM   16  N4  UNL     1      16.616 -12.930  15.687  1.00  0.00    -0.374 N 
HETATM   17  N5  UNL     1      17.261 -10.757  16.122  1.00  0.00    -0.064 NA
ATOM     18  H42 UNL     1      16.116 -13.779  15.952  1.00  0.00     0.158 HD
ATOM     19  H41 UNL     1      17.145 -12.888  14.816  1.00  0.00     0.158 HD
ATOM     20  H3  UNL     1      15.795 -11.138  18.264  1.00  0.00     0.162 HD
ENDBRANCH  13  14
ENDBRANCH   8  13
BRANCH  11  21
HETATM   21  O1  UNL     1      16.137 -14.025  23.032  1.00  0.00    -0.392 OA
ATOM     22  H1  UNL     1      15.765 -14.855  23.304  1.00  0.00     0.210 HD
ENDBRANCH  11  21
TORSDOF 3
ENDMDL
MODEL 5
REMARK VINA RESULT: -6.035047274      1.079      1.419
REMARK  3 active torsions:
REMARK  status: ('A' for Active; 'I' for Inactive)
REMARK    1  A    between atoms: C6_8  and  C7_9 
REMARK    2  A    between atoms: C7_9  and  N3_10 
REMARK       I    between atoms: N3_10  and  C8_12 
REMARK    3  A    between atoms: C11_19  and  O1_20 
ROOT
HETATM    1  C1  UNL     1      15.918 -16.920  19.796  1.00  0.00     0.274 C 
HETATM    2  N1  UNL     1      15.260 -15.827  20.548  1.00  0.00    -0.041 N 
HETATM    3  C2  UNL     1      15.738 -16.048  21.888  1.00  0.00     0.274 C 
HETATM    4  C3  UNL     1      13.851 -16.038  20.418  1.00  0.00     0.267 C 
HETATM    5  C4  UNL     1      13.369 -14.845  19.600  1.00  0.00     0.268 C 
HETATM    6  N2  UNL     1      14.342 -13.806  19.776  1.00  0.00    -0.032 N 
HETATM    7  C5  UNL     1      14.440 -13.150  18.448  1.00  0.00     0.276 C 
HETATM    8  C6  UNL     1      13.976 -12.773  20.691  1.00  0.00     0.210 C 
HETATM    9  C9  UNL     1      15.139 -11.915  21.094  1.00  0.00     0.038 C 
HETATM   10  C10 UNL     1      16.368 -12.662  21.467  1.00  0.00     0.037 C 
HETATM   11  C11 UNL     1      16.690 -13.808  20.587  1.00  0.00     0.177 C 
HETATM   12  C12 UNL     1      15.546 -14.531  19.982  1.00  0.00     0.419 C 
ENDROOT
BRANCH   8  13
HETATM   13  C7  UNL     1      13.136 -13.196  21.845  1.00  0.00     0.155 C 
BRANCH  13  14
HETATM   14  N3  UNL     1      12.733 -12.054  22.634  1.00  0.00    -0.363 N 
HETATM   15  C8  UNL     1      11.506 -11.947  23.333  1.00  0.00     0.181 C 
HETATM   16  N4  UNL     1      10.674 -12.926  23.364  1.00  0.00    -0.374 N 
HETATM   17  N5  UNL     1      11.177 -10.772  24.027  1.00  0.00    -0.064 NA
ATOM     18  H42 UNL     1      10.913 -13.779  22.860  1.00  0.00     0.158 HD
ATOM     19  H41 UNL     1       9.790 -12.849  23.868  1.00  0.00     0.158 HD
ATOM     20  H3  UNL     1      13.379 -11.266  22.691  1.00  0.00     0.162 HD
ENDBRANCH  13  14
ENDBRANCH   8  13
BRANCH  11  21
HETATM   21  O1  UNL     1      17.641 -13.368  19.630  1.00  0.00    -0.392 OA
ATOM     22  H1  UNL     1      17.750 -14.060  18.989  1.00  0.00     0.210 HD
ENDBRANCH  11  21
TORSDOF 3
ENDMDL
