MODEL 1
REMARK VINA RESULT: -6.133706741      0.000      0.000
REMARK  5 active torsions:
REMARK  status: ('A' for Active; 'I' for Inactive)
REMARK       I    between atoms: C2_2  and  N1_4 
REMARK    1  A    between atoms: N1_4  and  N2_6 
REMARK    2  A    between atoms: N2_6  and  C3_8 
REMARK    3  A    between atoms: C3_8  and  N3_10 
REMARK    4  A    between atoms: C4_12  and  N4_13 
REMARK       I    between atoms: N4_13  and  C5_15 
REMARK       I    between atoms: C5_15  and  N5_17 
REMARK    5  A    between atoms: N5_17  and  C6_19 
ROOT
HETATM    1  N3  UNL     1      11.861 -10.929  21.572  1.00  0.00    -0.328 N 
ATOM      2  H3  UNL     1      11.077 -10.612  21.001  1.00  0.00     0.169 HD
HETATM    3  C4  UNL     1      12.986 -10.722  21.107  1.00  0.00     0.186 C 
ENDROOT
BRANCH   1   4
HETATM    4  C3  UNL     1      11.529 -11.536  22.772  1.00  0.00     0.191 C 
HETATM    5  S1  UNL     1      11.373 -10.646  24.148  1.00  0.00    -0.039 SA
BRANCH   4   6
HETATM    6  N2  UNL     1      11.303 -12.940  22.855  1.00  0.00    -0.274 N 
ATOM      7  H2  UNL     1      10.346 -13.289  22.894  1.00  0.00     0.189 HD
BRANCH   6   8
HETATM    8  N1  UNL     1      12.364 -13.850  22.883  1.00  0.00    -0.268 N 
HETATM    9  C2  UNL     1      12.733 -14.448  21.629  1.00  0.00     0.232 C 
HETATM   10  C1  UNL     1      13.841 -15.424  21.557  1.00  0.00     0.119 C 
HETATM   11  O1  UNL     1      12.108 -14.143  20.576  1.00  0.00    -0.272 OA
ATOM     12  H1  UNL     1      12.852 -14.078  23.749  1.00  0.00     0.190 HD
ENDBRANCH   6   8
ENDBRANCH   4   6
ENDBRANCH   1   4
BRANCH   3  13
HETATM   13  N4  UNL     1      14.199 -11.066  21.709  1.00  0.00    -0.305 N 
HETATM   14  C5  UNL     1      15.138 -11.852  20.955  1.00  0.00     0.321 C 
HETATM   15  O2  UNL     1      14.806 -12.194  19.773  1.00  0.00    -0.247 OA
HETATM   16  N5  UNL     1      16.388 -12.233  21.504  1.00  0.00    -0.338 N 
ATOM     17  H5  UNL     1      16.644 -11.949  22.450  1.00  0.00     0.164 HD
ATOM     18  H4  UNL     1      14.414 -10.766  22.659  1.00  0.00     0.171 HD
BRANCH  16  19
HETATM   19  C6  UNL     1      17.294 -13.024  20.713  1.00  0.00     0.086 A 
HETATM   20  C7  UNL     1      18.762 -12.979  20.854  1.00  0.00     0.027 A 
HETATM   21  C8  UNL     1      18.049 -14.055  21.586  1.00  0.00     0.027 A 
ENDBRANCH  16  19
ENDBRANCH   3  13
TORSDOF 5
ENDMDL
MODEL 2
REMARK VINA RESULT: -6.062166480      1.085      1.163
REMARK  5 active torsions:
REMARK  status: ('A' for Active; 'I' for Inactive)
REMARK       I    between atoms: C2_2  and  N1_4 
REMARK    1  A    between atoms: N1_4  and  N2_6 
REMARK    2  A    between atoms: N2_6  and  C3_8 
REMARK    3  A    between atoms: C3_8  and  N3_10 
REMARK    4  A    between atoms: C4_12  and  N4_13 
REMARK       I    between atoms: N4_13  and  C5_15 
REMARK       I    between atoms: C5_15  and  N5_17 
REMARK    5  A    between atoms: N5_17  and  C6_19 
ROOT
HETATM    1  N3  UNL     1      11.893 -10.936  21.575  1.00  0.00    -0.328 N 
ATOM      2  H3  UNL     1      11.015 -10.673  21.127  1.00  0.00     0.169 HD
HETATM    3  C4  UNL     1      12.918 -10.471  21.067  1.00  0.00     0.186 C 
ENDROOT
BRANCH   1   4
HETATM    4  C3  UNL     1      11.785 -11.769  22.675  1.00  0.00     0.191 C 
HETATM    5  S1  UNL     1      11.269 -11.182  24.124  1.00  0.00    -0.039 SA
BRANCH   4   6
HETATM    6  N2  UNL     1      12.106 -13.154  22.592  1.00  0.00    -0.274 N 
ATOM      7  H2  UNL     1      12.477 -13.630  23.414  1.00  0.00     0.189 HD
BRANCH   6   8
HETATM    8  N1  UNL     1      11.923 -13.877  21.409  1.00  0.00    -0.268 N 
HETATM    9  C2  UNL     1      12.298 -15.264  21.437  1.00  0.00     0.232 C 
HETATM   10  C1  UNL     1      12.144 -16.110  20.236  1.00  0.00     0.119 C 
HETATM   11  O1  UNL     1      12.766 -15.771  22.495  1.00  0.00    -0.272 OA
ATOM     12  H1  UNL     1      11.543 -13.442  20.569  1.00  0.00     0.190 HD
ENDBRANCH   6   8
ENDBRANCH   4   6
ENDBRANCH   1   4
BRANCH   3  13
HETATM   13  N4  UNL     1      14.225 -10.692  21.507  1.00  0.00    -0.305 N 
HETATM   14  C5  UNL     1      14.927 -11.847  21.016  1.00  0.00     0.321 C 
HETATM   15  O2  UNL     1      14.310 -12.610  20.203  1.00  0.00    -0.247 OA
HETATM   16  N5  UNL     1      16.257 -12.128  21.420  1.00  0.00    -0.338 N 
ATOM     17  H5  UNL     1      16.741 -11.507  22.069  1.00  0.00     0.164 HD
ATOM     18  H4  UNL     1      14.671 -10.049  22.161  1.00  0.00     0.171 HD
BRANCH  16  19
HETATM   19  C6  UNL     1      16.917 -13.298  20.906  1.00  0.00     0.086 A 
HETATM   20  C7  UNL     1      17.704 -13.316  19.657  1.00  0.00     0.027 A 
HETATM   21  C8  UNL     1      18.455 -13.130  20.923  1.00  0.00     0.027 A 
ENDBRANCH  16  19
ENDBRANCH   3  13
TORSDOF 5
ENDMDL
MODEL 3
REMARK VINA RESULT: -5.882161415      2.629      3.582
REMARK  5 active torsions:
REMARK  status: ('A' for Active; 'I' for Inactive)
REMARK       I    between atoms: C2_2  and  N1_4 
REMARK    1  A    between atoms: N1_4  and  N2_6 
REMARK    2  A    between atoms: N2_6  and  C3_8 
REMARK    3  A    between atoms: C3_8  and  N3_10 
REMARK    4  A    between atoms: C4_12  and  N4_13 
REMARK       I    between atoms: N4_13  and  C5_15 
REMARK       I    between atoms: C5_15  and  N5_17 
REMARK    5  A    between atoms: N5_17  and  C6_19 
ROOT
HETATM    1  N3  UNL     1      13.660 -12.740  19.122  1.00  0.00    -0.328 N 
ATOM      2  H3  UNL     1      12.872 -12.116  18.945  1.00  0.00     0.169 HD
HETATM    3  C4  UNL     1      14.621 -12.625  18.356  1.00  0.00     0.186 C 
ENDROOT
BRANCH   1   4
HETATM    4  C3  UNL     1      13.516 -13.609  20.190  1.00  0.00     0.191 C 
HETATM    5  S1  UNL     1      12.894 -15.117  19.966  1.00  0.00    -0.039 SA
BRANCH   4   6
HETATM    6  N2  UNL     1      13.904 -13.235  21.508  1.00  0.00    -0.274 N 
ATOM      7  H2  UNL     1      14.839 -13.473  21.838  1.00  0.00     0.189 HD
BRANCH   6   8
HETATM    8  N1  UNL     1      13.034 -12.548  22.359  1.00  0.00    -0.268 N 
HETATM    9  C2  UNL     1      13.041 -11.114  22.266  1.00  0.00     0.232 C 
HETATM   10  C1  UNL     1      12.157 -10.299  23.126  1.00  0.00     0.119 C 
HETATM   11  O1  UNL     1      13.807 -10.537  21.445  1.00  0.00    -0.272 OA
ATOM     12  H1  UNL     1      12.426 -13.040  23.014  1.00  0.00     0.190 HD
ENDBRANCH   6   8
ENDBRANCH   4   6
ENDBRANCH   1   4
BRANCH   3  13
HETATM   13  N4  UNL     1      15.804 -13.367  18.404  1.00  0.00    -0.305 N 
HETATM   14  C5  UNL     1      16.806 -12.996  19.366  1.00  0.00     0.321 C 
HETATM   15  O2  UNL     1      16.557 -12.003  20.124  1.00  0.00    -0.247 OA
HETATM   16  N5  UNL     1      18.027 -13.710  19.470  1.00  0.00    -0.338 N 
ATOM     17  H5  UNL     1      18.214 -14.506  18.860  1.00  0.00     0.164 HD
ATOM     18  H4  UNL     1      15.953 -14.154  17.773  1.00  0.00     0.171 HD
BRANCH  16  19
HETATM   19  C6  UNL     1      19.002 -13.298  20.446  1.00  0.00     0.086 A 
HETATM   20  C7  UNL     1      20.101 -14.160  20.923  1.00  0.00     0.027 A 
HETATM   21  C8  UNL     1      20.417 -13.214  19.825  1.00  0.00     0.027 A 
ENDBRANCH  16  19
ENDBRANCH   3  13
TORSDOF 5
ENDMDL
MODEL 4
REMARK VINA RESULT: -5.814644667      3.182      4.177
REMARK  5 active torsions:
REMARK  status: ('A' for Active; 'I' for Inactive)
REMARK       I    between atoms: C2_2  and  N1_4 
REMARK    1  A    between atoms: N1_4  and  N2_6 
REMARK    2  A    between atoms: N2_6  and  C3_8 
REMARK    3  A    between atoms: C3_8  and  N3_10 
REMARK    4  A    between atoms: C4_12  and  N4_13 
REMARK       I    between atoms: N4_13  and  C5_15 
REMARK       I    between atoms: C5_15  and  N5_17 
REMARK    5  A    between atoms: N5_17  and  C6_19 
ROOT
HETATM    1  N3  UNL     1      14.045 -13.539  22.305  1.00  0.00    -0.328 N 
ATOM      2  H3  UNL     1      14.556 -13.609  23.185  1.00  0.00     0.169 HD
HETATM    3  C4  UNL     1      14.535 -12.788  21.455  1.00  0.00     0.186 C 
ENDROOT
BRANCH   1   4
HETATM    4  C3  UNL     1      12.892 -14.299  22.212  1.00  0.00     0.191 C 
HETATM    5  S1  UNL     1      12.973 -15.909  21.878  1.00  0.00    -0.039 SA
BRANCH   4   6
HETATM    6  N2  UNL     1      11.605 -13.721  22.409  1.00  0.00    -0.274 N 
ATOM      7  H2  UNL     1      10.856 -13.936  21.751  1.00  0.00     0.189 HD
BRANCH   6   8
HETATM    8  N1  UNL     1      11.345 -12.867  23.485  1.00  0.00    -0.268 N 
HETATM    9  C2  UNL     1      11.454 -11.457  23.228  1.00  0.00     0.232 C 
HETATM   10  C1  UNL     1      11.200 -10.474  24.302  1.00  0.00     0.119 C 
HETATM   11  O1  UNL     1      11.771 -11.047  22.077  1.00  0.00    -0.272 OA
ATOM     12  H1  UNL     1      11.091 -13.226  24.405  1.00  0.00     0.190 HD
ENDBRANCH   6   8
ENDBRANCH   4   6
ENDBRANCH   1   4
BRANCH   3  13
HETATM   13  N4  UNL     1      14.015 -12.537  20.183  1.00  0.00    -0.305 N 
HETATM   14  C5  UNL     1      14.933 -12.262  19.111  1.00  0.00     0.321 C 
HETATM   15  O2  UNL     1      16.177 -12.260  19.385  1.00  0.00    -0.247 OA
HETATM   16  N5  UNL     1      14.471 -12.002  17.795  1.00  0.00    -0.338 N 
ATOM     17  H5  UNL     1      13.473 -12.009  17.587  1.00  0.00     0.164 HD
ATOM     18  H4  UNL     1      13.008 -12.549  20.019  1.00  0.00     0.171 HD
BRANCH  16  19
HETATM   19  C6  UNL     1      15.427 -11.727  16.756  1.00  0.00     0.086 A 
HETATM   20  C7  UNL     1      15.242 -12.118  15.344  1.00  0.00     0.027 A 
HETATM   21  C8  UNL     1      14.856 -10.734  15.715  1.00  0.00     0.027 A 
ENDBRANCH  16  19
ENDBRANCH   3  13
TORSDOF 5
ENDMDL
MODEL 5
REMARK VINA RESULT: -5.756409734      2.643      4.725
REMARK  5 active torsions:
REMARK  status: ('A' for Active; 'I' for Inactive)
REMARK       I    between atoms: C2_2  and  N1_4 
REMARK    1  A    between atoms: N1_4  and  N2_6 
REMARK    2  A    between atoms: N2_6  and  C3_8 
REMARK    3  A    between atoms: C3_8  and  N3_10 
REMARK    4  A    between atoms: C4_12  and  N4_13 
REMARK       I    between atoms: N4_13  and  C5_15 
REMARK       I    between atoms: C5_15  and  N5_17 
REMARK    5  A    between atoms: N5_17  and  C6_19 
ROOT
HETATM    1  N3  UNL     1      15.988 -13.604  20.459  1.00  0.00    -0.328 N 
ATOM      2  H3  UNL     1      16.313 -14.168  19.674  1.00  0.00     0.169 HD
HETATM    3  C4  UNL     1      15.659 -12.444  20.192  1.00  0.00     0.186 C 
ENDROOT
BRANCH   1   4
HETATM    4  C3  UNL     1      15.969 -14.237  21.691  1.00  0.00     0.191 C 
HETATM    5  S1  UNL     1      17.353 -14.411  22.565  1.00  0.00    -0.039 SA
BRANCH   4   6
HETATM    6  N2  UNL     1      14.760 -14.747  22.244  1.00  0.00    -0.274 N 
ATOM      7  H2  UNL     1      14.655 -14.791  23.257  1.00  0.00     0.189 HD
BRANCH   6   8
HETATM    8  N1  UNL     1      13.714 -15.191  21.430  1.00  0.00    -0.268 N 
HETATM    9  C2  UNL     1      13.160 -16.481  21.737  1.00  0.00     0.232 C 
HETATM   10  C1  UNL     1      12.053 -17.037  20.932  1.00  0.00     0.119 C 
HETATM   11  O1  UNL     1      13.621 -17.153  22.702  1.00  0.00    -0.272 OA
ATOM     12  H1  UNL     1      13.361 -14.627  20.656  1.00  0.00     0.190 HD
ENDBRANCH   6   8
ENDBRANCH   4   6
ENDBRANCH   1   4
BRANCH   3  13
HETATM   13  N4  UNL     1      15.185 -11.495  21.100  1.00  0.00    -0.305 N 
HETATM   14  C5  UNL     1      13.787 -11.510  21.438  1.00  0.00     0.321 C 
HETATM   15  O2  UNL     1      13.056 -12.394  20.884  1.00  0.00    -0.247 OA
HETATM   16  N5  UNL     1      13.241 -10.576  22.355  1.00  0.00    -0.338 N 
ATOM     17  H5  UNL     1      13.838  -9.875  22.795  1.00  0.00     0.164 HD
ATOM     18  H4  UNL     1      15.814 -10.807  21.513  1.00  0.00     0.171 HD
BRANCH  16  19
HETATM   19  C6  UNL     1      11.835 -10.627  22.659  1.00  0.00     0.086 A 
HETATM   20  C7  UNL     1      11.260 -11.438  23.750  1.00  0.00     0.027 A 
HETATM   21  C8  UNL     1      11.538 -10.011  24.047  1.00  0.00     0.027 A 
ENDBRANCH  16  19
ENDBRANCH   3  13
TORSDOF 5
ENDMDL
