MODEL 1
REMARK VINA RESULT: -5.844548021      0.000      0.000
REMARK  2 active torsions:
REMARK  status: ('A' for Active; 'I' for Inactive)
REMARK    1  A    between atoms: C2_2  and  N1_3 
REMARK    2  A    between atoms: N1_3  and  C5_6 
REMARK       I    between atoms: N2_8  and  C7_9 
REMARK       I    between atoms: N5_17  and  C11_18 
ROOT
HETATM    1  C5  UNL     1      14.194 -13.711  19.032  1.00  0.00     0.310 C 
HETATM    2  C6  UNL     1      13.454 -12.510  19.478  1.00  0.00     0.180 C 
HETATM    3  N2  UNL     1      13.284 -12.303  20.877  1.00  0.00    -0.352 N 
HETATM    4  C7  UNL     1      13.137 -10.965  21.371  1.00  0.00     0.184 C 
HETATM    5  N3  UNL     1      14.102 -10.151  21.555  1.00  0.00    -0.374 N 
ATOM      6  H31 UNL     1      13.997  -9.200  21.907  1.00  0.00     0.158 HD
ATOM      7  H32 UNL     1      15.048 -10.465  21.339  1.00  0.00     0.158 HD
HETATM    8  N4  UNL     1      11.820 -10.529  21.673  1.00  0.00    -0.064 NA
HETATM    9  C8  UNL     1      13.227 -13.266  21.969  1.00  0.00     0.127 C 
HETATM   10  C9  UNL     1      14.714 -13.514  22.223  1.00  0.00     0.040 C 
HETATM   11  C10 UNL     1      15.091 -14.661  21.358  1.00  0.00     0.129 C 
HETATM   12  N5  UNL     1      14.631 -14.643  20.006  1.00  0.00    -0.326 N 
HETATM   13  C11 UNL     1      14.632 -15.983  19.542  1.00  0.00     0.185 C 
HETATM   14  N6  UNL     1      15.666 -16.708  19.681  1.00  0.00    -0.374 N 
ATOM     15  H61 UNL     1      15.667 -17.673  19.348  1.00  0.00     0.158 HD
ATOM     16  H62 UNL     1      16.485 -16.298  20.129  1.00  0.00     0.158 HD
HETATM   17  N7  UNL     1      13.505 -16.549  18.926  1.00  0.00    -0.064 NA
ENDROOT
BRANCH   1  18
HETATM   18  N1  UNL     1      15.212 -13.227  18.107  1.00  0.00    -0.052 N 
HETATM   19  C3  UNL     1      14.563 -12.081  17.428  1.00  0.00     0.274 C 
HETATM   20  C4  UNL     1      15.587 -14.123  17.062  1.00  0.00     0.274 C 
BRANCH  18  21
HETATM   21  C2  UNL     1      16.341 -12.693  18.797  1.00  0.00     0.234 C 
HETATM   22  C1  UNL     1      17.630 -13.436  18.493  1.00  0.00     0.035 C 
ENDBRANCH  18  21
ENDBRANCH   1  18
TORSDOF 2
ENDMDL
MODEL 2
REMARK VINA RESULT: -5.771411390      2.029      3.657
REMARK  2 active torsions:
REMARK  status: ('A' for Active; 'I' for Inactive)
REMARK    1  A    between atoms: C2_2  and  N1_3 
REMARK    2  A    between atoms: N1_3  and  C5_6 
REMARK       I    between atoms: N2_8  and  C7_9 
REMARK       I    between atoms: N5_17  and  C11_18 
ROOT
HETATM    1  C5  UNL     1      16.602 -12.693  19.649  1.00  0.00     0.310 C 
HETATM    2  C6  UNL     1      15.750 -12.488  20.841  1.00  0.00     0.180 C 
HETATM    3  N2  UNL     1      14.390 -12.908  20.779  1.00  0.00    -0.352 N 
HETATM    4  C7  UNL     1      13.720 -13.285  21.989  1.00  0.00     0.184 C 
HETATM    5  N3  UNL     1      13.850 -14.415  22.566  1.00  0.00    -0.374 N 
ATOM      6  H31 UNL     1      13.374 -14.683  23.427  1.00  0.00     0.158 HD
ATOM      7  H32 UNL     1      14.472 -15.105  22.145  1.00  0.00     0.158 HD
HETATM    8  N4  UNL     1      12.856 -12.323  22.575  1.00  0.00    -0.064 NA
HETATM    9  C8  UNL     1      13.497 -13.031  19.634  1.00  0.00     0.127 C 
HETATM   10  C9  UNL     1      13.906 -14.397  19.084  1.00  0.00     0.040 C 
HETATM   11  C10 UNL     1      14.982 -14.134  18.095  1.00  0.00     0.129 C 
HETATM   12  N5  UNL     1      16.015 -13.222  18.474  1.00  0.00    -0.326 N 
HETATM   13  C11 UNL     1      16.597 -12.725  17.280  1.00  0.00     0.185 C 
HETATM   14  N6  UNL     1      16.983 -13.528  16.373  1.00  0.00    -0.374 N 
ATOM     15  H61 UNL     1      17.402 -13.171  15.514  1.00  0.00     0.158 HD
ATOM     16  H62 UNL     1      16.863 -14.528  16.533  1.00  0.00     0.158 HD
HETATM   17  N7  UNL     1      16.762 -11.349  17.060  1.00  0.00    -0.064 NA
ENDROOT
BRANCH   1  18
HETATM   18  N1  UNL     1      17.797 -13.377  20.132  1.00  0.00    -0.052 N 
HETATM   19  C3  UNL     1      17.373 -14.790  20.262  1.00  0.00     0.274 C 
HETATM   20  C4  UNL     1      18.256 -12.998  21.428  1.00  0.00     0.274 C 
BRANCH  18  21
HETATM   21  C2  UNL     1      18.842 -13.362  19.159  1.00  0.00     0.234 C 
HETATM   22  C1  UNL     1      20.229 -13.401  19.775  1.00  0.00     0.035 C 
ENDBRANCH  18  21
ENDBRANCH   1  18
TORSDOF 2
ENDMDL
MODEL 3
REMARK VINA RESULT: -5.671283343      1.679      2.237
REMARK  2 active torsions:
REMARK  status: ('A' for Active; 'I' for Inactive)
REMARK    1  A    between atoms: C2_2  and  N1_3 
REMARK    2  A    between atoms: N1_3  and  C5_6 
REMARK       I    between atoms: N2_8  and  C7_9 
REMARK       I    between atoms: N5_17  and  C11_18 
ROOT
HETATM    1  C5  UNL     1      13.515 -14.896  19.618  1.00  0.00     0.310 C 
HETATM    2  C6  UNL     1      13.600 -13.423  19.514  1.00  0.00     0.180 C 
HETATM    3  N2  UNL     1      13.107 -12.641  20.599  1.00  0.00    -0.352 N 
HETATM    4  C7  UNL     1      13.668 -11.343  20.834  1.00  0.00     0.184 C 
HETATM    5  N3  UNL     1      14.778 -11.130  21.426  1.00  0.00    -0.374 N 
ATOM      6  H31 UNL     1      15.177 -10.207  21.594  1.00  0.00     0.158 HD
ATOM      7  H32 UNL     1      15.310 -11.934  21.760  1.00  0.00     0.158 HD
HETATM    8  N4  UNL     1      12.926 -10.225  20.370  1.00  0.00    -0.064 NA
HETATM    9  C8  UNL     1      12.067 -12.940  21.575  1.00  0.00     0.127 C 
HETATM   10  C9  UNL     1      12.844 -13.785  22.585  1.00  0.00     0.040 C 
HETATM   11  C10 UNL     1      12.695 -15.193  22.139  1.00  0.00     0.129 C 
HETATM   12  N5  UNL     1      12.879 -15.465  20.748  1.00  0.00    -0.326 N 
HETATM   13  C11 UNL     1      12.204 -16.679  20.463  1.00  0.00     0.185 C 
HETATM   14  N6  UNL     1      12.410 -17.710  21.178  1.00  0.00    -0.374 N 
ATOM     15  H61 UNL     1      11.925 -18.584  20.974  1.00  0.00     0.158 HD
ATOM     16  H62 UNL     1      13.070 -17.634  21.952  1.00  0.00     0.158 HD
HETATM   17  N7  UNL     1      11.296 -16.784  19.399  1.00  0.00    -0.064 NA
ENDROOT
BRANCH   1  18
HETATM   18  N1  UNL     1      14.855 -15.390  19.321  1.00  0.00    -0.052 N 
HETATM   19  C3  UNL     1      15.448 -14.330  18.474  1.00  0.00     0.274 C 
HETATM   20  C4  UNL     1      14.926 -16.583  18.541  1.00  0.00     0.274 C 
BRANCH  18  21
HETATM   21  C2  UNL     1      15.663 -15.461  20.496  1.00  0.00     0.234 C 
HETATM   22  C1  UNL     1      17.130 -15.177  20.228  1.00  0.00     0.035 C 
ENDBRANCH  18  21
ENDBRANCH   1  18
TORSDOF 2
ENDMDL
MODEL 4
REMARK VINA RESULT: -5.545517990      1.875      3.472
REMARK  2 active torsions:
REMARK  status: ('A' for Active; 'I' for Inactive)
REMARK    1  A    between atoms: C2_2  and  N1_3 
REMARK    2  A    between atoms: N1_3  and  C5_6 
REMARK       I    between atoms: N2_8  and  C7_9 
REMARK       I    between atoms: N5_17  and  C11_18 
ROOT
HETATM    1  C5  UNL     1      14.471 -14.855  21.667  1.00  0.00     0.310 C 
HETATM    2  C6  UNL     1      13.864 -13.538  21.961  1.00  0.00     0.180 C 
HETATM    3  N2  UNL     1      14.503 -12.371  21.451  1.00  0.00    -0.352 N 
HETATM    4  C7  UNL     1      13.714 -11.205  21.183  1.00  0.00     0.184 C 
HETATM    5  N3  UNL     1      12.995 -11.041  20.143  1.00  0.00    -0.374 N 
ATOM      6  H31 UNL     1      12.434 -10.212  19.952  1.00  0.00     0.158 HD
ATOM      7  H32 UNL     1      12.973 -11.787  19.447  1.00  0.00     0.158 HD
HETATM    8  N4  UNL     1      13.745 -10.168  22.152  1.00  0.00    -0.064 NA
HETATM    9  C8  UNL     1      15.905 -12.132  21.133  1.00  0.00     0.127 C 
HETATM   10  C9  UNL     1      16.002 -12.750  19.738  1.00  0.00     0.040 C 
HETATM   11  C10 UNL     1      16.391 -14.168  19.947  1.00  0.00     0.129 C 
HETATM   12  N5  UNL     1      15.699 -14.897  20.962  1.00  0.00    -0.326 N 
HETATM   13  C11 UNL     1      16.531 -15.980  21.346  1.00  0.00     0.185 C 
HETATM   14  N6  UNL     1      17.028 -16.749  20.465  1.00  0.00    -0.374 N 
ATOM     15  H61 UNL     1      17.627 -17.528  20.741  1.00  0.00     0.158 HD
ATOM     16  H62 UNL     1      16.808 -16.566  19.486  1.00  0.00     0.158 HD
HETATM   17  N7  UNL     1      16.835 -16.233  22.693  1.00  0.00    -0.064 NA
ENDROOT
BRANCH   1  18
HETATM   18  N1  UNL     1      13.393 -15.674  21.124  1.00  0.00    -0.052 N 
HETATM   19  C3  UNL     1      12.169 -15.102  21.731  1.00  0.00     0.274 C 
HETATM   20  C4  UNL     1      13.397 -17.049  21.505  1.00  0.00     0.274 C 
BRANCH  18  21
HETATM   21  C2  UNL     1      13.257 -15.500  19.714  1.00  0.00     0.234 C 
HETATM   22  C1  UNL     1      13.387 -16.799  18.939  1.00  0.00     0.035 C 
ENDBRANCH  18  21
ENDBRANCH   1  18
TORSDOF 2
ENDMDL
MODEL 5
REMARK VINA RESULT: -5.514714811      1.934      3.968
REMARK  2 active torsions:
REMARK  status: ('A' for Active; 'I' for Inactive)
REMARK    1  A    between atoms: C2_2  and  N1_3 
REMARK    2  A    between atoms: N1_3  and  C5_6 
REMARK       I    between atoms: N2_8  and  C7_9 
REMARK       I    between atoms: N5_17  and  C11_18 
ROOT
HETATM    1  C5  UNL     1      14.380 -13.701  21.410  1.00  0.00     0.310 C 
HETATM    2  C6  UNL     1      13.476 -13.598  22.577  1.00  0.00     0.180 C 
HETATM    3  N2  UNL     1      12.680 -12.424  22.712  1.00  0.00    -0.352 N 
HETATM    4  C7  UNL     1      11.430 -12.505  23.409  1.00  0.00     0.184 C 
HETATM    5  N3  UNL     1      10.349 -12.957  22.907  1.00  0.00    -0.374 N 
ATOM      6  H31 UNL     1       9.460 -13.015  23.403  1.00  0.00     0.158 HD
ATOM      7  H32 UNL     1      10.364 -13.287  21.941  1.00  0.00     0.158 HD
HETATM    8  N4  UNL     1      11.410 -12.046  24.753  1.00  0.00    -0.064 NA
HETATM    9  C8  UNL     1      12.922 -11.066  22.240  1.00  0.00     0.127 C 
HETATM   10  C9  UNL     1      12.457 -11.170  20.787  1.00  0.00     0.040 C 
HETATM   11  C10 UNL     1      13.657 -11.555  20.001  1.00  0.00     0.129 C 
HETATM   12  N5  UNL     1      14.478 -12.601  20.524  1.00  0.00    -0.326 N 
HETATM   13  C11 UNL     1      15.767 -12.450  19.952  1.00  0.00     0.185 C 
HETATM   14  N6  UNL     1      15.900 -12.327  18.694  1.00  0.00    -0.374 N 
ATOM     15  H61 UNL     1      16.827 -12.219  18.283  1.00  0.00     0.158 HD
ATOM     16  H62 UNL     1      15.059 -12.343  18.118  1.00  0.00     0.158 HD
HETATM   17  N7  UNL     1      16.925 -12.428  20.745  1.00  0.00    -0.064 NA
ENDROOT
BRANCH   1  18
HETATM   18  N1  UNL     1      14.090 -14.993  20.799  1.00  0.00    -0.052 N 
HETATM   19  C3  UNL     1      13.471 -15.776  21.893  1.00  0.00     0.274 C 
HETATM   20  C4  UNL     1      15.220 -15.756  20.379  1.00  0.00     0.274 C 
BRANCH  18  21
HETATM   21  C2  UNL     1      13.099 -14.882  19.777  1.00  0.00     0.234 C 
HETATM   22  C1  UNL     1      12.007 -15.929  19.891  1.00  0.00     0.035 C 
ENDBRANCH  18  21
ENDBRANCH   1  18
TORSDOF 2
ENDMDL
