MODEL 1
REMARK VINA RESULT: -6.859131066      0.000      0.000
REMARK  2 active torsions:
REMARK  status: ('A' for Active; 'I' for Inactive)
REMARK    1  A    between atoms: C3_3  and  N1_4 
REMARK    2  A    between atoms: C6_12  and  C7_13 
ROOT
HETATM    1  C1  UNL     1      16.483 -13.028  18.738  1.00  0.00     0.014 C 
HETATM    2  C2  UNL     1      16.480 -13.057  19.948  1.00  0.00    -0.097 C 
HETATM    3  C3  UNL     1      16.463 -13.074  21.419  1.00  0.00     0.235 C 
ENDROOT
BRANCH   3   4
HETATM    4  N1  UNL     1      17.187 -14.195  21.959  1.00  0.00    -0.199 N 
HETATM    5  C4  UNL     1      16.476 -15.383  22.248  1.00  0.00     0.671 C 
HETATM    6  N2  UNL     1      15.379 -15.718  21.665  1.00  0.00    -0.235 N 
HETATM    7  N3  UNL     1      17.062 -16.229  23.264  1.00  0.00    -0.224 N 
ATOM      8  H22 UNL     1      14.965 -15.122  20.949  1.00  0.00     0.174 HD
ATOM      9  H21 UNL     1      14.866 -16.575  21.874  1.00  0.00     0.174 HD
HETATM   10  C5  UNL     1      18.028 -15.589  24.107  1.00  0.00     0.179 C 
ATOM     11  H3  UNL     1      16.805 -17.210  23.373  1.00  0.00     0.177 HD
HETATM   12  C6  UNL     1      19.146 -14.932  23.283  1.00  0.00     0.169 A 
HETATM   13  N4  UNL     1      19.726 -15.805  22.289  1.00  0.00    -0.056 N 
HETATM   14  C14 UNL     1      18.603 -14.088  22.188  1.00  0.00     0.171 A 
HETATM   15  C12 UNL     1      19.332 -14.976  21.194  1.00  0.00     0.208 A 
ATOM     16  H42 UNL     1      20.711 -16.054  22.378  1.00  0.00     0.278 HD
ATOM     17  H41 UNL     1      19.445 -16.785  22.281  1.00  0.00     0.278 HD
HETATM   18  C13 UNL     1      20.401 -14.319  20.392  1.00  0.00     0.042 C 
BRANCH  12  19
HETATM   19  C7  UNL     1      20.137 -14.347  24.225  1.00  0.00     0.025 C 
HETATM   20  C8  UNL     1      21.525 -14.859  24.076  1.00  0.00     0.007 C 
HETATM   21  C9  UNL     1      22.213 -14.261  25.304  1.00  0.00     0.000 C 
HETATM   22  C10 UNL     1      21.125 -13.833  26.253  1.00  0.00     0.000 C 
HETATM   23  C11 UNL     1      19.871 -14.515  25.672  1.00  0.00     0.007 C 
ENDBRANCH  12  19
ENDBRANCH   3   4
TORSDOF 2
ENDMDL
MODEL 2
REMARK VINA RESULT: -6.786158506      1.354      2.180
REMARK  2 active torsions:
REMARK  status: ('A' for Active; 'I' for Inactive)
REMARK    1  A    between atoms: C3_3  and  N1_4 
REMARK    2  A    between atoms: C6_12  and  C7_13 
ROOT
HETATM    1  C1  UNL     1      20.954 -13.260  19.933  1.00  0.00     0.014 C 
HETATM    2  C2  UNL     1      19.836 -13.712  20.050  1.00  0.00    -0.097 C 
HETATM    3  C3  UNL     1      18.474 -14.253  20.171  1.00  0.00     0.235 C 
ENDROOT
BRANCH   3   4
HETATM    4  N1  UNL     1      18.298 -15.025  21.373  1.00  0.00    -0.199 N 
HETATM    5  C4  UNL     1      16.986 -15.241  21.852  1.00  0.00     0.671 C 
HETATM    6  N2  UNL     1      15.940 -15.222  21.102  1.00  0.00    -0.235 N 
HETATM    7  N3  UNL     1      16.874 -15.494  23.271  1.00  0.00    -0.224 N 
ATOM      8  H22 UNL     1      16.019 -15.044  20.101  1.00  0.00     0.174 HD
ATOM      9  H21 UNL     1      14.993 -15.379  21.448  1.00  0.00     0.174 HD
HETATM   10  C5  UNL     1      18.011 -15.103  24.052  1.00  0.00     0.179 C 
ATOM     11  H3  UNL     1      16.045 -15.920  23.687  1.00  0.00     0.177 HD
HETATM   12  C6  UNL     1      19.303 -15.740  23.521  1.00  0.00     0.169 A 
HETATM   13  N4  UNL     1      19.204 -17.166  23.308  1.00  0.00    -0.056 N 
HETATM   14  C14 UNL     1      19.448 -15.557  22.053  1.00  0.00     0.171 A 
HETATM   15  C12 UNL     1      19.454 -17.069  21.904  1.00  0.00     0.208 A 
ATOM     16  H42 UNL     1      19.797 -17.782  23.864  1.00  0.00     0.278 HD
ATOM     17  H41 UNL     1      18.359 -17.646  23.618  1.00  0.00     0.278 HD
HETATM   18  C13 UNL     1      20.709 -17.668  21.373  1.00  0.00     0.042 C 
BRANCH  12  19
HETATM   19  C7  UNL     1      20.422 -15.340  24.415  1.00  0.00     0.025 C 
HETATM   20  C8  UNL     1      20.083 -14.299  25.421  1.00  0.00     0.007 C 
HETATM   21  C9  UNL     1      21.459 -13.954  25.991  1.00  0.00     0.000 C 
HETATM   22  C10 UNL     1      22.482 -14.478  25.018  1.00  0.00     0.000 C 
HETATM   23  C11 UNL     1      21.639 -14.798  23.769  1.00  0.00     0.007 C 
ENDBRANCH  12  19
ENDBRANCH   3   4
TORSDOF 2
ENDMDL
MODEL 3
REMARK VINA RESULT: -6.707531508      1.067      1.086
REMARK  2 active torsions:
REMARK  status: ('A' for Active; 'I' for Inactive)
REMARK    1  A    between atoms: C3_3  and  N1_4 
REMARK    2  A    between atoms: C6_12  and  C7_13 
ROOT
HETATM    1  C1  UNL     1      16.646 -13.263  18.710  1.00  0.00     0.014 C 
HETATM    2  C2  UNL     1      16.631 -13.682  19.846  1.00  0.00    -0.097 C 
HETATM    3  C3  UNL     1      16.593 -14.181  21.229  1.00  0.00     0.235 C 
ENDROOT
BRANCH   3   4
HETATM    4  N1  UNL     1      17.727 -15.011  21.540  1.00  0.00    -0.199 N 
HETATM    5  C4  UNL     1      17.567 -16.416  21.507  1.00  0.00     0.671 C 
HETATM    6  N2  UNL     1      16.676 -17.016  20.799  1.00  0.00    -0.235 N 
HETATM    7  N3  UNL     1      18.483 -17.168  22.335  1.00  0.00    -0.224 N 
ATOM      8  H22 UNL     1      16.029 -16.486  20.215  1.00  0.00     0.174 HD
ATOM      9  H21 UNL     1      16.560 -18.029  20.775  1.00  0.00     0.174 HD
HETATM   10  C5  UNL     1      19.142 -16.410  23.358  1.00  0.00     0.179 C 
ATOM     11  H3  UNL     1      18.648 -18.165  22.201  1.00  0.00     0.177 HD
HETATM   12  C6  UNL     1      19.867 -15.188  22.774  1.00  0.00     0.169 A 
HETATM   13  N4  UNL     1      20.711 -15.498  21.643  1.00  0.00    -0.056 N 
HETATM   14  C14 UNL     1      18.988 -14.402  21.871  1.00  0.00     0.171 A 
HETATM   15  C12 UNL     1      19.974 -14.666  20.745  1.00  0.00     0.208 A 
ATOM     16  H42 UNL     1      21.715 -15.346  21.731  1.00  0.00     0.278 HD
ATOM     17  H41 UNL     1      20.848 -16.478  21.394  1.00  0.00     0.278 HD
HETATM   18  C13 UNL     1      20.655 -13.469  20.180  1.00  0.00     0.042 C 
BRANCH  12  19
HETATM   19  C7  UNL     1      20.575 -14.493  23.882  1.00  0.00     0.025 C 
HETATM   20  C8  UNL     1      21.906 -15.056  24.231  1.00  0.00     0.007 C 
HETATM   21  C9  UNL     1      22.241 -14.297  25.515  1.00  0.00     0.000 C 
HETATM   22  C10 UNL     1      20.954 -13.702  26.023  1.00  0.00     0.000 C 
HETATM   23  C11 UNL     1      19.883 -14.433  25.190  1.00  0.00     0.007 C 
ENDBRANCH  12  19
ENDBRANCH   3   4
TORSDOF 2
ENDMDL
MODEL 4
REMARK VINA RESULT: -6.624057153      4.053      6.736
REMARK  2 active torsions:
REMARK  status: ('A' for Active; 'I' for Inactive)
REMARK    1  A    between atoms: C3_3  and  N1_4 
REMARK    2  A    between atoms: C6_12  and  C7_13 
ROOT
HETATM    1  C1  UNL     1      12.311 -16.542  21.031  1.00  0.00     0.014 C 
HETATM    2  C2  UNL     1      12.323 -15.443  21.539  1.00  0.00    -0.097 C 
HETATM    3  C3  UNL     1      12.326 -14.116  22.173  1.00  0.00     0.235 C 
ENDROOT
BRANCH   3   4
HETATM    4  N1  UNL     1      13.096 -13.157  21.427  1.00  0.00    -0.199 N 
HETATM    5  C4  UNL     1      12.631 -11.823  21.357  1.00  0.00     0.671 C 
HETATM    6  N2  UNL     1      11.871 -11.285  22.245  1.00  0.00    -0.235 N 
HETATM    7  N3  UNL     1      13.068 -11.070  20.202  1.00  0.00    -0.224 N 
ATOM      8  H22 UNL     1      11.563 -11.816  23.059  1.00  0.00     0.174 HD
ATOM      9  H21 UNL     1      11.536 -10.323  22.194  1.00  0.00     0.174 HD
HETATM   10  C5  UNL     1      13.559 -11.858  19.110  1.00  0.00     0.179 C 
ATOM     11  H3  UNL     1      13.029 -10.051  20.168  1.00  0.00     0.177 HD
HETATM   12  C6  UNL     1      14.684 -12.802  19.559  1.00  0.00     0.169 A 
HETATM   13  N4  UNL     1      15.724 -12.147  20.319  1.00  0.00    -0.056 N 
HETATM   14  C14 UNL     1      14.312 -13.568  20.777  1.00  0.00     0.171 A 
HETATM   15  C12 UNL     1      15.493 -12.932  21.491  1.00  0.00     0.208 A 
ATOM     16  H42 UNL     1      16.666 -12.123  19.930  1.00  0.00     0.278 HD
ATOM     17  H41 UNL     1      15.697 -11.131  20.403  1.00  0.00     0.278 HD
HETATM   18  C13 UNL     1      16.567 -13.863  21.933  1.00  0.00     0.042 C 
BRANCH  12  19
HETATM   19  C7  UNL     1      15.181 -13.536  18.365  1.00  0.00     0.025 C 
HETATM   20  C8  UNL     1      15.276 -15.012  18.528  1.00  0.00     0.007 C 
HETATM   21  C9  UNL     1      16.022 -15.419  17.256  1.00  0.00     0.000 C 
HETATM   22  C10 UNL     1      16.653 -14.171  16.697  1.00  0.00     0.000 C 
HETATM   23  C11 UNL     1      16.523 -13.167  17.859  1.00  0.00     0.007 C 
ENDBRANCH  12  19
ENDBRANCH   3   4
TORSDOF 2
ENDMDL
MODEL 5
REMARK VINA RESULT: -6.557359421      1.395      1.691
REMARK  2 active torsions:
REMARK  status: ('A' for Active; 'I' for Inactive)
REMARK    1  A    between atoms: C3_3  and  N1_4 
REMARK    2  A    between atoms: C6_12  and  C7_13 
ROOT
HETATM    1  C1  UNL     1      14.618 -12.935  21.681  1.00  0.00     0.014 C 
HETATM    2  C2  UNL     1      15.595 -13.032  20.972  1.00  0.00    -0.097 C 
HETATM    3  C3  UNL     1      16.775 -13.132  20.100  1.00  0.00     0.235 C 
ENDROOT
BRANCH   3   4
HETATM    4  N1  UNL     1      17.662 -14.191  20.503  1.00  0.00    -0.199 N 
HETATM    5  C4  UNL     1      17.270 -15.529  20.267  1.00  0.00     0.671 C 
HETATM    6  N2  UNL     1      16.446 -15.879  19.342  1.00  0.00    -0.235 N 
HETATM    7  N3  UNL     1      17.859 -16.516  21.145  1.00  0.00    -0.224 N 
ATOM      8  H22 UNL     1      16.031 -15.184  18.723  1.00  0.00     0.174 HD
ATOM      9  H21 UNL     1      16.163 -16.844  19.173  1.00  0.00     0.174 HD
HETATM   10  C5  UNL     1      18.423 -15.995  22.356  1.00  0.00     0.179 C 
ATOM     11  H3  UNL     1      17.871 -17.510  20.920  1.00  0.00     0.177 HD
HETATM   12  C6  UNL     1      19.451 -14.890  22.067  1.00  0.00     0.169 A 
HETATM   13  N4  UNL     1      20.435 -15.256  21.075  1.00  0.00    -0.056 N 
HETATM   14  C14 UNL     1      18.918 -13.871  21.126  1.00  0.00     0.171 A 
HETATM   15  C12 UNL     1      20.047 -14.221  20.170  1.00  0.00     0.208 A 
ATOM     16  H42 UNL     1      21.413 -15.311  21.359  1.00  0.00     0.278 HD
ATOM     17  H41 UNL     1      20.447 -16.218  20.734  1.00  0.00     0.278 HD
HETATM   18  C13 UNL     1      21.024 -13.133  19.889  1.00  0.00     0.042 C 
BRANCH  12  19
HETATM   19  C7  UNL     1      20.035 -14.447  23.361  1.00  0.00     0.025 C 
HETATM   20  C8  UNL     1      21.434 -14.888  23.604  1.00  0.00     0.007 C 
HETATM   21  C9  UNL     1      21.638 -14.489  25.066  1.00  0.00     0.000 C 
HETATM   22  C10 UNL     1      20.272 -14.258  25.654  1.00  0.00     0.000 C 
HETATM   23  C11 UNL     1      19.332 -14.866  24.595  1.00  0.00     0.007 C 
ENDBRANCH  12  19
ENDBRANCH   3   4
TORSDOF 2
ENDMDL
