MODEL 1
REMARK VINA RESULT: -6.261191090      0.000      0.000
REMARK  1 active torsions:
REMARK  status: ('A' for Active; 'I' for Inactive)
REMARK    1  A    between atoms: C2_2  and  C4_4 
ROOT
HETATM    1  C4  UNL     1      14.212 -14.582  21.029  1.00  0.00     0.024 C 
HETATM    2  C5  UNL     1      14.291 -13.912  19.694  1.00  0.00     0.039 C 
HETATM    3  C6  UNL     1      15.390 -12.900  19.577  1.00  0.00     0.043 A 
HETATM    4  N1  UNL     1      15.196 -11.755  20.430  1.00  0.00    -0.333 N 
ATOM      5  H1  UNL     1      16.048 -11.217  20.590  1.00  0.00     0.165 HD
HETATM    6  C7  UNL     1      14.053 -11.223  21.097  1.00  0.00     0.317 C 
HETATM    7  O1  UNL     1      14.216  -9.988  21.365  1.00  0.00    -0.247 OA
HETATM    8  N2  UNL     1      12.775 -11.731  21.537  1.00  0.00    -0.335 N 
ATOM      9  H2  UNL     1      12.160 -11.045  21.974  1.00  0.00     0.164 HD
HETATM   10  C8  UNL     1      12.242 -13.062  21.448  1.00  0.00     0.142 C 
HETATM   11  C9  UNL     1      11.445 -13.544  22.652  1.00  0.00     0.260 C 
HETATM   12  N3  UNL     1      12.187 -14.811  22.503  1.00  0.00    -0.067 N 
ATOM     13  H31 UNL     1      11.809 -15.593  21.968  1.00  0.00     0.277 HD
ATOM     14  H32 UNL     1      12.314 -15.452  23.285  1.00  0.00     0.277 HD
HETATM   15  C10 UNL     1      13.275 -14.005  21.999  1.00  0.00     0.214 C 
HETATM   16  C11 UNL     1      16.729 -13.192  19.111  1.00  0.00     0.021 A 
HETATM   17  C12 UNL     1      17.072 -14.121  18.002  1.00  0.00     0.008 C 
HETATM   18  C13 UNL     1      15.948 -13.613  17.133  1.00  0.00     0.008 C 
HETATM   19  C14 UNL     1      15.706 -12.528  18.136  1.00  0.00     0.021 A 
ENDROOT
BRANCH   1  20
HETATM   20  C2  UNL     1      13.968 -16.088  20.919  1.00  0.00    -0.016 C 
HETATM   21  C1  UNL     1      15.161 -16.849  21.463  1.00  0.00     0.010 C 
HETATM   22  C3  UNL     1      13.691 -16.543  19.533  1.00  0.00     0.010 C 
ENDBRANCH   1  20
TORSDOF 1
ENDMDL
MODEL 2
REMARK VINA RESULT: -6.243732506      4.768      5.924
REMARK  1 active torsions:
REMARK  status: ('A' for Active; 'I' for Inactive)
REMARK    1  A    between atoms: C2_2  and  C4_4 
ROOT
HETATM    1  C4  UNL     1      19.167 -14.830  23.692  1.00  0.00     0.024 C 
HETATM    2  C5  UNL     1      19.350 -15.129  22.238  1.00  0.00     0.039 C 
HETATM    3  C6  UNL     1      18.621 -14.197  21.320  1.00  0.00     0.043 A 
HETATM    4  N1  UNL     1      17.188 -14.303  21.429  1.00  0.00    -0.333 N 
ATOM      5  H1  UNL     1      16.689 -13.497  21.052  1.00  0.00     0.165 HD
HETATM    6  C7  UNL     1      16.325 -15.309  21.957  1.00  0.00     0.317 C 
HETATM    7  O1  UNL     1      15.156 -15.215  21.459  1.00  0.00    -0.247 OA
HETATM    8  N2  UNL     1      16.450 -16.393  22.904  1.00  0.00    -0.335 N 
ATOM      9  H2  UNL     1      15.609 -16.956  23.032  1.00  0.00     0.164 HD
HETATM   10  C8  UNL     1      17.583 -16.794  23.690  1.00  0.00     0.142 C 
HETATM   11  C9  UNL     1      17.284 -17.237  25.114  1.00  0.00     0.260 C 
HETATM   12  N3  UNL     1      18.454 -16.425  25.500  1.00  0.00    -0.067 N 
ATOM     13  H31 UNL     1      19.384 -16.836  25.591  1.00  0.00     0.277 HD
ATOM     14  H32 UNL     1      18.561 -16.057  26.445  1.00  0.00     0.277 HD
HETATM   15  C10 UNL     1      18.109 -15.571  24.388  1.00  0.00     0.214 C 
HETATM   16  C11 UNL     1      19.181 -12.979  20.773  1.00  0.00     0.021 A 
HETATM   17  C12 UNL     1      20.581 -12.809  20.305  1.00  0.00     0.008 C 
HETATM   18  C13 UNL     1      20.588 -14.148  19.612  1.00  0.00     0.008 C 
HETATM   19  C14 UNL     1      19.121 -14.260  19.885  1.00  0.00     0.021 A 
ENDROOT
BRANCH   1  20
HETATM   20  C2  UNL     1      20.471 -14.938  24.484  1.00  0.00    -0.016 C 
HETATM   21  C1  UNL     1      20.554 -13.820  25.505  1.00  0.00     0.010 C 
HETATM   22  C3  UNL     1      21.686 -14.910  23.631  1.00  0.00     0.010 C 
ENDBRANCH   1  20
TORSDOF 1
ENDMDL
MODEL 3
REMARK VINA RESULT: -6.243659801      3.006      4.586
REMARK  1 active torsions:
REMARK  status: ('A' for Active; 'I' for Inactive)
REMARK    1  A    between atoms: C2_2  and  C4_4 
ROOT
HETATM    1  C4  UNL     1      18.677 -13.671  20.702  1.00  0.00     0.024 C 
HETATM    2  C5  UNL     1      17.704 -14.345  19.788  1.00  0.00     0.039 C 
HETATM    3  C6  UNL     1      16.599 -13.459  19.301  1.00  0.00     0.043 A 
HETATM    4  N1  UNL     1      15.713 -13.031  20.354  1.00  0.00    -0.333 N 
ATOM      5  H1  UNL     1      15.154 -12.214  20.109  1.00  0.00     0.165 HD
HETATM    6  C7  UNL     1      15.459 -13.521  21.669  1.00  0.00     0.317 C 
HETATM    7  O1  UNL     1      14.314 -13.145  22.083  1.00  0.00    -0.247 OA
HETATM    8  N2  UNL     1      16.170 -14.327  22.634  1.00  0.00    -0.335 N 
ATOM      9  H2  UNL     1      15.665 -14.516  23.500  1.00  0.00     0.164 HD
HETATM   10  C8  UNL     1      17.484 -14.902  22.552  1.00  0.00     0.142 C 
HETATM   11  C9  UNL     1      18.308 -14.869  23.831  1.00  0.00     0.260 C 
HETATM   12  N3  UNL     1      19.431 -14.449  22.971  1.00  0.00    -0.067 N 
ATOM     13  H31 UNL     1      20.093 -15.124  22.589  1.00  0.00     0.277 HD
ATOM     14  H32 UNL     1      20.226 -13.931  23.344  1.00  0.00     0.277 HD
HETATM   15  C10 UNL     1      18.434 -13.812  22.142  1.00  0.00     0.214 C 
HETATM   16  C11 UNL     1      16.650 -12.676  18.085  1.00  0.00     0.021 A 
HETATM   17  C12 UNL     1      17.253 -13.119  16.800  1.00  0.00     0.008 C 
HETATM   18  C13 UNL     1      16.656 -14.499  16.912  1.00  0.00     0.008 C 
HETATM   19  C14 UNL     1      15.868 -14.026  18.093  1.00  0.00     0.021 A 
ENDROOT
BRANCH   1  20
HETATM   20  C2  UNL     1      20.129 -14.038  20.391  1.00  0.00    -0.016 C 
HETATM   21  C1  UNL     1      20.543 -13.441  19.060  1.00  0.00     0.010 C 
HETATM   22  C3  UNL     1      20.377 -15.502  20.368  1.00  0.00     0.010 C 
ENDBRANCH   1  20
TORSDOF 1
ENDMDL
MODEL 4
REMARK VINA RESULT: -6.065375229      4.957      6.608
REMARK  1 active torsions:
REMARK  status: ('A' for Active; 'I' for Inactive)
REMARK    1  A    between atoms: C2_2  and  C4_4 
ROOT
HETATM    1  C4  UNL     1      18.568 -15.316  21.473  1.00  0.00     0.024 C 
HETATM    2  C5  UNL     1      18.544 -14.861  22.897  1.00  0.00     0.039 C 
HETATM    3  C6  UNL     1      19.124 -15.842  23.869  1.00  0.00     0.043 A 
HETATM    4  N1  UNL     1      18.355 -17.056  23.972  1.00  0.00    -0.333 N 
ATOM      5  H1  UNL     1      18.874 -17.833  24.381  1.00  0.00     0.165 HD
HETATM    6  C7  UNL     1      17.015 -17.391  23.618  1.00  0.00     0.317 C 
HETATM    7  O1  UNL     1      16.609 -18.405  24.274  1.00  0.00    -0.247 OA
HETATM    8  N2  UNL     1      16.018 -16.870  22.711  1.00  0.00    -0.335 N 
ATOM      9  H2  UNL     1      15.120 -17.352  22.729  1.00  0.00     0.164 HD
HETATM   10  C8  UNL     1      16.107 -15.773  21.789  1.00  0.00     0.142 C 
HETATM   11  C9  UNL     1      15.427 -15.976  20.443  1.00  0.00     0.260 C 
HETATM   12  N3  UNL     1      16.642 -15.378  19.857  1.00  0.00    -0.067 N 
ATOM     13  H31 UNL     1      16.702 -14.380  19.651  1.00  0.00     0.277 HD
ATOM     14  H32 UNL     1      16.917 -15.559  18.892  1.00  0.00     0.277 HD
HETATM   15  C10 UNL     1      17.353 -15.966  20.970  1.00  0.00     0.214 C 
HETATM   16  C11 UNL     1      20.513 -15.870  24.276  1.00  0.00     0.021 A 
HETATM   17  C12 UNL     1      21.361 -14.676  24.530  1.00  0.00     0.008 C 
HETATM   18  C13 UNL     1      20.259 -13.962  25.272  1.00  0.00     0.008 C 
HETATM   19  C14 UNL     1      19.452 -15.221  25.219  1.00  0.00     0.021 A 
ENDROOT
BRANCH   1  20
HETATM   20  C2  UNL     1      18.993 -14.209  20.507  1.00  0.00    -0.016 C 
HETATM   21  C1  UNL     1      20.496 -14.239  20.310  1.00  0.00     0.010 C 
HETATM   22  C3  UNL     1      18.585 -12.851  20.947  1.00  0.00     0.010 C 
ENDBRANCH   1  20
TORSDOF 1
ENDMDL
MODEL 5
REMARK VINA RESULT: -6.011582299      1.949      4.338
REMARK  1 active torsions:
REMARK  status: ('A' for Active; 'I' for Inactive)
REMARK    1  A    between atoms: C2_2  and  C4_4 
ROOT
HETATM    1  C4  UNL     1      14.910 -14.907  19.337  1.00  0.00     0.024 C 
HETATM    2  C5  UNL     1      14.178 -15.760  20.322  1.00  0.00     0.039 C 
HETATM    3  C6  UNL     1      12.686 -15.635  20.257  1.00  0.00     0.043 A 
HETATM    4  N1  UNL     1      12.212 -14.330  20.640  1.00  0.00    -0.333 N 
ATOM      5  H1  UNL     1      11.262 -14.132  20.324  1.00  0.00     0.165 HD
HETATM    6  C7  UNL     1      12.801 -13.258  21.374  1.00  0.00     0.317 C 
HETATM    7  O1  UNL     1      11.907 -12.492  21.861  1.00  0.00    -0.247 OA
HETATM    8  N2  UNL     1      14.144 -12.833  21.695  1.00  0.00    -0.335 N 
ATOM      9  H2  UNL     1      14.208 -12.005  22.286  1.00  0.00     0.164 HD
HETATM   10  C8  UNL     1      15.402 -13.408  21.306  1.00  0.00     0.142 C 
HETATM   11  C9  UNL     1      16.507 -12.420  20.960  1.00  0.00     0.260 C 
HETATM   12  N3  UNL     1      16.786 -13.299  19.808  1.00  0.00    -0.067 N 
ATOM     13  H31 UNL     1      17.490 -14.037  19.855  1.00  0.00     0.277 HD
ATOM     14  H32 UNL     1      17.255 -12.952  18.971  1.00  0.00     0.277 HD
HETATM   15  C10 UNL     1      15.373 -13.599  19.815  1.00  0.00     0.214 C 
HETATM   16  C11 UNL     1      11.828 -16.467  19.439  1.00  0.00     0.021 A 
HETATM   17  C12 UNL     1      12.007 -17.924  19.209  1.00  0.00     0.008 C 
HETATM   18  C13 UNL     1      12.336 -18.186  20.657  1.00  0.00     0.008 C 
HETATM   19  C14 UNL     1      11.961 -16.770  20.965  1.00  0.00     0.021 A 
ENDROOT
BRANCH   1  20
HETATM   20  C2  UNL     1      16.071 -15.644  18.666  1.00  0.00    -0.016 C 
HETATM   21  C1  UNL     1      15.929 -15.576  17.158  1.00  0.00     0.010 C 
HETATM   22  C3  UNL     1      16.187 -17.065  19.082  1.00  0.00     0.010 C 
ENDBRANCH   1  20
TORSDOF 1
ENDMDL
