MODEL 1
REMARK VINA RESULT: -6.348560873      0.000      0.000
REMARK  4 active torsions:
REMARK  status: ('A' for Active; 'I' for Inactive)
REMARK    1  A    between atoms: C2_2  and  C3_3 
REMARK    2  A    between atoms: C3_3  and  N1_4 
REMARK       I    between atoms: N1_4  and  C4_6 
REMARK       I    between atoms: C4_6  and  N3_10 
REMARK       I    between atoms: C5_12  and  N4_13 
REMARK       I    between atoms: C5_12  and  N5_16 
REMARK    3  A    between atoms: N5_16  and  C7_18 
REMARK    4  A    between atoms: C7_18  and  N6_20 
REMARK       I    between atoms: N6_20  and  C8_22 
ROOT
HETATM    1  N1  UNL     1      12.187 -10.280  22.181  1.00  0.00    -0.226 N 
ATOM      2  H1  UNL     1      12.137  -9.276  22.011  1.00  0.00     0.177 HD
HETATM    3  C4  UNL     1      12.577 -11.122  21.111  1.00  0.00     0.686 C 
HETATM    4  N2  UNL     1      12.827 -10.607  19.959  1.00  0.00    -0.234 N 
ATOM      5  H21 UNL     1      13.108 -11.213  19.188  1.00  0.00     0.174 HD
ATOM      6  H22 UNL     1      12.738  -9.598  19.836  1.00  0.00     0.174 HD
HETATM    7  N3  UNL     1      12.698 -12.503  21.278  1.00  0.00    -0.023 N 
ATOM      8  H3  UNL     1      12.255 -12.888  22.113  1.00  0.00     0.203 HD
HETATM    9  C5  UNL     1      13.285 -13.343  20.530  1.00  0.00     0.694 C 
HETATM   10  N4  UNL     1      13.297 -14.711  20.875  1.00  0.00    -0.230 N 
ATOM     11  H4  UNL     1      14.004 -15.067  21.518  1.00  0.00     0.177 HD
HETATM   12  C6  UNL     1      12.305 -15.614  20.317  1.00  0.00     0.165 C 
HETATM   13  N5  UNL     1      13.927 -12.915  19.353  1.00  0.00    -0.166 N 
ATOM     14  H5  UNL     1      13.368 -12.683  18.532  1.00  0.00     0.186 HD
ENDROOT
BRANCH  13  15
HETATM   15  C7  UNL     1      15.342 -12.802  19.291  1.00  0.00     0.193 C 
HETATM   16  S1  UNL     1      16.167 -12.645  20.687  1.00  0.00    -0.040 SA
BRANCH  15  17
HETATM   17  N6  UNL     1      16.013 -12.826  18.048  1.00  0.00    -0.304 N 
HETATM   18  C8  UNL     1      15.525 -12.097  16.954  1.00  0.00     0.219 C 
HETATM   19  C9  UNL     1      16.232 -12.130  15.667  1.00  0.00     0.117 C 
HETATM   20  O1  UNL     1      14.490 -11.412  17.058  1.00  0.00    -0.274 OA
ATOM     21  H6  UNL     1      16.862 -13.382  17.945  1.00  0.00     0.171 HD
ENDBRANCH  15  17
ENDBRANCH  13  15
BRANCH   1  22
HETATM   22  C3  UNL     1      11.856 -10.768  23.498  1.00  0.00     0.137 C 
BRANCH  22  23
HETATM   23  C2  UNL     1      11.043  -9.754  24.288  1.00  0.00     0.016 C 
HETATM   24  C1  UNL     1      11.915  -8.633  24.752  1.00  0.00     0.006 C 
ENDBRANCH  22  23
ENDBRANCH   1  22
TORSDOF 4
ENDMDL
MODEL 2
REMARK VINA RESULT: -6.331628478      2.299      2.576
REMARK  4 active torsions:
REMARK  status: ('A' for Active; 'I' for Inactive)
REMARK    1  A    between atoms: C2_2  and  C3_3 
REMARK    2  A    between atoms: C3_3  and  N1_4 
REMARK       I    between atoms: N1_4  and  C4_6 
REMARK       I    between atoms: C4_6  and  N3_10 
REMARK       I    between atoms: C5_12  and  N4_13 
REMARK       I    between atoms: C5_12  and  N5_16 
REMARK    3  A    between atoms: N5_16  and  C7_18 
REMARK    4  A    between atoms: C7_18  and  N6_20 
REMARK       I    between atoms: N6_20  and  C8_22 
ROOT
HETATM    1  N1  UNL     1      13.338 -10.636  20.979  1.00  0.00    -0.226 N 
ATOM      2  H1  UNL     1      13.474  -9.779  20.442  1.00  0.00     0.177 HD
HETATM    3  C4  UNL     1      13.398 -11.873  20.293  1.00  0.00     0.686 C 
HETATM    4  N2  UNL     1      13.591 -11.883  19.021  1.00  0.00    -0.234 N 
ATOM      5  H21 UNL     1      13.635 -12.774  18.527  1.00  0.00     0.174 HD
ATOM      6  H22 UNL     1      13.697 -10.996  18.528  1.00  0.00     0.174 HD
HETATM    7  N3  UNL     1      13.253 -13.087  20.967  1.00  0.00    -0.023 N 
ATOM      8  H3  UNL     1      12.857 -13.027  21.906  1.00  0.00     0.203 HD
HETATM    9  C5  UNL     1      13.548 -14.255  20.568  1.00  0.00     0.694 C 
HETATM   10  N4  UNL     1      13.324 -15.367  21.407  1.00  0.00    -0.230 N 
ATOM     11  H4  UNL     1      14.022 -15.628  22.103  1.00  0.00     0.177 HD
HETATM   12  C6  UNL     1      12.101 -16.142  21.283  1.00  0.00     0.165 C 
HETATM   13  N5  UNL     1      14.100 -14.447  19.288  1.00  0.00    -0.166 N 
ATOM     14  H5  UNL     1      13.496 -14.398  18.468  1.00  0.00     0.186 HD
ENDROOT
BRANCH  13  15
HETATM   15  C7  UNL     1      15.486 -14.709  19.121  1.00  0.00     0.193 C 
HETATM   16  S1  UNL     1      15.974 -15.451  17.755  1.00  0.00    -0.040 SA
BRANCH  15  17
HETATM   17  N6  UNL     1      16.415 -14.334  20.117  1.00  0.00    -0.304 N 
HETATM   18  C8  UNL     1      16.945 -13.036  20.151  1.00  0.00     0.219 C 
HETATM   19  C9  UNL     1      17.910 -12.658  21.192  1.00  0.00     0.117 C 
HETATM   20  O1  UNL     1      16.606 -12.189  19.304  1.00  0.00    -0.274 OA
ATOM     21  H6  UNL     1      16.705 -15.015  20.818  1.00  0.00     0.171 HD
ENDBRANCH  15  17
ENDBRANCH  13  15
BRANCH   1  22
HETATM   22  C3  UNL     1      13.094 -10.522  22.397  1.00  0.00     0.137 C 
BRANCH  22  23
HETATM   23  C2  UNL     1      11.607 -10.485  22.713  1.00  0.00     0.016 C 
HETATM   24  C1  UNL     1      11.288 -11.415  23.837  1.00  0.00     0.006 C 
ENDBRANCH  22  23
ENDBRANCH   1  22
TORSDOF 4
ENDMDL
MODEL 3
REMARK VINA RESULT: -6.138122626      0.939      1.156
REMARK  4 active torsions:
REMARK  status: ('A' for Active; 'I' for Inactive)
REMARK    1  A    between atoms: C2_2  and  C3_3 
REMARK    2  A    between atoms: C3_3  and  N1_4 
REMARK       I    between atoms: N1_4  and  C4_6 
REMARK       I    between atoms: C4_6  and  N3_10 
REMARK       I    between atoms: C5_12  and  N4_13 
REMARK       I    between atoms: C5_12  and  N5_16 
REMARK    3  A    between atoms: N5_16  and  C7_18 
REMARK    4  A    between atoms: C7_18  and  N6_20 
REMARK       I    between atoms: N6_20  and  C8_22 
ROOT
HETATM    1  N1  UNL     1      12.585 -10.189  21.765  1.00  0.00    -0.226 N 
ATOM      2  H1  UNL     1      12.346  -9.300  21.326  1.00  0.00     0.177 HD
HETATM    3  C4  UNL     1      12.988 -11.261  20.934  1.00  0.00     0.686 C 
HETATM    4  N2  UNL     1      13.012 -11.098  19.657  1.00  0.00    -0.234 N 
ATOM      5  H21 UNL     1      13.302 -11.870  19.058  1.00  0.00     0.174 HD
ATOM      6  H22 UNL     1      12.739 -10.196  19.267  1.00  0.00     0.174 HD
HETATM    7  N3  UNL     1      13.361 -12.496  21.468  1.00  0.00    -0.023 N 
ATOM      8  H3  UNL     1      13.089 -12.659  22.437  1.00  0.00     0.203 HD
HETATM    9  C5  UNL     1      13.993 -13.443  20.906  1.00  0.00     0.694 C 
HETATM   10  N4  UNL     1      14.278 -14.625  21.622  1.00  0.00    -0.230 N 
ATOM     11  H4  UNL     1      15.104 -14.672  22.218  1.00  0.00     0.177 HD
HETATM   12  C6  UNL     1      13.397 -15.776  21.514  1.00  0.00     0.165 C 
HETATM   13  N5  UNL     1      14.413 -13.319  19.569  1.00  0.00    -0.166 N 
ATOM     14  H5  UNL     1      13.732 -13.425  18.817  1.00  0.00     0.186 HD
ENDROOT
BRANCH  13  15
HETATM   15  C7  UNL     1      15.771 -13.050  19.251  1.00  0.00     0.193 C 
HETATM   16  S1  UNL     1      16.810 -12.764  20.473  1.00  0.00    -0.040 SA
BRANCH  15  17
HETATM   17  N6  UNL     1      16.207 -13.033  17.907  1.00  0.00    -0.304 N 
HETATM   18  C8  UNL     1      15.516 -12.291  16.938  1.00  0.00     0.219 C 
HETATM   19  C9  UNL     1      15.979 -12.281  15.544  1.00  0.00     0.117 C 
HETATM   20  O1  UNL     1      14.505 -11.631  17.244  1.00  0.00    -0.274 OA
ATOM     21  H6  UNL     1      17.032 -13.568  17.639  1.00  0.00     0.171 HD
ENDBRANCH  15  17
ENDBRANCH  13  15
BRANCH   1  22
HETATM   22  C3  UNL     1      12.496 -10.286  23.203  1.00  0.00     0.137 C 
BRANCH  22  23
HETATM   23  C2  UNL     1      11.088 -10.633  23.659  1.00  0.00     0.016 C 
HETATM   24  C1  UNL     1      11.009 -12.068  24.067  1.00  0.00     0.006 C 
ENDBRANCH  22  23
ENDBRANCH   1  22
TORSDOF 4
ENDMDL
MODEL 4
REMARK VINA RESULT: -6.087214128      1.507      1.588
REMARK  4 active torsions:
REMARK  status: ('A' for Active; 'I' for Inactive)
REMARK    1  A    between atoms: C2_2  and  C3_3 
REMARK    2  A    between atoms: C3_3  and  N1_4 
REMARK       I    between atoms: N1_4  and  C4_6 
REMARK       I    between atoms: C4_6  and  N3_10 
REMARK       I    between atoms: C5_12  and  N4_13 
REMARK       I    between atoms: C5_12  and  N5_16 
REMARK    3  A    between atoms: N5_16  and  C7_18 
REMARK    4  A    between atoms: C7_18  and  N6_20 
REMARK       I    between atoms: N6_20  and  C8_22 
ROOT
HETATM    1  N1  UNL     1      12.215 -11.677  22.061  1.00  0.00    -0.226 N 
ATOM      2  H1  UNL     1      12.383 -10.672  22.085  1.00  0.00     0.177 HD
HETATM    3  C4  UNL     1      12.728 -12.417  20.968  1.00  0.00     0.686 C 
HETATM    4  N2  UNL     1      13.360 -11.804  20.030  1.00  0.00    -0.234 N 
ATOM      5  H21 UNL     1      13.730 -12.337  19.243  1.00  0.00     0.174 HD
ATOM      6  H22 UNL     1      13.480 -10.794  20.090  1.00  0.00     0.174 HD
HETATM    7  N3  UNL     1      12.563 -13.801  20.885  1.00  0.00    -0.023 N 
ATOM      8  H3  UNL     1      11.854 -14.200  21.501  1.00  0.00     0.203 HD
HETATM    9  C5  UNL     1      13.177 -14.628  20.144  1.00  0.00     0.694 C 
HETATM   10  N4  UNL     1      12.864 -16.003  20.208  1.00  0.00    -0.230 N 
ATOM     11  H4  UNL     1      13.302 -16.592  20.915  1.00  0.00     0.177 HD
HETATM   12  C6  UNL     1      11.918 -16.581  19.268  1.00  0.00     0.165 C 
HETATM   13  N5  UNL     1      14.174 -14.181  19.257  1.00  0.00    -0.166 N 
ATOM     14  H5  UNL     1      13.903 -13.717  18.390  1.00  0.00     0.186 HD
ENDROOT
BRANCH  13  15
HETATM   15  C7  UNL     1      15.551 -14.365  19.550  1.00  0.00     0.193 C 
HETATM   16  S1  UNL     1      15.977 -14.693  21.088  1.00  0.00    -0.040 SA
BRANCH  15  17
HETATM   17  N6  UNL     1      16.524 -14.268  18.531  1.00  0.00    -0.304 N 
HETATM   18  C8  UNL     1      16.689 -13.078  17.807  1.00  0.00     0.219 C 
HETATM   19  C9  UNL     1      17.705 -12.989  16.750  1.00  0.00     0.117 C 
HETATM   20  O1  UNL     1      15.980 -12.084  18.050  1.00  0.00    -0.274 OA
ATOM     21  H6  UNL     1      17.114 -15.073  18.319  1.00  0.00     0.171 HD
ENDBRANCH  15  17
ENDBRANCH  13  15
BRANCH   1  22
HETATM   22  C3  UNL     1      11.465 -12.270  23.143  1.00  0.00     0.137 C 
BRANCH  22  23
HETATM   23  C2  UNL     1      11.150 -11.258  24.232  1.00  0.00     0.016 C 
HETATM   24  C1  UNL     1      11.652  -9.904  23.849  1.00  0.00     0.006 C 
ENDBRANCH  22  23
ENDBRANCH   1  22
TORSDOF 4
ENDMDL
MODEL 5
REMARK VINA RESULT: -6.059210115      1.068      1.068
REMARK  4 active torsions:
REMARK  status: ('A' for Active; 'I' for Inactive)
REMARK    1  A    between atoms: C2_2  and  C3_3 
REMARK    2  A    between atoms: C3_3  and  N1_4 
REMARK       I    between atoms: N1_4  and  C4_6 
REMARK       I    between atoms: C4_6  and  N3_10 
REMARK       I    between atoms: C5_12  and  N4_13 
REMARK       I    between atoms: C5_12  and  N5_16 
REMARK    3  A    between atoms: N5_16  and  C7_18 
REMARK    4  A    between atoms: C7_18  and  N6_20 
REMARK       I    between atoms: N6_20  and  C8_22 
ROOT
HETATM    1  N1  UNL     1      12.058 -10.383  22.322  1.00  0.00    -0.226 N 
ATOM      2  H1  UNL     1      12.020  -9.366  22.247  1.00  0.00     0.177 HD
HETATM    3  C4  UNL     1      12.524 -11.120  21.207  1.00  0.00     0.686 C 
HETATM    4  N2  UNL     1      12.855 -10.498  20.130  1.00  0.00    -0.234 N 
ATOM      5  H21 UNL     1      13.190 -11.029  19.327  1.00  0.00     0.174 HD
ATOM      6  H22 UNL     1      12.775  -9.482  20.099  1.00  0.00     0.174 HD
HETATM    7  N3  UNL     1      12.633 -12.511  21.249  1.00  0.00    -0.023 N 
ATOM      8  H3  UNL     1      12.132 -12.972  22.009  1.00  0.00     0.203 HD
HETATM    9  C5  UNL     1      13.272 -13.279  20.467  1.00  0.00     0.694 C 
HETATM   10  N4  UNL     1      13.260 -14.674  20.679  1.00  0.00    -0.230 N 
ATOM     11  H4  UNL     1      13.919 -15.095  21.333  1.00  0.00     0.177 HD
HETATM   12  C6  UNL     1      12.310 -15.514  19.968  1.00  0.00     0.165 C 
HETATM   13  N5  UNL     1      13.996 -12.745  19.385  1.00  0.00    -0.166 N 
ATOM     14  H5  UNL     1      13.497 -12.431  18.552  1.00  0.00     0.186 HD
ENDROOT
BRANCH  13  15
HETATM   15  C7  UNL     1      15.412 -12.635  19.435  1.00  0.00     0.193 C 
HETATM   16  S1  UNL     1      16.137 -12.640  20.894  1.00  0.00    -0.040 SA
BRANCH  15  17
HETATM   17  N6  UNL     1      16.169 -12.527  18.247  1.00  0.00    -0.304 N 
HETATM   18  C8  UNL     1      16.294 -13.617  17.374  1.00  0.00     0.219 C 
HETATM   19  C9  UNL     1      17.083 -13.492  16.141  1.00  0.00     0.117 C 
HETATM   20  O1  UNL     1      15.740 -14.703  17.629  1.00  0.00    -0.274 OA
ATOM     21  H6  UNL     1      16.629 -11.645  18.022  1.00  0.00     0.171 HD
ENDBRANCH  15  17
ENDBRANCH  13  15
BRANCH   1  22
HETATM   22  C3  UNL     1      11.634 -10.993  23.560  1.00  0.00     0.137 C 
BRANCH  22  23
HETATM   23  C2  UNL     1      11.008  -9.978  24.504  1.00  0.00     0.016 C 
HETATM   24  C1  UNL     1      11.871  -8.763  24.612  1.00  0.00     0.006 C 
ENDBRANCH  22  23
ENDBRANCH   1  22
TORSDOF 4
ENDMDL
