MODEL 1
REMARK VINA RESULT: -5.622077097      0.000      0.000
REMARK  8 active torsions:
REMARK  status: ('A' for Active; 'I' for Inactive)
REMARK    1  A    between atoms: C3_3  and  C4_4 
REMARK    2  A    between atoms: C4_4  and  N1_5 
REMARK    3  A    between atoms: N1_5  and  C5_7 
REMARK    4  A    between atoms: C5_7  and  N2_9 
REMARK    5  A    between atoms: N2_9  and  N3_11 
REMARK    6  A    between atoms: N3_11  and  C6_13 
REMARK    7  A    between atoms: C6_13  and  N4_15 
REMARK    8  A    between atoms: N4_15  and  C7_17 
ROOT
HETATM    1  C1  UNL     1      11.089 -11.176  24.356  1.00  0.00     0.112 C 
HETATM    2  C2  UNL     1      11.639 -10.864  23.035  1.00  0.00    -0.109 C 
HETATM    3  C3  UNL     1      12.096 -10.594  21.951  1.00  0.00    -0.087 C 
ENDROOT
BRANCH   3   4
HETATM    4  C4  UNL     1      12.633 -10.254  20.632  1.00  0.00     0.216 C 
BRANCH   4   5
HETATM    5  N1  UNL     1      13.300 -11.411  20.032  1.00  0.00    -0.356 N 
ATOM      6  H1  UNL     1      13.045 -11.687  19.084  1.00  0.00     0.162 HD
BRANCH   5   7
HETATM    7  C5  UNL     1      14.277 -12.157  20.710  1.00  0.00     0.187 C 
HETATM    8  S1  UNL     1      13.878 -13.627  21.320  1.00  0.00    -0.040 SA
BRANCH   7   9
HETATM    9  N2  UNL     1      15.582 -11.629  20.854  1.00  0.00    -0.274 N 
ATOM     10  H2  UNL     1      15.750 -10.640  20.669  1.00  0.00     0.189 HD
BRANCH   9  11
HETATM   11  N3  UNL     1      16.638 -12.447  21.249  1.00  0.00    -0.274 N 
ATOM     12  H3  UNL     1      16.738 -12.664  22.240  1.00  0.00     0.189 HD
BRANCH  11  13
HETATM   13  C6  UNL     1      17.576 -12.993  20.346  1.00  0.00     0.186 C 
HETATM   14  S2  UNL     1      17.088 -13.696  18.968  1.00  0.00    -0.040 SA
BRANCH  13  15
HETATM   15  N4  UNL     1      18.957 -12.928  20.642  1.00  0.00    -0.362 N 
ATOM     16  H4  UNL     1      19.309 -12.141  21.189  1.00  0.00     0.162 HD
BRANCH  15  17
HETATM   17  C7  UNL     1      19.886 -13.947  20.193  1.00  0.00     0.076 C 
HETATM   18  C8  UNL     1      20.570 -14.612  21.355  1.00  0.00     0.032 C 
HETATM   19  C9  UNL     1      20.866 -13.255  19.271  1.00  0.00     0.032 C 
ENDBRANCH  15  17
ENDBRANCH  13  15
ENDBRANCH  11  13
ENDBRANCH   9  11
ENDBRANCH   7   9
ENDBRANCH   5   7
ENDBRANCH   4   5
ENDBRANCH   3   4
TORSDOF 8
ENDMDL
MODEL 2
REMARK VINA RESULT: -5.581452377      2.692      7.239
REMARK  8 active torsions:
REMARK  status: ('A' for Active; 'I' for Inactive)
REMARK    1  A    between atoms: C3_3  and  C4_4 
REMARK    2  A    between atoms: C4_4  and  N1_5 
REMARK    3  A    between atoms: N1_5  and  C5_7 
REMARK    4  A    between atoms: C5_7  and  N2_9 
REMARK    5  A    between atoms: N2_9  and  N3_11 
REMARK    6  A    between atoms: N3_11  and  C6_13 
REMARK    7  A    between atoms: C6_13  and  N4_15 
REMARK    8  A    between atoms: N4_15  and  C7_17 
ROOT
HETATM    1  C1  UNL     1      20.936 -13.639  26.150  1.00  0.00     0.112 C 
HETATM    2  C2  UNL     1      20.120 -14.199  25.070  1.00  0.00    -0.109 C 
HETATM    3  C3  UNL     1      19.436 -14.658  24.188  1.00  0.00    -0.087 C 
ENDROOT
BRANCH   3   4
HETATM    4  C4  UNL     1      18.605 -15.233  23.129  1.00  0.00     0.216 C 
BRANCH   4   5
HETATM    5  N1  UNL     1      17.229 -14.743  23.228  1.00  0.00    -0.356 N 
ATOM      6  H1  UNL     1      16.741 -14.828  24.119  1.00  0.00     0.162 HD
BRANCH   5   7
HETATM    7  C5  UNL     1      16.554 -14.161  22.144  1.00  0.00     0.187 C 
HETATM    8  S1  UNL     1      17.359 -13.110  21.175  1.00  0.00    -0.040 SA
BRANCH   7   9
HETATM    9  N2  UNL     1      15.199 -14.490  21.909  1.00  0.00    -0.274 N 
ATOM     10  H2  UNL     1      14.950 -15.438  21.626  1.00  0.00     0.189 HD
BRANCH   9  11
HETATM   11  N3  UNL     1      14.200 -13.531  22.060  1.00  0.00    -0.274 N 
ATOM     12  H3  UNL     1      14.445 -12.641  22.495  1.00  0.00     0.189 HD
BRANCH  11  13
HETATM   13  C6  UNL     1      12.866 -13.726  21.640  1.00  0.00     0.186 C 
HETATM   14  S2  UNL     1      12.502 -14.850  20.530  1.00  0.00    -0.040 SA
BRANCH  13  15
HETATM   15  N4  UNL     1      11.833 -12.934  22.192  1.00  0.00    -0.362 N 
ATOM     16  H4  UNL     1      10.873 -13.275  22.154  1.00  0.00     0.162 HD
BRANCH  15  17
HETATM   17  C7  UNL     1      12.100 -11.649  22.812  1.00  0.00     0.076 C 
HETATM   18  C8  UNL     1      11.157 -11.389  23.954  1.00  0.00     0.032 C 
HETATM   19  C9  UNL     1      11.974 -10.613  21.718  1.00  0.00     0.032 C 
ENDBRANCH  15  17
ENDBRANCH  13  15
ENDBRANCH  11  13
ENDBRANCH   9  11
ENDBRANCH   7   9
ENDBRANCH   5   7
ENDBRANCH   4   5
ENDBRANCH   3   4
TORSDOF 8
ENDMDL
MODEL 3
REMARK VINA RESULT: -5.445574774      2.950      7.230
REMARK  8 active torsions:
REMARK  status: ('A' for Active; 'I' for Inactive)
REMARK    1  A    between atoms: C3_3  and  C4_4 
REMARK    2  A    between atoms: C4_4  and  N1_5 
REMARK    3  A    between atoms: N1_5  and  C5_7 
REMARK    4  A    between atoms: C5_7  and  N2_9 
REMARK    5  A    between atoms: N2_9  and  N3_11 
REMARK    6  A    between atoms: N3_11  and  C6_13 
REMARK    7  A    between atoms: C6_13  and  N4_15 
REMARK    8  A    between atoms: N4_15  and  C7_17 
ROOT
HETATM    1  C1  UNL     1      20.962 -13.634  26.198  1.00  0.00     0.112 C 
HETATM    2  C2  UNL     1      20.142 -14.216  25.133  1.00  0.00    -0.109 C 
HETATM    3  C3  UNL     1      19.461 -14.705  24.265  1.00  0.00    -0.087 C 
ENDROOT
BRANCH   3   4
HETATM    4  C4  UNL     1      18.648 -15.314  23.211  1.00  0.00     0.216 C 
BRANCH   4   5
HETATM    5  N1  UNL     1      17.281 -14.793  23.246  1.00  0.00    -0.356 N 
ATOM      6  H1  UNL     1      16.710 -14.970  24.073  1.00  0.00     0.162 HD
BRANCH   5   7
HETATM    7  C5  UNL     1      16.724 -14.058  22.188  1.00  0.00     0.187 C 
HETATM    8  S1  UNL     1      17.718 -13.434  21.041  1.00  0.00    -0.040 SA
BRANCH   7   9
HETATM    9  N2  UNL     1      15.323 -13.869  22.131  1.00  0.00    -0.274 N 
ATOM     10  H2  UNL     1      14.926 -12.960  22.366  1.00  0.00     0.189 HD
BRANCH   9  11
HETATM   11  N3  UNL     1      14.482 -14.914  21.756  1.00  0.00    -0.274 N 
ATOM     12  H3  UNL     1      14.897 -15.829  21.579  1.00  0.00     0.189 HD
BRANCH  11  13
HETATM   13  C6  UNL     1      13.085 -14.772  21.610  1.00  0.00     0.186 C 
HETATM   14  S2  UNL     1      12.318 -15.396  20.325  1.00  0.00    -0.040 SA
BRANCH  13  15
HETATM   15  N4  UNL     1      12.343 -14.078  22.593  1.00  0.00    -0.362 N 
ATOM     16  H4  UNL     1      12.316 -14.446  23.545  1.00  0.00     0.162 HD
BRANCH  15  17
HETATM   17  C7  UNL     1      11.621 -12.857  22.289  1.00  0.00     0.076 C 
HETATM   18  C8  UNL     1      12.491 -11.879  21.549  1.00  0.00     0.032 C 
HETATM   19  C9  UNL     1      11.135 -12.306  23.610  1.00  0.00     0.032 C 
ENDBRANCH  15  17
ENDBRANCH  13  15
ENDBRANCH  11  13
ENDBRANCH   9  11
ENDBRANCH   7   9
ENDBRANCH   5   7
ENDBRANCH   4   5
ENDBRANCH   3   4
TORSDOF 8
ENDMDL
MODEL 4
REMARK VINA RESULT: -5.391344065      0.499      1.039
REMARK  8 active torsions:
REMARK  status: ('A' for Active; 'I' for Inactive)
REMARK    1  A    between atoms: C3_3  and  C4_4 
REMARK    2  A    between atoms: C4_4  and  N1_5 
REMARK    3  A    between atoms: N1_5  and  C5_7 
REMARK    4  A    between atoms: C5_7  and  N2_9 
REMARK    5  A    between atoms: N2_9  and  N3_11 
REMARK    6  A    between atoms: N3_11  and  C6_13 
REMARK    7  A    between atoms: C6_13  and  N4_15 
REMARK    8  A    between atoms: N4_15  and  C7_17 
ROOT
HETATM    1  C1  UNL     1      11.177 -11.006  24.351  1.00  0.00     0.112 C 
HETATM    2  C2  UNL     1      11.743 -10.757  23.023  1.00  0.00    -0.109 C 
HETATM    3  C3  UNL     1      12.203 -10.563  21.924  1.00  0.00    -0.087 C 
ENDROOT
BRANCH   3   4
HETATM    4  C4  UNL     1      12.774 -10.344  20.594  1.00  0.00     0.216 C 
BRANCH   4   5
HETATM    5  N1  UNL     1      13.400 -11.568  20.092  1.00  0.00    -0.356 N 
ATOM      6  H1  UNL     1      13.075 -11.957  19.207  1.00  0.00     0.162 HD
BRANCH   5   7
HETATM    7  C5  UNL     1      14.430 -12.228  20.780  1.00  0.00     0.187 C 
HETATM    8  S1  UNL     1      14.076 -13.576  21.645  1.00  0.00    -0.040 SA
BRANCH   7   9
HETATM    9  N2  UNL     1      15.749 -11.719  20.715  1.00  0.00    -0.274 N 
ATOM     10  H2  UNL     1      15.900 -10.729  20.525  1.00  0.00     0.189 HD
BRANCH   9  11
HETATM   11  N3  UNL     1      16.843 -12.560  20.909  1.00  0.00    -0.274 N 
ATOM     12  H3  UNL     1      17.252 -12.614  21.841  1.00  0.00     0.189 HD
BRANCH  11  13
HETATM   13  C6  UNL     1      17.413 -13.341  19.881  1.00  0.00     0.186 C 
HETATM   14  S2  UNL     1      16.811 -13.298  18.375  1.00  0.00    -0.040 SA
BRANCH  13  15
HETATM   15  N4  UNL     1      18.522 -14.172  20.162  1.00  0.00    -0.362 N 
ATOM     16  H4  UNL     1      18.392 -15.184  20.176  1.00  0.00     0.162 HD
BRANCH  15  17
HETATM   17  C7  UNL     1      19.839 -13.627  20.433  1.00  0.00     0.076 C 
HETATM   18  C8  UNL     1      20.618 -13.430  19.162  1.00  0.00     0.032 C 
HETATM   19  C9  UNL     1      20.517 -14.595  21.376  1.00  0.00     0.032 C 
ENDBRANCH  15  17
ENDBRANCH  13  15
ENDBRANCH  11  13
ENDBRANCH   9  11
ENDBRANCH   7   9
ENDBRANCH   5   7
ENDBRANCH   4   5
ENDBRANCH   3   4
TORSDOF 8
ENDMDL
MODEL 5
REMARK VINA RESULT: -5.316526798      2.764      7.174
REMARK  8 active torsions:
REMARK  status: ('A' for Active; 'I' for Inactive)
REMARK    1  A    between atoms: C3_3  and  C4_4 
REMARK    2  A    between atoms: C4_4  and  N1_5 
REMARK    3  A    between atoms: N1_5  and  C5_7 
REMARK    4  A    between atoms: C5_7  and  N2_9 
REMARK    5  A    between atoms: N2_9  and  N3_11 
REMARK    6  A    between atoms: N3_11  and  C6_13 
REMARK    7  A    between atoms: C6_13  and  N4_15 
REMARK    8  A    between atoms: N4_15  and  C7_17 
ROOT
HETATM    1  C1  UNL     1      20.915 -13.643  26.519  1.00  0.00     0.112 C 
HETATM    2  C2  UNL     1      20.253 -14.164  25.321  1.00  0.00    -0.109 C 
HETATM    3  C3  UNL     1      19.699 -14.582  24.332  1.00  0.00    -0.087 C 
ENDROOT
BRANCH   3   4
HETATM    4  C4  UNL     1      19.011 -15.092  23.146  1.00  0.00     0.216 C 
BRANCH   4   5
HETATM    5  N1  UNL     1      17.560 -15.001  23.310  1.00  0.00    -0.356 N 
ATOM      6  H1  UNL     1      17.174 -14.982  24.255  1.00  0.00     0.162 HD
BRANCH   5   7
HETATM    7  C5  UNL     1      16.677 -14.939  22.221  1.00  0.00     0.187 C 
HETATM    8  S1  UNL     1      16.672 -16.162  21.128  1.00  0.00    -0.040 SA
BRANCH   7   9
HETATM    9  N2  UNL     1      15.812 -13.827  22.087  1.00  0.00    -0.274 N 
ATOM     10  H2  UNL     1      16.204 -12.889  22.002  1.00  0.00     0.189 HD
BRANCH   9  11
HETATM   11  N3  UNL     1      14.431 -14.002  22.068  1.00  0.00    -0.274 N 
ATOM     12  H3  UNL     1      14.020 -14.683  22.707  1.00  0.00     0.189 HD
BRANCH  11  13
HETATM   13  C6  UNL     1      13.569 -13.286  21.210  1.00  0.00     0.186 C 
HETATM   14  S2  UNL     1      14.003 -12.962  19.681  1.00  0.00    -0.040 SA
BRANCH  13  15
HETATM   15  N4  UNL     1      12.313 -12.843  21.685  1.00  0.00    -0.362 N 
ATOM     16  H4  UNL     1      11.466 -13.303  21.350  1.00  0.00     0.162 HD
BRANCH  15  17
HETATM   17  C7  UNL     1      12.194 -11.753  22.635  1.00  0.00     0.076 C 
HETATM   18  C8  UNL     1      11.141 -12.044  23.669  1.00  0.00     0.032 C 
HETATM   19  C9  UNL     1      11.876 -10.515  21.828  1.00  0.00     0.032 C 
ENDBRANCH  15  17
ENDBRANCH  13  15
ENDBRANCH  11  13
ENDBRANCH   9  11
ENDBRANCH   7   9
ENDBRANCH   5   7
ENDBRANCH   4   5
ENDBRANCH   3   4
TORSDOF 8
ENDMDL
