MODEL 1
REMARK VINA RESULT: -6.389226535      0.000      0.000
REMARK  3 active torsions:
REMARK  status: ('A' for Active; 'I' for Inactive)
REMARK       I    between atoms: N1_2  and  C2_4 
REMARK       I    between atoms: C2_4  and  N3_8 
REMARK    1  A    between atoms: N3_8  and  C3_10 
REMARK    2  A    between atoms: C3_10  and  C4_11 
REMARK       I    between atoms: N4_15  and  C8_16 
REMARK       I    between atoms: C8_16  and  N5_18 
REMARK    3  A    between atoms: N5_18  and  C9_20 
ROOT
HETATM    1  C4  UNL     1      22.058 -14.829  25.051  1.00  0.00     0.107 C 
HETATM    2  C5  UNL     1      21.664 -13.860  26.154  1.00  0.00     0.028 C 
HETATM    3  C6  UNL     1      20.316 -14.433  26.545  1.00  0.00     0.022 C 
HETATM    4  C7  UNL     1      19.883 -15.302  25.348  1.00  0.00     0.128 C 
HETATM    5  N4  UNL     1      20.811 -14.903  24.322  1.00  0.00    -0.328 N 
HETATM    6  C8  UNL     1      20.486 -14.670  22.977  1.00  0.00     0.319 C 
HETATM    7  O1  UNL     1      21.353 -14.317  22.108  1.00  0.00    -0.247 OA
HETATM    8  N5  UNL     1      19.164 -14.814  22.507  1.00  0.00    -0.335 N 
ATOM      9  H5  UNL     1      18.443 -15.094  23.171  1.00  0.00     0.165 HD
ENDROOT
BRANCH   1  10
HETATM   10  C3  UNL     1      23.216 -14.354  24.246  1.00  0.00     0.163 C 
BRANCH  10  11
HETATM   11  N3  UNL     1      23.872 -15.514  23.690  1.00  0.00    -0.225 N 
HETATM   12  C2  UNL     1      24.236 -16.679  24.390  1.00  0.00     0.667 C 
HETATM   13  N1  UNL     1      23.443 -17.852  24.157  1.00  0.00    -0.231 N 
HETATM   14  N2  UNL     1      25.201 -16.816  25.218  1.00  0.00    -0.235 N 
HETATM   15  C1  UNL     1      23.899 -18.846  23.197  1.00  0.00     0.165 C 
ATOM     16  H1  UNL     1      22.566 -17.987  24.660  1.00  0.00     0.177 HD
ATOM     17  H22 UNL     1      25.466 -17.661  25.726  1.00  0.00     0.174 HD
ATOM     18  H21 UNL     1      25.766 -15.983  25.384  1.00  0.00     0.174 HD
ATOM     19  H3  UNL     1      24.093 -15.485  22.694  1.00  0.00     0.177 HD
ENDBRANCH  10  11
ENDBRANCH   1  10
BRANCH   8  20
HETATM   20  C9  UNL     1      18.778 -14.584  21.127  1.00  0.00     0.023 C 
HETATM   21  C10 UNL     1      19.984 -14.298  20.246  1.00  0.00     0.037 C 
HETATM   22  C11 UNL     1      17.834 -13.409  20.999  1.00  0.00     0.037 C 
HETATM   23  C12 UNL     1      18.092 -15.808  20.562  1.00  0.00     0.037 C 
ENDBRANCH   8  20
TORSDOF 3
ENDMDL
MODEL 2
REMARK VINA RESULT: -6.267103721      0.867      1.420
REMARK  3 active torsions:
REMARK  status: ('A' for Active; 'I' for Inactive)
REMARK       I    between atoms: N1_2  and  C2_4 
REMARK       I    between atoms: C2_4  and  N3_8 
REMARK    1  A    between atoms: N3_8  and  C3_10 
REMARK    2  A    between atoms: C3_10  and  C4_11 
REMARK       I    between atoms: N4_15  and  C8_16 
REMARK       I    between atoms: C8_16  and  N5_18 
REMARK    3  A    between atoms: N5_18  and  C9_20 
ROOT
HETATM    1  C4  UNL     1      21.858 -15.618  24.613  1.00  0.00     0.107 C 
HETATM    2  C5  UNL     1      21.233 -15.229  25.943  1.00  0.00     0.028 C 
HETATM    3  C6  UNL     1      20.039 -16.162  25.960  1.00  0.00     0.022 C 
HETATM    4  C7  UNL     1      19.837 -16.590  24.494  1.00  0.00     0.128 C 
HETATM    5  N4  UNL     1      20.676 -15.662  23.781  1.00  0.00    -0.328 N 
HETATM    6  C8  UNL     1      20.338 -15.013  22.583  1.00  0.00     0.319 C 
HETATM    7  O1  UNL     1      21.124 -14.197  21.994  1.00  0.00    -0.247 OA
HETATM    8  N5  UNL     1      19.092 -15.231  21.958  1.00  0.00    -0.335 N 
ATOM      9  H5  UNL     1      18.437 -15.876  22.399  1.00  0.00     0.165 HD
ENDROOT
BRANCH   1  10
HETATM   10  C3  UNL     1      22.899 -14.658  24.156  1.00  0.00     0.163 C 
BRANCH  10  11
HETATM   11  N3  UNL     1      24.009 -15.423  23.640  1.00  0.00    -0.225 N 
HETATM   12  C2  UNL     1      24.511 -16.624  24.173  1.00  0.00     0.667 C 
HETATM   13  N1  UNL     1      24.218 -17.829  23.451  1.00  0.00    -0.231 N 
HETATM   14  N2  UNL     1      25.205 -16.770  25.238  1.00  0.00    -0.235 N 
HETATM   15  C1  UNL     1      25.205 -18.369  22.528  1.00  0.00     0.165 C 
ATOM     16  H1  UNL     1      23.324 -18.302  23.583  1.00  0.00     0.177 HD
ATOM     17  H22 UNL     1      25.570 -17.641  25.625  1.00  0.00     0.174 HD
ATOM     18  H21 UNL     1      25.414 -15.914  25.752  1.00  0.00     0.174 HD
ATOM     19  H3  UNL     1      24.474 -15.057  22.809  1.00  0.00     0.177 HD
ENDBRANCH  10  11
ENDBRANCH   1  10
BRANCH   8  20
HETATM   20  C9  UNL     1      18.696 -14.586  20.721  1.00  0.00     0.023 C 
HETATM   21  C10 UNL     1      17.460 -15.236  20.119  1.00  0.00     0.037 C 
HETATM   22  C11 UNL     1      19.793 -14.647  19.680  1.00  0.00     0.037 C 
HETATM   23  C12 UNL     1      18.358 -13.133  20.970  1.00  0.00     0.037 C 
ENDBRANCH   8  20
TORSDOF 3
ENDMDL
MODEL 3
REMARK VINA RESULT: -6.213110717      1.293      2.002
REMARK  3 active torsions:
REMARK  status: ('A' for Active; 'I' for Inactive)
REMARK       I    between atoms: N1_2  and  C2_4 
REMARK       I    between atoms: C2_4  and  N3_8 
REMARK    1  A    between atoms: N3_8  and  C3_10 
REMARK    2  A    between atoms: C3_10  and  C4_11 
REMARK       I    between atoms: N4_15  and  C8_16 
REMARK       I    between atoms: C8_16  and  N5_18 
REMARK    3  A    between atoms: N5_18  and  C9_20 
ROOT
HETATM    1  C4  UNL     1      21.580 -15.721  25.206  1.00  0.00     0.107 C 
HETATM    2  C5  UNL     1      21.970 -14.553  26.099  1.00  0.00     0.028 C 
HETATM    3  C6  UNL     1      20.599 -14.093  26.552  1.00  0.00     0.022 C 
HETATM    4  C7  UNL     1      19.613 -14.685  25.527  1.00  0.00     0.128 C 
HETATM    5  N4  UNL     1      20.489 -15.123  24.470  1.00  0.00    -0.328 N 
HETATM    6  C8  UNL     1      20.250 -14.962  23.096  1.00  0.00     0.319 C 
HETATM    7  O1  UNL     1      21.064 -15.371  22.202  1.00  0.00    -0.247 OA
HETATM    8  N5  UNL     1      19.081 -14.329  22.625  1.00  0.00    -0.335 N 
ATOM      9  H5  UNL     1      18.407 -13.987  23.309  1.00  0.00     0.165 HD
ENDROOT
BRANCH   1  10
HETATM   10  C3  UNL     1      22.703 -16.207  24.360  1.00  0.00     0.163 C 
BRANCH  10  11
HETATM   11  N3  UNL     1      22.553 -17.634  24.204  1.00  0.00    -0.225 N 
HETATM   12  C2  UNL     1      22.392 -18.325  22.988  1.00  0.00     0.667 C 
HETATM   13  N1  UNL     1      23.521 -19.070  22.510  1.00  0.00    -0.231 N 
HETATM   14  N2  UNL     1      21.346 -18.368  22.253  1.00  0.00    -0.235 N 
HETATM   15  C1  UNL     1      23.601 -20.499  22.775  1.00  0.00     0.165 C 
ATOM     16  H1  UNL     1      24.262 -18.602  21.989  1.00  0.00     0.177 HD
ATOM     17  H22 UNL     1      21.229 -18.869  21.372  1.00  0.00     0.174 HD
ATOM     18  H21 UNL     1      20.543 -17.839  22.593  1.00  0.00     0.174 HD
ATOM     19  H3  UNL     1      22.564 -18.195  25.056  1.00  0.00     0.177 HD
ENDBRANCH  10  11
ENDBRANCH   1  10
BRANCH   8  20
HETATM   20  C9  UNL     1      18.789 -14.137  21.217  1.00  0.00     0.023 C 
HETATM   21  C10 UNL     1      18.388 -15.441  20.544  1.00  0.00     0.037 C 
HETATM   22  C11 UNL     1      19.984 -13.589  20.467  1.00  0.00     0.037 C 
HETATM   23  C12 UNL     1      17.637 -13.173  21.045  1.00  0.00     0.037 C 
ENDBRANCH   8  20
TORSDOF 3
ENDMDL
MODEL 4
REMARK VINA RESULT: -6.139901600      0.913      1.323
REMARK  3 active torsions:
REMARK  status: ('A' for Active; 'I' for Inactive)
REMARK       I    between atoms: N1_2  and  C2_4 
REMARK       I    between atoms: C2_4  and  N3_8 
REMARK    1  A    between atoms: N3_8  and  C3_10 
REMARK    2  A    between atoms: C3_10  and  C4_11 
REMARK       I    between atoms: N4_15  and  C8_16 
REMARK       I    between atoms: C8_16  and  N5_18 
REMARK    3  A    between atoms: N5_18  and  C9_20 
ROOT
HETATM    1  C4  UNL     1      21.894 -15.085  25.041  1.00  0.00     0.107 C 
HETATM    2  C5  UNL     1      21.782 -14.014  26.115  1.00  0.00     0.028 C 
HETATM    3  C6  UNL     1      20.345 -14.221  26.549  1.00  0.00     0.022 C 
HETATM    4  C7  UNL     1      19.678 -14.990  25.392  1.00  0.00     0.128 C 
HETATM    5  N4  UNL     1      20.651 -14.868  24.337  1.00  0.00    -0.328 N 
HETATM    6  C8  UNL     1      20.360 -14.603  22.989  1.00  0.00     0.319 C 
HETATM    7  O1  UNL     1      21.265 -14.505  22.094  1.00  0.00    -0.247 OA
HETATM    8  N5  UNL     1      19.032 -14.427  22.548  1.00  0.00    -0.335 N 
ATOM      9  H5  UNL     1      18.281 -14.497  23.233  1.00  0.00     0.165 HD
ENDROOT
BRANCH   1  10
HETATM   10  C3  UNL     1      23.113 -14.940  24.200  1.00  0.00     0.163 C 
BRANCH  10  11
HETATM   11  N3  UNL     1      23.464 -16.249  23.701  1.00  0.00    -0.225 N 
HETATM   12  C2  UNL     1      22.933 -17.476  24.141  1.00  0.00     0.667 C 
HETATM   13  N1  UNL     1      22.004 -18.132  23.267  1.00  0.00    -0.231 N 
HETATM   14  N2  UNL     1      23.186 -18.080  25.240  1.00  0.00    -0.235 N 
HETATM   15  C1  UNL     1      22.475 -19.186  22.380  1.00  0.00     0.165 C 
ATOM     16  H1  UNL     1      21.020 -17.862  23.267  1.00  0.00     0.177 HD
ATOM     17  H22 UNL     1      22.801 -18.970  25.559  1.00  0.00     0.174 HD
ATOM     18  H21 UNL     1      23.846 -17.614  25.861  1.00  0.00     0.174 HD
ATOM     19  H3  UNL     1      24.163 -16.287  22.960  1.00  0.00     0.177 HD
ENDBRANCH  10  11
ENDBRANCH   1  10
BRANCH   8  20
HETATM   20  C9  UNL     1      18.680 -14.151  21.167  1.00  0.00     0.023 C 
HETATM   21  C10 UNL     1      18.292 -15.419  20.422  1.00  0.00     0.037 C 
HETATM   22  C11 UNL     1      19.827 -13.515  20.413  1.00  0.00     0.037 C 
HETATM   23  C12 UNL     1      17.494 -13.215  21.104  1.00  0.00     0.037 C 
ENDBRANCH   8  20
TORSDOF 3
ENDMDL
MODEL 5
REMARK VINA RESULT: -6.084975692      1.751      2.759
REMARK  3 active torsions:
REMARK  status: ('A' for Active; 'I' for Inactive)
REMARK       I    between atoms: N1_2  and  C2_4 
REMARK       I    between atoms: C2_4  and  N3_8 
REMARK    1  A    between atoms: N3_8  and  C3_10 
REMARK    2  A    between atoms: C3_10  and  C4_11 
REMARK       I    between atoms: N4_15  and  C8_16 
REMARK       I    between atoms: C8_16  and  N5_18 
REMARK    3  A    between atoms: N5_18  and  C9_20 
ROOT
HETATM    1  C4  UNL     1      19.588 -16.867  24.831  1.00  0.00     0.107 C 
HETATM    2  C5  UNL     1      18.435 -16.815  25.821  1.00  0.00     0.028 C 
HETATM    3  C6  UNL     1      17.352 -17.492  25.005  1.00  0.00     0.022 C 
HETATM    4  C7  UNL     1      17.828 -17.400  23.542  1.00  0.00     0.128 C 
HETATM    5  N4  UNL     1      18.907 -16.450  23.626  1.00  0.00    -0.328 N 
HETATM    6  C8  UNL     1      19.151 -15.412  22.713  1.00  0.00     0.319 C 
HETATM    7  O1  UNL     1      20.126 -14.597  22.838  1.00  0.00    -0.247 OA
HETATM    8  N5  UNL     1      18.318 -15.212  21.593  1.00  0.00    -0.335 N 
ATOM      9  H5  UNL     1      17.528 -15.842  21.459  1.00  0.00     0.165 HD
ENDROOT
BRANCH   1  10
HETATM   10  C3  UNL     1      20.732 -16.002  25.225  1.00  0.00     0.163 C 
BRANCH  10  11
HETATM   11  N3  UNL     1      21.879 -16.403  24.444  1.00  0.00    -0.225 N 
HETATM   12  C2  UNL     1      23.050 -15.650  24.240  1.00  0.00     0.667 C 
HETATM   13  N1  UNL     1      24.226 -16.073  24.944  1.00  0.00    -0.231 N 
HETATM   14  N2  UNL     1      23.190 -14.621  23.492  1.00  0.00    -0.235 N 
HETATM   15  C1  UNL     1      25.204 -16.911  24.266  1.00  0.00     0.165 C 
ATOM     16  H1  UNL     1      24.376 -15.789  25.912  1.00  0.00     0.177 HD
ATOM     17  H22 UNL     1      24.039 -14.075  23.343  1.00  0.00     0.174 HD
ATOM     18  H21 UNL     1      22.354 -14.320  22.991  1.00  0.00     0.174 HD
ATOM     19  H3  UNL     1      21.836 -17.319  23.998  1.00  0.00     0.177 HD
ENDBRANCH  10  11
ENDBRANCH   1  10
BRANCH   8  20
HETATM   20  C9  UNL     1      18.527 -14.155  20.621  1.00  0.00     0.023 C 
HETATM   21  C10 UNL     1      17.646 -14.336  19.395  1.00  0.00     0.037 C 
HETATM   22  C11 UNL     1      19.963 -14.108  20.145  1.00  0.00     0.037 C 
HETATM   23  C12 UNL     1      18.182 -12.811  21.223  1.00  0.00     0.037 C 
ENDBRANCH   8  20
TORSDOF 3
ENDMDL
