MODEL 1
REMARK VINA RESULT: -6.452570699      0.000      0.000
REMARK  5 active torsions:
REMARK  status: ('A' for Active; 'I' for Inactive)
REMARK       I    between atoms: N1_3  and  C4_5 
REMARK       I    between atoms: C4_5  and  N2_7 
REMARK    1  A    between atoms: N2_7  and  N3_9 
REMARK    2  A    between atoms: N3_9  and  N4_10 
REMARK    3  A    between atoms: N4_10  and  C5_12 
REMARK    4  A    between atoms: C5_12  and  N5_14 
REMARK    5  A    between atoms: N5_14  and  C6_16 
ROOT
HETATM    1  C1  UNL     1      12.761 -10.936  22.440  1.00  0.00     0.037 C 
HETATM    2  C2  UNL     1      13.356 -11.850  21.909  1.00  0.00     0.005 C 
HETATM    3  N1  UNL     1      14.036 -12.905  21.270  1.00  0.00    -0.262 N 
HETATM    4  C3  UNL     1      13.370 -14.197  21.295  1.00  0.00     0.172 C 
HETATM    5  C4  UNL     1      15.295 -12.694  20.648  1.00  0.00     0.346 C 
HETATM    6  O1  UNL     1      15.796 -11.546  20.679  1.00  0.00    -0.245 OA
HETATM    7  N2  UNL     1      15.940 -13.774  20.018  1.00  0.00    -0.234 N 
ATOM      8  H2  UNL     1      15.503 -14.696  20.010  1.00  0.00     0.189 HD
ENDROOT
BRANCH   7   9
HETATM    9  N3  UNL     1      17.168 -13.583  19.409  1.00  0.00    -0.016 NA
BRANCH   9  10
HETATM   10  N4  UNL     1      18.192 -13.394  20.305  1.00  0.00    -0.260 N 
ATOM     11  H4  UNL     1      18.628 -12.472  20.319  1.00  0.00     0.186 HD
BRANCH  10  12
HETATM   12  C5  UNL     1      18.699 -14.354  21.208  1.00  0.00     0.185 C 
HETATM   13  S1  UNL     1      19.512 -15.642  20.651  1.00  0.00    -0.040 SA
BRANCH  12  14
HETATM   14  N5  UNL     1      18.503 -14.198  22.595  1.00  0.00    -0.362 N 
ATOM     15  H5  UNL     1      17.985 -13.387  22.934  1.00  0.00     0.162 HD
BRANCH  14  16
HETATM   16  C6  UNL     1      19.021 -15.165  23.560  1.00  0.00     0.083 C 
HETATM   17  C7  UNL     1      18.027 -15.385  24.683  1.00  0.00     0.025 C 
HETATM   18  C8  UNL     1      18.976 -15.857  25.795  1.00  0.00     0.002 C 
HETATM   19  C9  UNL     1      19.961 -14.680  25.757  1.00  0.00     0.002 C 
HETATM   20  C10 UNL     1      20.240 -14.584  24.281  1.00  0.00     0.025 C 
ENDBRANCH  14  16
ENDBRANCH  12  14
ENDBRANCH  10  12
ENDBRANCH   9  10
ENDBRANCH   7   9
TORSDOF 5
ENDMDL
MODEL 2
REMARK VINA RESULT: -6.422731990      1.402      1.790
REMARK  5 active torsions:
REMARK  status: ('A' for Active; 'I' for Inactive)
REMARK       I    between atoms: N1_3  and  C4_5 
REMARK       I    between atoms: C4_5  and  N2_7 
REMARK    1  A    between atoms: N2_7  and  N3_9 
REMARK    2  A    between atoms: N3_9  and  N4_10 
REMARK    3  A    between atoms: N4_10  and  C5_12 
REMARK    4  A    between atoms: C5_12  and  N5_14 
REMARK    5  A    between atoms: N5_14  and  C6_16 
ROOT
HETATM    1  C1  UNL     1      11.353 -12.364  23.839  1.00  0.00     0.037 C 
HETATM    2  C2  UNL     1      12.148 -11.971  23.010  1.00  0.00     0.005 C 
HETATM    3  N1  UNL     1      13.085 -11.507  22.067  1.00  0.00    -0.262 N 
HETATM    4  C3  UNL     1      12.831 -10.185  21.518  1.00  0.00     0.172 C 
HETATM    5  C4  UNL     1      14.201 -12.301  21.691  1.00  0.00     0.346 C 
HETATM    6  O1  UNL     1      14.338 -13.432  22.214  1.00  0.00    -0.245 OA
HETATM    7  N2  UNL     1      15.115 -11.799  20.748  1.00  0.00    -0.234 N 
ATOM      8  H2  UNL     1      14.975 -10.874  20.342  1.00  0.00     0.189 HD
ENDROOT
BRANCH   7   9
HETATM    9  N3  UNL     1      16.206 -12.562  20.371  1.00  0.00    -0.016 NA
BRANCH   9  10
HETATM   10  N4  UNL     1      17.035 -12.875  21.421  1.00  0.00    -0.260 N 
ATOM     11  H4  UNL     1      16.930 -12.322  22.271  1.00  0.00     0.186 HD
BRANCH  10  12
HETATM   12  C5  UNL     1      18.018 -13.889  21.435  1.00  0.00     0.185 C 
HETATM   13  S1  UNL     1      17.980 -15.072  20.327  1.00  0.00    -0.040 SA
BRANCH  12  14
HETATM   14  N5  UNL     1      19.036 -13.877  22.409  1.00  0.00    -0.362 N 
ATOM     15  H5  UNL     1      19.685 -13.090  22.438  1.00  0.00     0.162 HD
BRANCH  14  16
HETATM   16  C6  UNL     1      19.189 -14.961  23.377  1.00  0.00     0.083 C 
HETATM   17  C7  UNL     1      17.992 -15.023  24.305  1.00  0.00     0.025 C 
HETATM   18  C8  UNL     1      18.630 -15.711  25.521  1.00  0.00     0.002 C 
HETATM   19  C9  UNL     1      19.808 -14.749  25.726  1.00  0.00     0.002 C 
HETATM   20  C10 UNL     1      20.352 -14.656  24.325  1.00  0.00     0.025 C 
ENDBRANCH  14  16
ENDBRANCH  12  14
ENDBRANCH  10  12
ENDBRANCH   9  10
ENDBRANCH   7   9
TORSDOF 5
ENDMDL
MODEL 3
REMARK VINA RESULT: -6.220272315      2.127      2.761
REMARK  5 active torsions:
REMARK  status: ('A' for Active; 'I' for Inactive)
REMARK       I    between atoms: N1_3  and  C4_5 
REMARK       I    between atoms: C4_5  and  N2_7 
REMARK    1  A    between atoms: N2_7  and  N3_9 
REMARK    2  A    between atoms: N3_9  and  N4_10 
REMARK    3  A    between atoms: N4_10  and  C5_12 
REMARK    4  A    between atoms: C5_12  and  N5_14 
REMARK    5  A    between atoms: N5_14  and  C6_16 
ROOT
HETATM    1  C1  UNL     1      11.215 -12.412  23.682  1.00  0.00     0.037 C 
HETATM    2  C2  UNL     1      12.053 -11.978  22.919  1.00  0.00     0.005 C 
HETATM    3  N1  UNL     1      13.038 -11.463  22.055  1.00  0.00    -0.262 N 
HETATM    4  C3  UNL     1      12.718 -10.200  21.409  1.00  0.00     0.172 C 
HETATM    5  C4  UNL     1      14.259 -12.155  21.840  1.00  0.00     0.346 C 
HETATM    6  O1  UNL     1      14.447 -13.241  22.436  1.00  0.00    -0.245 OA
HETATM    7  N2  UNL     1      15.218 -11.605  20.970  1.00  0.00    -0.234 N 
ATOM      8  H2  UNL     1      15.034 -10.718  20.501  1.00  0.00     0.189 HD
ENDROOT
BRANCH   7   9
HETATM    9  N3  UNL     1      16.412 -12.269  20.751  1.00  0.00    -0.016 NA
BRANCH   9  10
HETATM   10  N4  UNL     1      16.259 -13.434  20.039  1.00  0.00    -0.260 N 
ATOM     11  H4  UNL     1      15.307 -13.780  19.919  1.00  0.00     0.186 HD
BRANCH  10  12
HETATM   12  C5  UNL     1      17.294 -14.199  19.457  1.00  0.00     0.185 C 
HETATM   13  S1  UNL     1      18.006 -13.693  18.090  1.00  0.00    -0.040 SA
BRANCH  12  14
HETATM   14  N5  UNL     1      17.714 -15.401  20.060  1.00  0.00    -0.362 N 
ATOM     15  H5  UNL     1      17.072 -16.193  20.085  1.00  0.00     0.162 HD
BRANCH  14  16
HETATM   16  C6  UNL     1      19.043 -15.544  20.650  1.00  0.00     0.083 C 
HETATM   17  C7  UNL     1      19.065 -16.684  21.649  1.00  0.00     0.025 C 
HETATM   18  C8  UNL     1      20.239 -16.242  22.535  1.00  0.00     0.002 C 
HETATM   19  C9  UNL     1      19.741 -14.831  22.875  1.00  0.00     0.002 C 
HETATM   20  C10 UNL     1      19.369 -14.319  21.509  1.00  0.00     0.025 C 
ENDBRANCH  14  16
ENDBRANCH  12  14
ENDBRANCH  10  12
ENDBRANCH   9  10
ENDBRANCH   7   9
TORSDOF 5
ENDMDL
MODEL 4
REMARK VINA RESULT: -6.184288076      0.752      1.229
REMARK  5 active torsions:
REMARK  status: ('A' for Active; 'I' for Inactive)
REMARK       I    between atoms: N1_3  and  C4_5 
REMARK       I    between atoms: C4_5  and  N2_7 
REMARK    1  A    between atoms: N2_7  and  N3_9 
REMARK    2  A    between atoms: N3_9  and  N4_10 
REMARK    3  A    between atoms: N4_10  and  C5_12 
REMARK    4  A    between atoms: C5_12  and  N5_14 
REMARK    5  A    between atoms: N5_14  and  C6_16 
ROOT
HETATM    1  C1  UNL     1      12.173 -10.511  22.061  1.00  0.00     0.037 C 
HETATM    2  C2  UNL     1      12.795 -11.485  21.691  1.00  0.00     0.005 C 
HETATM    3  N1  UNL     1      13.510 -12.610  21.238  1.00  0.00    -0.262 N 
HETATM    4  C3  UNL     1      12.808 -13.880  21.312  1.00  0.00     0.172 C 
HETATM    5  C4  UNL     1      14.836 -12.486  20.745  1.00  0.00     0.346 C 
HETATM    6  O1  UNL     1      15.365 -11.350  20.722  1.00  0.00    -0.245 OA
HETATM    7  N2  UNL     1      15.515 -13.634  20.299  1.00  0.00    -0.234 N 
ATOM      8  H2  UNL     1      15.055 -14.544  20.331  1.00  0.00     0.189 HD
ENDROOT
BRANCH   7   9
HETATM    9  N3  UNL     1      16.808 -13.528  19.818  1.00  0.00    -0.016 NA
BRANCH   9  10
HETATM   10  N4  UNL     1      17.720 -13.191  20.789  1.00  0.00    -0.260 N 
ATOM     11  H4  UNL     1      17.543 -12.331  21.308  1.00  0.00     0.186 HD
BRANCH  10  12
HETATM   12  C5  UNL     1      18.878 -13.921  21.136  1.00  0.00     0.185 C 
HETATM   13  S1  UNL     1      20.254 -13.702  20.305  1.00  0.00    -0.040 SA
BRANCH  12  14
HETATM   14  N5  UNL     1      18.845 -14.839  22.204  1.00  0.00    -0.362 N 
ATOM     15  H5  UNL     1      18.748 -15.833  22.000  1.00  0.00     0.162 HD
BRANCH  14  16
HETATM   16  C6  UNL     1      18.944 -14.406  23.596  1.00  0.00     0.083 C 
HETATM   17  C7  UNL     1      20.351 -14.608  24.121  1.00  0.00     0.025 C 
HETATM   18  C8  UNL     1      20.065 -14.715  25.626  1.00  0.00     0.002 C 
HETATM   19  C9  UNL     1      19.014 -15.833  25.572  1.00  0.00     0.002 C 
HETATM   20  C10 UNL     1      18.102 -15.320  24.490  1.00  0.00     0.025 C 
ENDBRANCH  14  16
ENDBRANCH  12  14
ENDBRANCH  10  12
ENDBRANCH   9  10
ENDBRANCH   7   9
TORSDOF 5
ENDMDL
MODEL 5
REMARK VINA RESULT: -6.081479193      2.605      6.376
REMARK  5 active torsions:
REMARK  status: ('A' for Active; 'I' for Inactive)
REMARK       I    between atoms: N1_3  and  C4_5 
REMARK       I    between atoms: C4_5  and  N2_7 
REMARK    1  A    between atoms: N2_7  and  N3_9 
REMARK    2  A    between atoms: N3_9  and  N4_10 
REMARK    3  A    between atoms: N4_10  and  C5_12 
REMARK    4  A    between atoms: C5_12  and  N5_14 
REMARK    5  A    between atoms: N5_14  and  C6_16 
ROOT
HETATM    1  C1  UNL     1      20.709 -14.634  22.413  1.00  0.00     0.037 C 
HETATM    2  C2  UNL     1      19.674 -14.738  21.788  1.00  0.00     0.005 C 
HETATM    3  N1  UNL     1      18.460 -14.860  21.086  1.00  0.00    -0.262 N 
HETATM    4  C3  UNL     1      18.093 -16.207  20.681  1.00  0.00     0.172 C 
HETATM    5  C4  UNL     1      17.660 -13.722  20.800  1.00  0.00     0.346 C 
HETATM    6  O1  UNL     1      18.058 -12.597  21.185  1.00  0.00    -0.245 OA
HETATM    7  N2  UNL     1      16.453 -13.887  20.099  1.00  0.00    -0.234 N 
ATOM      8  H2  UNL     1      16.158 -14.817  19.801  1.00  0.00     0.189 HD
ENDROOT
BRANCH   7   9
HETATM    9  N3  UNL     1      15.665 -12.786  19.813  1.00  0.00    -0.016 NA
BRANCH   9  10
HETATM   10  N4  UNL     1      14.320 -13.035  19.942  1.00  0.00    -0.260 N 
ATOM     11  H4  UNL     1      13.777 -13.092  19.081  1.00  0.00     0.186 HD
BRANCH  10  12
HETATM   12  C5  UNL     1      13.618 -13.221  21.153  1.00  0.00     0.185 C 
HETATM   13  S1  UNL     1      12.838 -14.615  21.433  1.00  0.00    -0.040 SA
BRANCH  12  14
HETATM   14  N5  UNL     1      13.592 -12.199  22.123  1.00  0.00    -0.362 N 
ATOM     15  H5  UNL     1      14.456 -11.955  22.609  1.00  0.00     0.162 HD
BRANCH  14  16
HETATM   16  C6  UNL     1      12.364 -11.479  22.451  1.00  0.00     0.083 C 
HETATM   17  C7  UNL     1      12.682 -10.121  23.044  1.00  0.00     0.025 C 
HETATM   18  C8  UNL     1      11.398  -9.872  23.851  1.00  0.00     0.002 C 
HETATM   19  C9  UNL     1      11.395 -11.172  24.668  1.00  0.00     0.002 C 
HETATM   20  C10 UNL     1      11.626 -12.193  23.586  1.00  0.00     0.025 C 
ENDBRANCH  14  16
ENDBRANCH  12  14
ENDBRANCH  10  12
ENDBRANCH   9  10
ENDBRANCH   7   9
TORSDOF 5
ENDMDL
