MODEL 1
REMARK VINA RESULT: -6.931197824      0.000      0.000
REMARK  3 active torsions:
REMARK  status: ('A' for Active; 'I' for Inactive)
REMARK    1  A    between atoms: C2_2  and  N1_3 
REMARK       I    between atoms: N1_3  and  C3_5 
REMARK       I    between atoms: C3_5  and  N2_7 
REMARK    2  A    between atoms: N2_7  and  N3_9 
REMARK       I    between atoms: N3_9  and  C4_11 
REMARK       I    between atoms: C4_11  and  N4_13 
REMARK    3  A    between atoms: N4_13  and  C5_15 
ROOT
HETATM    1  N3  UNL     1      15.726 -13.106  20.785  1.00  0.00    -0.248 N 
ATOM      2  H3  UNL     1      16.146 -13.403  21.666  1.00  0.00     0.192 HD
HETATM    3  C4  UNL     1      14.548 -12.312  20.818  1.00  0.00     0.335 C 
HETATM    4  O2  UNL     1      14.071 -11.970  19.701  1.00  0.00    -0.246 OA
HETATM    5  N4  UNL     1      13.984 -11.949  22.045  1.00  0.00    -0.335 N 
ATOM      6  H4  UNL     1      14.421 -12.258  22.914  1.00  0.00     0.164 HD
ENDROOT
BRANCH   1   7
HETATM    7  N2  UNL     1      16.325 -13.492  19.586  1.00  0.00    -0.248 N 
HETATM    8  C3  UNL     1      17.736 -13.431  19.474  1.00  0.00     0.334 C 
HETATM    9  N1  UNL     1      18.348 -13.821  18.259  1.00  0.00    -0.342 N 
HETATM   10  O1  UNL     1      18.408 -13.027  20.467  1.00  0.00    -0.246 OA
ATOM     11  H1  UNL     1      17.775 -14.142  17.479  1.00  0.00     0.164 HD
ATOM     12  H2  UNL     1      15.756 -13.812  18.802  1.00  0.00     0.192 HD
BRANCH   9  13
HETATM   13  C2  UNL     1      19.777 -13.765  18.127  1.00  0.00     0.120 C 
HETATM   14  C1  UNL     1      20.167 -13.130  16.812  1.00  0.00     0.026 C 
ENDBRANCH   9  13
ENDBRANCH   1   7
BRANCH   5  15
HETATM   15  C5  UNL     1      12.782 -11.138  22.097  1.00  0.00     0.118 C 
HETATM   16  C6  UNL     1      12.937  -9.976  23.032  1.00  0.00     0.297 C 
HETATM   17  N5  UNL     1      11.761  -9.654  23.775  1.00  0.00     0.086 N 
HETATM   18  C7  UNL     1      12.058  -8.571  24.687  1.00  0.00     0.310 C 
HETATM   19  C8  UNL     1      11.204 -10.733  24.529  1.00  0.00     0.272 C 
HETATM   20  C9  UNL     1      11.723 -12.079  24.069  1.00  0.00     0.036 C 
HETATM   21  C10 UNL     1      11.662 -12.066  22.555  1.00  0.00     0.008 C 
HETATM   22  C11 UNL     1      11.837 -13.430  21.960  1.00  0.00     0.012 C 
ENDBRANCH   5  15
TORSDOF 3
ENDMDL
MODEL 2
REMARK VINA RESULT: -6.465890705      2.261      7.623
REMARK  3 active torsions:
REMARK  status: ('A' for Active; 'I' for Inactive)
REMARK    1  A    between atoms: C2_2  and  N1_3 
REMARK       I    between atoms: N1_3  and  C3_5 
REMARK       I    between atoms: C3_5  and  N2_7 
REMARK    2  A    between atoms: N2_7  and  N3_9 
REMARK       I    between atoms: N3_9  and  C4_11 
REMARK       I    between atoms: C4_11  and  N4_13 
REMARK    3  A    between atoms: N4_13  and  C5_15 
ROOT
HETATM    1  N3  UNL     1      15.588 -12.515  20.121  1.00  0.00    -0.248 N 
ATOM      2  H3  UNL     1      15.267 -12.509  19.152  1.00  0.00     0.192 HD
HETATM    3  C4  UNL     1      16.639 -13.395  20.492  1.00  0.00     0.335 C 
HETATM    4  O2  UNL     1      16.998 -13.362  21.701  1.00  0.00    -0.246 OA
HETATM    5  N4  UNL     1      17.219 -14.235  19.535  1.00  0.00    -0.335 N 
ATOM      6  H4  UNL     1      16.882 -14.211  18.572  1.00  0.00     0.164 HD
ENDROOT
BRANCH   1   7
HETATM    7  N2  UNL     1      14.980 -11.660  21.040  1.00  0.00    -0.248 N 
HETATM    8  C3  UNL     1      13.690 -11.984  21.529  1.00  0.00     0.334 C 
HETATM    9  N1  UNL     1      13.069 -11.119  22.461  1.00  0.00    -0.342 N 
HETATM   10  O1  UNL     1      13.130 -13.041  21.115  1.00  0.00    -0.246 OA
ATOM     11  H1  UNL     1      13.550 -10.275  22.774  1.00  0.00     0.164 HD
ATOM     12  H2  UNL     1      15.456 -10.814  21.354  1.00  0.00     0.192 HD
BRANCH   9  13
HETATM   13  C2  UNL     1      11.762 -11.431  22.967  1.00  0.00     0.120 C 
HETATM   14  C1  UNL     1      11.479 -10.650  24.231  1.00  0.00     0.026 C 
ENDBRANCH   9  13
ENDBRANCH   1   7
BRANCH   5  15
HETATM   15  C5  UNL     1      18.294 -15.138  19.897  1.00  0.00     0.118 C 
HETATM   16  C6  UNL     1      18.336 -15.387  21.375  1.00  0.00     0.297 C 
HETATM   17  N5  UNL     1      19.651 -15.498  21.919  1.00  0.00     0.086 N 
HETATM   18  C7  UNL     1      19.558 -15.664  23.354  1.00  0.00     0.310 C 
HETATM   19  C8  UNL     1      20.515 -14.392  21.652  1.00  0.00     0.272 C 
HETATM   20  C9  UNL     1      20.005 -13.530  20.517  1.00  0.00     0.036 C 
HETATM   21  C10 UNL     1      19.583 -14.480  19.414  1.00  0.00     0.008 C 
HETATM   22  C11 UNL     1      19.356 -13.782  18.109  1.00  0.00     0.012 C 
ENDBRANCH   5  15
TORSDOF 3
ENDMDL
MODEL 3
REMARK VINA RESULT: -6.457544958      4.466      5.948
REMARK  3 active torsions:
REMARK  status: ('A' for Active; 'I' for Inactive)
REMARK    1  A    between atoms: C2_2  and  N1_3 
REMARK       I    between atoms: N1_3  and  C3_5 
REMARK       I    between atoms: C3_5  and  N2_7 
REMARK    2  A    between atoms: N2_7  and  N3_9 
REMARK       I    between atoms: N3_9  and  C4_11 
REMARK       I    between atoms: C4_11  and  N4_13 
REMARK    3  A    between atoms: N4_13  and  C5_15 
ROOT
HETATM    1  N3  UNL     1      12.212 -16.146  20.607  1.00  0.00    -0.248 N 
ATOM      2  H3  UNL     1      11.667 -15.754  19.839  1.00  0.00     0.192 HD
HETATM    3  C4  UNL     1      12.773 -15.266  21.571  1.00  0.00     0.335 C 
HETATM    4  O2  UNL     1      13.437 -15.803  22.501  1.00  0.00    -0.246 OA
HETATM    5  N4  UNL     1      12.572 -13.886  21.459  1.00  0.00    -0.335 N 
ATOM      6  H4  UNL     1      12.023 -13.517  20.683  1.00  0.00     0.164 HD
ENDROOT
BRANCH   1   7
HETATM    7  N2  UNL     1      12.385 -17.528  20.678  1.00  0.00    -0.248 N 
HETATM    8  C3  UNL     1      11.564 -18.364  19.880  1.00  0.00     0.334 C 
HETATM    9  N1  UNL     1      11.735 -19.766  19.948  1.00  0.00    -0.342 N 
HETATM   10  O1  UNL     1      10.699 -17.827  19.128  1.00  0.00    -0.246 OA
ATOM     11  H1  UNL     1      12.443 -20.165  20.565  1.00  0.00     0.164 HD
ATOM     12  H2  UNL     1      13.091 -17.932  21.294  1.00  0.00     0.192 HD
BRANCH   9  13
HETATM   13  C2  UNL     1      10.912 -20.628  19.148  1.00  0.00     0.120 C 
HETATM   14  C1  UNL     1      11.341 -20.582  17.699  1.00  0.00     0.026 C 
ENDBRANCH   9  13
ENDBRANCH   1   7
BRANCH   5  15
HETATM   15  C5  UNL     1      13.137 -12.974  22.436  1.00  0.00     0.118 C 
HETATM   16  C6  UNL     1      12.069 -12.282  23.229  1.00  0.00     0.297 C 
HETATM   17  N5  UNL     1      12.357 -10.919  23.544  1.00  0.00     0.086 N 
HETATM   18  C7  UNL     1      11.228 -10.346  24.244  1.00  0.00     0.310 C 
HETATM   19  C8  UNL     1      12.657 -10.086  22.422  1.00  0.00     0.272 C 
HETATM   20  C9  UNL     1      13.010 -10.893  21.190  1.00  0.00     0.036 C 
HETATM   21  C10 UNL     1      13.972 -11.972  21.647  1.00  0.00     0.008 C 
HETATM   22  C11 UNL     1      14.661 -12.650  20.503  1.00  0.00     0.012 C 
ENDBRANCH   5  15
TORSDOF 3
ENDMDL
MODEL 4
REMARK VINA RESULT: -6.327965006      5.272      8.810
REMARK  3 active torsions:
REMARK  status: ('A' for Active; 'I' for Inactive)
REMARK    1  A    between atoms: C2_2  and  N1_3 
REMARK       I    between atoms: N1_3  and  C3_5 
REMARK       I    between atoms: C3_5  and  N2_7 
REMARK    2  A    between atoms: N2_7  and  N3_9 
REMARK       I    between atoms: N3_9  and  C4_11 
REMARK       I    between atoms: C4_11  and  N4_13 
REMARK    3  A    between atoms: N4_13  and  C5_15 
ROOT
HETATM    1  N3  UNL     1      13.182 -15.994  21.349  1.00  0.00    -0.248 N 
ATOM      2  H3  UNL     1      12.968 -15.746  20.383  1.00  0.00     0.192 HD
HETATM    3  C4  UNL     1      13.830 -17.230  21.613  1.00  0.00     0.335 C 
HETATM    4  O2  UNL     1      14.074 -17.487  22.825  1.00  0.00    -0.246 OA
HETATM    5  N4  UNL     1      14.166 -18.084  20.558  1.00  0.00    -0.335 N 
ATOM      6  H4  UNL     1      13.942 -17.815  19.599  1.00  0.00     0.164 HD
ENDROOT
BRANCH   1   7
HETATM    7  N2  UNL     1      12.829 -15.110  22.368  1.00  0.00    -0.248 N 
HETATM    8  C3  UNL     1      12.561 -13.757  22.041  1.00  0.00     0.334 C 
HETATM    9  N1  UNL     1      12.202 -12.858  23.072  1.00  0.00    -0.342 N 
HETATM   10  O1  UNL     1      12.651 -13.395  20.832  1.00  0.00    -0.246 OA
ATOM     11  H1  UNL     1      12.138 -13.185  24.037  1.00  0.00     0.164 HD
ATOM     12  H2  UNL     1      12.765 -15.432  23.334  1.00  0.00     0.192 HD
BRANCH   9  13
HETATM   13  C2  UNL     1      11.928 -11.483  22.759  1.00  0.00     0.120 C 
HETATM   14  C1  UNL     1      11.538 -10.720  24.005  1.00  0.00     0.026 C 
ENDBRANCH   9  13
ENDBRANCH   1   7
BRANCH   5  15
HETATM   15  C5  UNL     1      14.829 -19.349  20.811  1.00  0.00     0.118 C 
HETATM   16  C6  UNL     1      16.289 -19.161  21.100  1.00  0.00     0.297 C 
HETATM   17  N5  UNL     1      17.134 -20.180  20.562  1.00  0.00     0.086 N 
HETATM   18  C7  UNL     1      18.513 -19.849  20.846  1.00  0.00     0.310 C 
HETATM   19  C8  UNL     1      17.006 -20.396  19.156  1.00  0.00     0.272 C 
HETATM   20  C9  UNL     1      15.728 -19.802  18.601  1.00  0.00     0.036 C 
HETATM   21  C10 UNL     1      14.622 -20.195  19.559  1.00  0.00     0.008 C 
HETATM   22  C11 UNL     1      13.257 -19.960  18.989  1.00  0.00     0.012 C 
ENDBRANCH   5  15
TORSDOF 3
ENDMDL
MODEL 5
REMARK VINA RESULT: -6.285152934      2.671      7.769
REMARK  3 active torsions:
REMARK  status: ('A' for Active; 'I' for Inactive)
REMARK    1  A    between atoms: C2_2  and  N1_3 
REMARK       I    between atoms: N1_3  and  C3_5 
REMARK       I    between atoms: C3_5  and  N2_7 
REMARK    2  A    between atoms: N2_7  and  N3_9 
REMARK       I    between atoms: N3_9  and  C4_11 
REMARK       I    between atoms: C4_11  and  N4_13 
REMARK    3  A    between atoms: N4_13  and  C5_15 
ROOT
HETATM    1  N3  UNL     1      16.134 -11.881  21.216  1.00  0.00    -0.248 N 
ATOM      2  H3  UNL     1      16.792 -11.283  21.716  1.00  0.00     0.192 HD
HETATM    3  C4  UNL     1      16.611 -13.077  20.617  1.00  0.00     0.335 C 
HETATM    4  O2  UNL     1      15.756 -13.782  20.013  1.00  0.00    -0.246 OA
HETATM    5  N4  UNL     1      17.964 -13.420  20.719  1.00  0.00    -0.335 N 
ATOM      6  H4  UNL     1      18.604 -12.806  21.224  1.00  0.00     0.164 HD
ENDROOT
BRANCH   1   7
HETATM    7  N2  UNL     1      14.795 -11.499  21.142  1.00  0.00    -0.248 N 
HETATM    8  C3  UNL     1      13.841 -12.186  21.934  1.00  0.00     0.334 C 
HETATM    9  N1  UNL     1      12.481 -11.801  21.862  1.00  0.00    -0.342 N 
HETATM   10  O1  UNL     1      14.236 -13.125  22.684  1.00  0.00    -0.246 OA
ATOM     11  H1  UNL     1      12.198 -11.038  21.247  1.00  0.00     0.164 HD
ATOM     12  H2  UNL     1      14.507 -10.738  20.528  1.00  0.00     0.192 HD
BRANCH   9  13
HETATM   13  C2  UNL     1      11.501 -12.486  22.656  1.00  0.00     0.120 C 
HETATM   14  C1  UNL     1      11.322 -11.800  23.992  1.00  0.00     0.026 C 
ENDBRANCH   9  13
ENDBRANCH   1   7
BRANCH   5  15
HETATM   15  C5  UNL     1      18.467 -14.638  20.114  1.00  0.00     0.118 C 
HETATM   16  C6  UNL     1      17.853 -15.859  20.732  1.00  0.00     0.297 C 
HETATM   17  N5  UNL     1      18.746 -16.964  20.871  1.00  0.00     0.086 N 
HETATM   18  C7  UNL     1      18.059 -18.047  21.541  1.00  0.00     0.310 C 
HETATM   19  C8  UNL     1      19.950 -16.687  21.589  1.00  0.00     0.272 C 
HETATM   20  C9  UNL     1      20.221 -15.201  21.696  1.00  0.00     0.036 C 
HETATM   21  C10 UNL     1      19.978 -14.621  20.317  1.00  0.00     0.008 C 
HETATM   22  C11 UNL     1      20.509 -13.228  20.177  1.00  0.00     0.012 C 
ENDBRANCH   5  15
TORSDOF 3
ENDMDL
