MODEL 1
REMARK VINA RESULT: -5.686507202      0.000      0.000
REMARK  6 active torsions:
REMARK  status: ('A' for Active; 'I' for Inactive)
REMARK    1  A    between atoms: C3_3  and  C4_4 
REMARK    2  A    between atoms: C5_5  and  C6_6 
REMARK    3  A    between atoms: C6_6  and  C7_7 
REMARK    4  A    between atoms: C6_6  and  N1_10 
REMARK    5  A    between atoms: C7_7  and  O1_8 
REMARK       I    between atoms: N1_10  and  C8_12 
REMARK       I    between atoms: C8_12  and  N3_16 
REMARK       I    between atoms: C9_18  and  N5_20 
REMARK    6  A    between atoms: N5_20  and  C11_22 
ROOT
HETATM    1  C1  UNL     1      37.872  25.165  57.245  1.00  0.00     0.113 C 
HETATM    2  C2  UNL     1      38.861  25.091  56.168  1.00  0.00    -0.097 C 
HETATM    3  C3  UNL     1      39.697  25.013  55.278  1.00  0.00    -0.015 C 
ENDROOT
BRANCH   3   4
HETATM    4  C4  UNL     1      40.669  24.903  54.257  1.00  0.00    -0.013 C 
HETATM    5  C5  UNL     1      41.488  24.793  53.379  1.00  0.00    -0.064 C 
BRANCH   5   6
HETATM    6  C6  UNL     1      42.506  24.650  52.314  1.00  0.00     0.203 C 
BRANCH   6   7
HETATM    7  C7  UNL     1      43.877  24.516  52.925  1.00  0.00     0.202 C 
BRANCH   7   8
HETATM    8  O1  UNL     1      43.712  23.814  54.130  1.00  0.00    -0.398 OA
ATOM      9  H1  UNL     1      43.327  22.975  53.905  1.00  0.00     0.209 HD
ENDBRANCH   7   8
ENDBRANCH   6   7
BRANCH   6  10
HETATM   10  N1  UNL     1      42.247  23.482  51.510  1.00  0.00    -0.209 N 
HETATM   11  C8  UNL     1      43.130  23.081  50.477  1.00  0.00     0.675 C 
HETATM   12  N2  UNL     1      43.564  23.936  49.618  1.00  0.00    -0.235 N 
HETATM   13  N3  UNL     1      43.532  21.740  50.397  1.00  0.00    -0.164 N 
ATOM     14  H22 UNL     1      43.271  24.912  49.677  1.00  0.00     0.174 HD
ATOM     15  H21 UNL     1      44.200  23.647  48.875  1.00  0.00     0.174 HD
HETATM   16  C9  UNL     1      44.185  21.107  51.309  1.00  0.00     0.204 C 
ATOM     17  H3  UNL     1      43.289  21.226  49.550  1.00  0.00     0.187 HD
HETATM   18  N4  UNL     1      44.587  21.692  52.527  1.00  0.00    -0.063 NA
HETATM   19  N5  UNL     1      44.504  19.746  51.044  1.00  0.00    -0.360 N 
HETATM   20  C10 UNL     1      45.038  19.437  49.731  1.00  0.00     0.152 C 
ATOM     21  H1  UNL     1      41.408  22.931  51.689  1.00  0.00     0.179 HD
BRANCH  19  22
HETATM   22  C11 UNL     1      44.335  18.672  51.973  1.00  0.00     0.120 C 
HETATM   23  C12 UNL     1      45.483  18.522  52.928  1.00  0.00     0.026 C 
ENDBRANCH  19  22
ENDBRANCH   6  10
ENDBRANCH   5   6
ENDBRANCH   3   4
TORSDOF 6
ENDMDL
MODEL 2
REMARK VINA RESULT: -5.626643557      2.610      2.999
REMARK  6 active torsions:
REMARK  status: ('A' for Active; 'I' for Inactive)
REMARK    1  A    between atoms: C3_3  and  C4_4 
REMARK    2  A    between atoms: C5_5  and  C6_6 
REMARK    3  A    between atoms: C6_6  and  C7_7 
REMARK    4  A    between atoms: C6_6  and  N1_10 
REMARK    5  A    between atoms: C7_7  and  O1_8 
REMARK       I    between atoms: N1_10  and  C8_12 
REMARK       I    between atoms: C8_12  and  N3_16 
REMARK       I    between atoms: C9_18  and  N5_20 
REMARK    6  A    between atoms: N5_20  and  C11_22 
ROOT
HETATM    1  C1  UNL     1      37.884  28.598  50.065  1.00  0.00     0.113 C 
HETATM    2  C2  UNL     1      38.994  27.756  50.513  1.00  0.00    -0.097 C 
HETATM    3  C3  UNL     1      39.933  27.069  50.892  1.00  0.00    -0.015 C 
ENDROOT
BRANCH   3   4
HETATM    4  C4  UNL     1      41.028  26.294  51.340  1.00  0.00    -0.013 C 
HETATM    5  C5  UNL     1      41.973  25.645  51.712  1.00  0.00    -0.064 C 
BRANCH   5   6
HETATM    6  C6  UNL     1      43.131  24.835  52.156  1.00  0.00     0.203 C 
BRANCH   6   7
HETATM    7  C7  UNL     1      43.549  25.252  53.543  1.00  0.00     0.202 C 
BRANCH   7   8
HETATM    8  O1  UNL     1      43.727  24.071  54.280  1.00  0.00    -0.398 OA
ATOM      9  H1  UNL     1      43.400  24.245  55.155  1.00  0.00     0.209 HD
ENDBRANCH   7   8
ENDBRANCH   6   7
BRANCH   6  10
HETATM   10  N1  UNL     1      42.797  23.433  52.181  1.00  0.00    -0.209 N 
HETATM   11  C8  UNL     1      43.229  22.549  51.162  1.00  0.00     0.675 C 
HETATM   12  N2  UNL     1      43.086  22.862  49.920  1.00  0.00    -0.235 N 
HETATM   13  N3  UNL     1      43.817  21.326  51.514  1.00  0.00    -0.164 N 
ATOM     14  H22 UNL     1      42.658  23.752  49.664  1.00  0.00     0.174 HD
ATOM     15  H21 UNL     1      43.397  22.225  49.187  1.00  0.00     0.174 HD
HETATM   16  C9  UNL     1      44.902  21.196  52.196  1.00  0.00     0.204 C 
ATOM     17  H3  UNL     1      43.349  20.473  51.206  1.00  0.00     0.187 HD
HETATM   18  N4  UNL     1      45.650  22.286  52.684  1.00  0.00    -0.063 NA
HETATM   19  N5  UNL     1      45.342  19.868  52.454  1.00  0.00    -0.360 N 
HETATM   20  C10 UNL     1      45.330  18.940  51.340  1.00  0.00     0.152 C 
ATOM     21  H1  UNL     1      42.236  23.069  52.950  1.00  0.00     0.179 HD
BRANCH  19  22
HETATM   22  C11 UNL     1      45.793  19.389  53.724  1.00  0.00     0.120 C 
HETATM   23  C12 UNL     1      45.432  17.956  53.984  1.00  0.00     0.026 C 
ENDBRANCH  19  22
ENDBRANCH   6  10
ENDBRANCH   5   6
ENDBRANCH   3   4
TORSDOF 6
ENDMDL
MODEL 3
REMARK VINA RESULT: -5.349961392      3.590      7.328
REMARK  6 active torsions:
REMARK  status: ('A' for Active; 'I' for Inactive)
REMARK    1  A    between atoms: C3_3  and  C4_4 
REMARK    2  A    between atoms: C5_5  and  C6_6 
REMARK    3  A    between atoms: C6_6  and  C7_7 
REMARK    4  A    between atoms: C6_6  and  N1_10 
REMARK    5  A    between atoms: C7_7  and  O1_8 
REMARK       I    between atoms: N1_10  and  C8_12 
REMARK       I    between atoms: C8_12  and  N3_16 
REMARK       I    between atoms: C9_18  and  N5_20 
REMARK    6  A    between atoms: N5_20  and  C11_22 
ROOT
HETATM    1  C1  UNL     1      45.746  18.183  53.855  1.00  0.00     0.113 C 
HETATM    2  C2  UNL     1      45.369  19.383  53.106  1.00  0.00    -0.097 C 
HETATM    3  C3  UNL     1      45.049  20.396  52.498  1.00  0.00    -0.015 C 
ENDROOT
BRANCH   3   4
HETATM    4  C4  UNL     1      44.679  21.577  51.815  1.00  0.00    -0.013 C 
HETATM    5  C5  UNL     1      44.382  22.588  51.228  1.00  0.00    -0.064 C 
BRANCH   5   6
HETATM    6  C6  UNL     1      44.016  23.837  50.524  1.00  0.00     0.203 C 
BRANCH   6   7
HETATM    7  C7  UNL     1      44.800  23.954  49.241  1.00  0.00     0.202 C 
BRANCH   7   8
HETATM    8  O1  UNL     1      43.864  24.164  48.217  1.00  0.00    -0.398 OA
ATOM      9  H1  UNL     1      43.306  23.394  48.197  1.00  0.00     0.209 HD
ENDBRANCH   7   8
ENDBRANCH   6   7
BRANCH   6  10
HETATM   10  N1  UNL     1      42.611  23.853  50.204  1.00  0.00    -0.209 N 
HETATM   11  C8  UNL     1      41.685  24.608  50.966  1.00  0.00     0.675 C 
HETATM   12  N2  UNL     1      41.692  24.546  52.253  1.00  0.00    -0.235 N 
HETATM   13  N3  UNL     1      40.757  25.428  50.308  1.00  0.00    -0.164 N 
ATOM     14  H22 UNL     1      42.367  23.949  52.731  1.00  0.00     0.174 HD
ATOM     15  H21 UNL     1      41.025  25.090  52.801  1.00  0.00     0.174 HD
HETATM   16  C9  UNL     1      41.058  26.421  49.544  1.00  0.00     0.204 C 
ATOM     17  H3  UNL     1      39.768  25.223  50.445  1.00  0.00     0.187 HD
HETATM   18  N4  UNL     1      42.382  26.817  49.268  1.00  0.00    -0.063 NA
HETATM   19  N5  UNL     1      39.974  27.136  48.964  1.00  0.00    -0.360 N 
HETATM   20  C10 UNL     1      38.870  27.486  49.837  1.00  0.00     0.152 C 
ATOM     21  H1  UNL     1      42.275  23.308  49.411  1.00  0.00     0.179 HD
BRANCH  19  22
HETATM   22  C11 UNL     1      39.898  27.531  47.591  1.00  0.00     0.120 C 
HETATM   23  C12 UNL     1      38.638  28.273  47.252  1.00  0.00     0.026 C 
ENDBRANCH  19  22
ENDBRANCH   6  10
ENDBRANCH   5   6
ENDBRANCH   3   4
TORSDOF 6
ENDMDL
MODEL 4
REMARK VINA RESULT: -5.341650840      3.262      5.583
REMARK  6 active torsions:
REMARK  status: ('A' for Active; 'I' for Inactive)
REMARK    1  A    between atoms: C3_3  and  C4_4 
REMARK    2  A    between atoms: C5_5  and  C6_6 
REMARK    3  A    between atoms: C6_6  and  C7_7 
REMARK    4  A    between atoms: C6_6  and  N1_10 
REMARK    5  A    between atoms: C7_7  and  O1_8 
REMARK       I    between atoms: N1_10  and  C8_12 
REMARK       I    between atoms: C8_12  and  N3_16 
REMARK       I    between atoms: C9_18  and  N5_20 
REMARK    6  A    between atoms: N5_20  and  C11_22 
ROOT
HETATM    1  C1  UNL     1      46.139  24.187  45.214  1.00  0.00     0.113 C 
HETATM    2  C2  UNL     1      45.781  24.411  46.616  1.00  0.00    -0.097 C 
HETATM    3  C3  UNL     1      45.480  24.578  47.790  1.00  0.00    -0.015 C 
ENDROOT
BRANCH   3   4
HETATM    4  C4  UNL     1      45.137  24.748  49.151  1.00  0.00    -0.013 C 
HETATM    5  C5  UNL     1      44.831  24.881  50.309  1.00  0.00    -0.064 C 
BRANCH   5   6
HETATM    6  C6  UNL     1      44.445  25.058  51.728  1.00  0.00     0.203 C 
BRANCH   6   7
HETATM    7  C7  UNL     1      43.450  26.183  51.854  1.00  0.00     0.202 C 
BRANCH   7   8
HETATM    8  O1  UNL     1      42.437  25.929  50.916  1.00  0.00    -0.398 OA
ATOM      9  H1  UNL     1      42.862  25.555  50.153  1.00  0.00     0.209 HD
ENDBRANCH   7   8
ENDBRANCH   6   7
BRANCH   6  10
HETATM   10  N1  UNL     1      43.847  23.857  52.251  1.00  0.00    -0.209 N 
HETATM   11  C8  UNL     1      43.500  22.772  51.408  1.00  0.00     0.675 C 
HETATM   12  N2  UNL     1      42.845  22.974  50.318  1.00  0.00    -0.235 N 
HETATM   13  N3  UNL     1      43.877  21.470  51.768  1.00  0.00    -0.164 N 
ATOM     14  H22 UNL     1      42.570  23.922  50.056  1.00  0.00     0.174 HD
ATOM     15  H21 UNL     1      42.595  22.193  49.711  1.00  0.00     0.174 HD
HETATM   16  C9  UNL     1      45.092  21.067  51.920  1.00  0.00     0.204 C 
ATOM     17  H3  UNL     1      43.133  20.790  51.922  1.00  0.00     0.187 HD
HETATM   18  N4  UNL     1      46.216  21.897  51.738  1.00  0.00    -0.063 NA
HETATM   19  N5  UNL     1      45.274  19.706  52.289  1.00  0.00    -0.360 N 
HETATM   20  C10 UNL     1      44.498  18.715  51.567  1.00  0.00     0.152 C 
ATOM     21  H1  UNL     1      43.668  23.785  53.252  1.00  0.00     0.179 HD
BRANCH  19  22
HETATM   22  C11 UNL     1      46.162  19.250  53.313  1.00  0.00     0.120 C 
HETATM   23  C12 UNL     1      45.592  18.141  54.149  1.00  0.00     0.026 C 
ENDBRANCH  19  22
ENDBRANCH   6  10
ENDBRANCH   5   6
ENDBRANCH   3   4
TORSDOF 6
ENDMDL
MODEL 5
REMARK VINA RESULT: -5.338706961      3.308      3.509
REMARK  6 active torsions:
REMARK  status: ('A' for Active; 'I' for Inactive)
REMARK    1  A    between atoms: C3_3  and  C4_4 
REMARK    2  A    between atoms: C5_5  and  C6_6 
REMARK    3  A    between atoms: C6_6  and  C7_7 
REMARK    4  A    between atoms: C6_6  and  N1_10 
REMARK    5  A    between atoms: C7_7  and  O1_8 
REMARK       I    between atoms: N1_10  and  C8_12 
REMARK       I    between atoms: C8_12  and  N3_16 
REMARK       I    between atoms: C9_18  and  N5_20 
REMARK    6  A    between atoms: N5_20  and  C11_22 
ROOT
HETATM    1  C1  UNL     1      40.182  30.046  50.719  1.00  0.00     0.113 C 
HETATM    2  C2  UNL     1      41.110  28.925  50.879  1.00  0.00    -0.097 C 
HETATM    3  C3  UNL     1      41.902  28.002  51.010  1.00  0.00    -0.015 C 
ENDROOT
BRANCH   3   4
HETATM    4  C4  UNL     1      42.834  26.950  51.165  1.00  0.00    -0.013 C 
HETATM    5  C5  UNL     1      43.614  26.041  51.301  1.00  0.00    -0.064 C 
BRANCH   5   6
HETATM    6  C6  UNL     1      44.577  24.931  51.484  1.00  0.00     0.203 C 
BRANCH   6   7
HETATM    7  C7  UNL     1      45.664  25.345  52.443  1.00  0.00     0.202 C 
BRANCH   7   8
HETATM    8  O1  UNL     1      45.810  24.294  53.362  1.00  0.00    -0.398 OA
ATOM      9  H1  UNL     1      45.871  24.692  54.222  1.00  0.00     0.209 HD
ENDBRANCH   7   8
ENDBRANCH   6   7
BRANCH   6  10
HETATM   10  N1  UNL     1      43.919  23.764  52.015  1.00  0.00    -0.209 N 
HETATM   11  C8  UNL     1      43.624  22.643  51.200  1.00  0.00     0.675 C 
HETATM   12  N2  UNL     1      43.062  22.799  50.051  1.00  0.00    -0.235 N 
HETATM   13  N3  UNL     1      43.950  21.357  51.653  1.00  0.00    -0.164 N 
ATOM     14  H22 UNL     1      42.825  23.735  49.722  1.00  0.00     0.174 HD
ATOM     15  H21 UNL     1      42.850  21.991  49.465  1.00  0.00     0.174 HD
HETATM   16  C9  UNL     1      45.142  20.947  51.922  1.00  0.00     0.204 C 
ATOM     17  H3  UNL     1      43.185  20.694  51.779  1.00  0.00     0.187 HD
HETATM   18  N4  UNL     1      46.290  21.753  51.793  1.00  0.00    -0.063 NA
HETATM   19  N5  UNL     1      45.272  19.604  52.371  1.00  0.00    -0.360 N 
HETATM   20  C10 UNL     1      44.541  18.588  51.638  1.00  0.00     0.152 C 
ATOM     21  H1  UNL     1      43.659  23.744  53.001  1.00  0.00     0.179 HD
BRANCH  19  22
HETATM   22  C11 UNL     1      46.067  19.188  53.485  1.00  0.00     0.120 C 
HETATM   23  C12 UNL     1      45.521  17.983  54.193  1.00  0.00     0.026 C 
ENDBRANCH  19  22
ENDBRANCH   6  10
ENDBRANCH   5   6
ENDBRANCH   3   4
TORSDOF 6
ENDMDL
