MODEL 1
REMARK VINA RESULT: -5.861916578      0.000      0.000
REMARK  2 active torsions:
REMARK  status: ('A' for Active; 'I' for Inactive)
REMARK    1  A    between atoms: C2_2  and  N1_3 
REMARK       I    between atoms: N1_3  and  C3_5 
REMARK       I    between atoms: C3_5  and  N3_9 
REMARK       I    between atoms: N3_9  and  C4_11 
REMARK       I    between atoms: C4_11  and  N4_13 
REMARK    2  A    between atoms: C7_16  and  C8_17 
REMARK       I    between atoms: C8_17  and  N5_19 
ROOT
HETATM    1  N1  UNL     1      40.842  26.074  50.255  1.00  0.00    -0.227 N 
ATOM      2  H1  UNL     1      40.047  25.436  50.221  1.00  0.00     0.177 HD
HETATM    3  C3  UNL     1      41.563  26.309  51.467  1.00  0.00     0.675 C 
HETATM    4  N2  UNL     1      41.435  27.387  52.143  1.00  0.00    -0.235 N 
ATOM      5  H21 UNL     1      41.949  27.554  53.007  1.00  0.00     0.174 HD
ATOM      6  H22 UNL     1      40.801  28.122  51.829  1.00  0.00     0.174 HD
HETATM    7  N3  UNL     1      42.444  25.286  51.904  1.00  0.00    -0.142 N 
ATOM      8  H3  UNL     1      42.968  25.433  52.766  1.00  0.00     0.189 HD
HETATM    9  C4  UNL     1      42.632  24.066  51.197  1.00  0.00     0.336 C 
HETATM   10  O1  UNL     1      41.982  23.888  50.132  1.00  0.00    -0.246 OA
HETATM   11  N4  UNL     1      43.535  23.110  51.718  1.00  0.00    -0.334 N 
HETATM   12  C5  UNL     1      43.726  21.869  51.003  1.00  0.00     0.128 C 
HETATM   13  C6  UNL     1      45.206  21.628  50.911  1.00  0.00     0.034 C 
HETATM   14  C7  UNL     1      45.794  21.462  52.270  1.00  0.00     0.081 C 
HETATM   15  C10 UNL     1      45.100  22.189  53.364  1.00  0.00     0.034 C 
HETATM   16  C11 UNL     1      44.258  23.338  52.923  1.00  0.00     0.128 C 
ENDROOT
BRANCH   1  17
HETATM   17  C2  UNL     1      41.294  26.783  49.080  1.00  0.00     0.133 C 
HETATM   18  C1  UNL     1      40.187  27.527  48.401  1.00  0.00     0.027 C 
ENDBRANCH   1  17
BRANCH  14  19
HETATM   19  C8  UNL     1      45.728  19.992  52.611  1.00  0.00     0.221 C 
HETATM   20  O2  UNL     1      45.573  19.133  51.709  1.00  0.00    -0.273 OA
HETATM   21  N5  UNL     1      45.840  19.565  53.945  1.00  0.00    -0.365 N 
HETATM   22  C9  UNL     1      45.774  18.153  54.248  1.00  0.00     0.149 C 
ATOM     23  H5  UNL     1      45.968  20.246  54.693  1.00  0.00     0.161 HD
ENDBRANCH  14  19
TORSDOF 2
ENDMDL
MODEL 2
REMARK VINA RESULT: -5.639304451      1.811      7.189
REMARK  2 active torsions:
REMARK  status: ('A' for Active; 'I' for Inactive)
REMARK    1  A    between atoms: C2_2  and  N1_3 
REMARK       I    between atoms: N1_3  and  C3_5 
REMARK       I    between atoms: C3_5  and  N3_9 
REMARK       I    between atoms: N3_9  and  C4_11 
REMARK       I    between atoms: C4_11  and  N4_13 
REMARK    2  A    between atoms: C7_16  and  C8_17 
REMARK       I    between atoms: C8_17  and  N5_19 
ROOT
HETATM    1  N1  UNL     1      45.394  17.907  52.680  1.00  0.00    -0.227 N 
ATOM      2  H1  UNL     1      45.700  17.728  51.723  1.00  0.00     0.177 HD
HETATM    3  C3  UNL     1      46.025  18.897  53.495  1.00  0.00     0.675 C 
HETATM    4  N2  UNL     1      46.827  18.595  54.445  1.00  0.00    -0.235 N 
ATOM      5  H21 UNL     1      47.277  19.302  55.026  1.00  0.00     0.174 HD
ATOM      6  H22 UNL     1      47.042  17.618  54.649  1.00  0.00     0.174 HD
HETATM    7  N3  UNL     1      45.727  20.255  53.211  1.00  0.00    -0.142 N 
ATOM      8  H3  UNL     1      46.167  20.978  53.780  1.00  0.00     0.189 HD
HETATM    9  C4  UNL     1      44.845  20.657  52.170  1.00  0.00     0.336 C 
HETATM   10  O1  UNL     1      44.303  19.761  51.468  1.00  0.00    -0.246 OA
HETATM   11  N4  UNL     1      44.613  22.038  51.968  1.00  0.00    -0.334 N 
HETATM   12  C5  UNL     1      43.718  22.448  50.911  1.00  0.00     0.128 C 
HETATM   13  C6  UNL     1      42.786  23.476  51.486  1.00  0.00     0.034 C 
HETATM   14  C7  UNL     1      43.544  24.680  51.929  1.00  0.00     0.081 C 
HETATM   15  C10 UNL     1      44.942  24.433  52.369  1.00  0.00     0.034 C 
HETATM   16  C11 UNL     1      45.237  23.029  52.777  1.00  0.00     0.128 C 
ENDROOT
BRANCH   1  17
HETATM   17  C2  UNL     1      44.302  17.173  53.275  1.00  0.00     0.133 C 
HETATM   18  C1  UNL     1      43.302  16.715  52.261  1.00  0.00     0.027 C 
ENDBRANCH   1  17
BRANCH  14  19
HETATM   19  C8  UNL     1      43.617  25.623  50.752  1.00  0.00     0.221 C 
HETATM   20  O2  UNL     1      44.644  26.317  50.552  1.00  0.00    -0.273 OA
HETATM   21  N5  UNL     1      42.536  25.736  49.862  1.00  0.00    -0.365 N 
HETATM   22  C9  UNL     1      42.629  26.646  48.742  1.00  0.00     0.149 C 
ATOM     23  H5  UNL     1      41.693  25.181  50.005  1.00  0.00     0.161 HD
ENDBRANCH  14  19
TORSDOF 2
ENDMDL
MODEL 3
REMARK VINA RESULT: -5.616092595      2.274      7.349
REMARK  2 active torsions:
REMARK  status: ('A' for Active; 'I' for Inactive)
REMARK    1  A    between atoms: C2_2  and  N1_3 
REMARK       I    between atoms: N1_3  and  C3_5 
REMARK       I    between atoms: C3_5  and  N3_9 
REMARK       I    between atoms: N3_9  and  C4_11 
REMARK       I    between atoms: C4_11  and  N4_13 
REMARK    2  A    between atoms: C7_16  and  C8_17 
REMARK       I    between atoms: C8_17  and  N5_19 
ROOT
HETATM    1  N1  UNL     1      44.664  20.242  52.085  1.00  0.00    -0.227 N 
ATOM      2  H1  UNL     1      43.886  19.907  52.654  1.00  0.00     0.177 HD
HETATM    3  C3  UNL     1      44.470  20.698  50.744  1.00  0.00     0.675 C 
HETATM    4  N2  UNL     1      44.809  20.000  49.727  1.00  0.00    -0.235 N 
ATOM      5  H21 UNL     1      44.671  20.326  48.770  1.00  0.00     0.174 HD
ATOM      6  H22 UNL     1      45.236  19.081  49.849  1.00  0.00     0.174 HD
HETATM    7  N3  UNL     1      43.877  21.976  50.575  1.00  0.00    -0.142 N 
ATOM      8  H3  UNL     1      43.729  22.320  49.627  1.00  0.00     0.189 HD
HETATM    9  C4  UNL     1      43.478  22.799  51.664  1.00  0.00     0.336 C 
HETATM   10  O1  UNL     1      43.662  22.370  52.835  1.00  0.00    -0.246 OA
HETATM   11  N4  UNL     1      42.896  24.058  51.389  1.00  0.00    -0.334 N 
HETATM   12  C5  UNL     1      42.489  24.896  52.494  1.00  0.00     0.128 C 
HETATM   13  C6  UNL     1      43.004  26.280  52.219  1.00  0.00     0.034 C 
HETATM   14  C7  UNL     1      42.385  26.833  50.982  1.00  0.00     0.081 C 
HETATM   15  C10 UNL     1      41.999  25.831  49.954  1.00  0.00     0.034 C 
HETATM   16  C11 UNL     1      42.701  24.520  50.056  1.00  0.00     0.128 C 
ENDROOT
BRANCH   1  17
HETATM   17  C2  UNL     1      46.015  20.279  52.597  1.00  0.00     0.133 C 
HETATM   18  C1  UNL     1      46.282  19.186  53.583  1.00  0.00     0.027 C 
ENDBRANCH   1  17
BRANCH  14  19
HETATM   19  C8  UNL     1      41.119  27.547  51.392  1.00  0.00     0.221 C 
HETATM   20  O2  UNL     1      41.171  28.676  51.938  1.00  0.00    -0.273 OA
HETATM   21  N5  UNL     1      39.864  26.957  51.167  1.00  0.00    -0.365 N 
HETATM   22  C9  UNL     1      38.666  27.659  51.569  1.00  0.00     0.149 C 
ATOM     23  H5  UNL     1      39.799  26.040  50.724  1.00  0.00     0.161 HD
ENDBRANCH  14  19
TORSDOF 2
ENDMDL
MODEL 4
REMARK VINA RESULT: -5.598318556      2.248      2.509
REMARK  2 active torsions:
REMARK  status: ('A' for Active; 'I' for Inactive)
REMARK    1  A    between atoms: C2_2  and  N1_3 
REMARK       I    between atoms: N1_3  and  C3_5 
REMARK       I    between atoms: C3_5  and  N3_9 
REMARK       I    between atoms: N3_9  and  C4_11 
REMARK       I    between atoms: C4_11  and  N4_13 
REMARK    2  A    between atoms: C7_16  and  C8_17 
REMARK       I    between atoms: C8_17  and  N5_19 
ROOT
HETATM    1  N1  UNL     1      43.497  25.675  49.761  1.00  0.00    -0.227 N 
ATOM      2  H1  UNL     1      42.495  25.485  49.731  1.00  0.00     0.177 HD
HETATM    3  C3  UNL     1      44.233  25.624  50.985  1.00  0.00     0.675 C 
HETATM    4  N2  UNL     1      44.622  26.678  51.596  1.00  0.00    -0.235 N 
ATOM      5  H21 UNL     1      45.147  26.641  52.470  1.00  0.00     0.174 HD
ATOM      6  H22 UNL     1      44.411  27.602  51.219  1.00  0.00     0.174 HD
HETATM    7  N3  UNL     1      44.525  24.339  51.510  1.00  0.00    -0.142 N 
ATOM      8  H3  UNL     1      45.049  24.278  52.383  1.00  0.00     0.189 HD
HETATM    9  C4  UNL     1      44.122  23.130  50.878  1.00  0.00     0.336 C 
HETATM   10  O1  UNL     1      43.474  23.207  49.800  1.00  0.00    -0.246 OA
HETATM   11  N4  UNL     1      44.464  21.898  51.484  1.00  0.00    -0.334 N 
HETATM   12  C5  UNL     1      44.055  20.668  50.845  1.00  0.00     0.128 C 
HETATM   13  C6  UNL     1      45.248  19.756  50.823  1.00  0.00     0.034 C 
HETATM   14  C7  UNL     1      45.677  19.422  52.211  1.00  0.00     0.081 C 
HETATM   15  C10 UNL     1      45.397  20.461  53.237  1.00  0.00     0.034 C 
HETATM   16  C11 UNL     1      45.199  21.839  52.702  1.00  0.00     0.128 C 
ENDROOT
BRANCH   1  17
HETATM   17  C2  UNL     1      44.239  26.010  48.567  1.00  0.00     0.133 C 
HETATM   18  C1  UNL     1      43.370  26.061  47.350  1.00  0.00     0.027 C 
ENDBRANCH   1  17
BRANCH  14  19
HETATM   19  C8  UNL     1      44.923  18.182  52.629  1.00  0.00     0.221 C 
HETATM   20  O2  UNL     1      45.347  17.463  53.566  1.00  0.00    -0.273 OA
HETATM   21  N5  UNL     1      43.735  17.816  51.975  1.00  0.00    -0.365 N 
HETATM   22  C9  UNL     1      43.031  16.625  52.392  1.00  0.00     0.149 C 
ATOM     23  H5  UNL     1      43.372  18.388  51.211  1.00  0.00     0.161 HD
ENDBRANCH  14  19
TORSDOF 2
ENDMDL
MODEL 5
REMARK VINA RESULT: -5.576185423      2.406      7.161
REMARK  2 active torsions:
REMARK  status: ('A' for Active; 'I' for Inactive)
REMARK    1  A    between atoms: C2_2  and  N1_3 
REMARK       I    between atoms: N1_3  and  C3_5 
REMARK       I    between atoms: C3_5  and  N3_9 
REMARK       I    between atoms: N3_9  and  C4_11 
REMARK       I    between atoms: C4_11  and  N4_13 
REMARK    2  A    between atoms: C7_16  and  C8_17 
REMARK       I    between atoms: C8_17  and  N5_19 
ROOT
HETATM    1  N1  UNL     1      45.001  20.983  52.441  1.00  0.00    -0.227 N 
ATOM      2  H1  UNL     1      44.441  20.508  53.149  1.00  0.00     0.177 HD
HETATM    3  C3  UNL     1      44.491  21.240  51.130  1.00  0.00     0.675 C 
HETATM    4  N2  UNL     1      44.856  20.565  50.107  1.00  0.00    -0.235 N 
ATOM      5  H21 UNL     1      44.492  20.749  49.172  1.00  0.00     0.174 HD
ATOM      6  H22 UNL     1      45.536  19.810  50.202  1.00  0.00     0.174 HD
HETATM    7  N3  UNL     1      43.545  22.290  50.999  1.00  0.00    -0.142 N 
ATOM      8  H3  UNL     1      43.168  22.491  50.073  1.00  0.00     0.189 HD
HETATM    9  C4  UNL     1      43.099  23.077  52.096  1.00  0.00     0.336 C 
HETATM   10  O1  UNL     1      43.567  22.827  53.239  1.00  0.00    -0.246 OA
HETATM   11  N4  UNL     1      42.153  24.102  51.859  1.00  0.00    -0.334 N 
HETATM   12  C5  UNL     1      41.697  24.902  52.973  1.00  0.00     0.128 C 
HETATM   13  C6  UNL     1      41.757  26.341  52.545  1.00  0.00     0.034 C 
HETATM   14  C7  UNL     1      40.832  26.587  51.403  1.00  0.00     0.081 C 
HETATM   15  C10 UNL     1      40.594  25.425  50.508  1.00  0.00     0.034 C 
HETATM   16  C11 UNL     1      41.642  24.365  50.557  1.00  0.00     0.128 C 
ENDROOT
BRANCH   1  17
HETATM   17  C2  UNL     1      46.347  21.429  52.715  1.00  0.00     0.133 C 
HETATM   18  C1  UNL     1      46.644  22.761  52.101  1.00  0.00     0.027 C 
ENDBRANCH   1  17
BRANCH  14  19
HETATM   19  C8  UNL     1      39.493  26.971  51.985  1.00  0.00     0.221 C 
HETATM   20  O2  UNL     1      38.580  27.416  51.246  1.00  0.00    -0.273 OA
HETATM   21  N5  UNL     1      39.248  26.835  53.361  1.00  0.00    -0.365 N 
HETATM   22  C9  UNL     1      37.958  27.209  53.895  1.00  0.00     0.149 C 
ATOM     23  H5  UNL     1      39.975  26.474  53.979  1.00  0.00     0.161 HD
ENDBRANCH  14  19
TORSDOF 2
ENDMDL
