MODEL 1
REMARK VINA RESULT: -5.453427231      0.000      0.000
REMARK  3 active torsions:
REMARK  status: ('A' for Active; 'I' for Inactive)
REMARK       I    between atoms: N1_6  and  C6_7 
REMARK    1  A    between atoms: C7_12  and  C8_13 
REMARK    2  A    between atoms: C8_13  and  N4_16 
REMARK    3  A    between atoms: N4_16  and  C11_18 
ROOT
HETATM    1  C1  UNL     1      46.150  23.207  54.384  1.00  0.00     0.012 C 
HETATM    2  C2  UNL     1      46.246  23.612  53.255  1.00  0.00    -0.110 C 
HETATM    3  C3  UNL     1      46.391  24.088  51.921  1.00  0.00     0.091 C 
HETATM    4  C4  UNL     1      46.123  25.574  51.787  1.00  0.00     0.039 C 
HETATM    5  C5  UNL     1      45.901  25.634  50.272  1.00  0.00     0.127 C 
HETATM    6  N1  UNL     1      45.054  24.491  50.045  1.00  0.00    -0.347 N 
HETATM    7  C6  UNL     1      44.026  24.544  49.066  1.00  0.00     0.184 C 
HETATM    8  N2  UNL     1      42.934  25.147  49.353  1.00  0.00    -0.374 N 
ATOM      9  H21 UNL     1      42.196  25.184  48.650  1.00  0.00     0.158 HD
ATOM     10  H22 UNL     1      42.841  25.565  50.278  1.00  0.00     0.158 HD
HETATM   11  N3  UNL     1      44.154  23.966  47.790  1.00  0.00    -0.064 NA
HETATM   12  C7  UNL     1      45.461  23.446  50.930  1.00  0.00     0.137 C 
ENDROOT
BRANCH  12  13
HETATM   13  C8  UNL     1      44.331  22.700  51.551  1.00  0.00     0.186 C 
HETATM   14  C9  UNL     1      43.234  23.532  51.976  1.00  0.00    -0.090 C 
HETATM   15  C10 UNL     1      42.295  24.213  52.320  1.00  0.00     0.014 C 
BRANCH  13  16
HETATM   16  N4  UNL     1      43.943  21.610  50.683  1.00  0.00    -0.352 N 
ATOM     17  H4  UNL     1      43.155  21.780  50.058  1.00  0.00     0.163 HD
BRANCH  16  18
HETATM   18  C11 UNL     1      44.539  20.341  50.615  1.00  0.00     0.182 C 
HETATM   19  N5  UNL     1      44.797  19.727  49.366  1.00  0.00    -0.070 NA
HETATM   20  S1  UNL     1      44.926  19.599  52.029  1.00  0.00    -0.044 SA
ENDBRANCH  16  18
ENDBRANCH  13  16
ENDBRANCH  12  13
TORSDOF 3
ENDMDL
MODEL 2
REMARK VINA RESULT: -5.301937329      2.507      3.969
REMARK  3 active torsions:
REMARK  status: ('A' for Active; 'I' for Inactive)
REMARK       I    between atoms: N1_6  and  C6_7 
REMARK    1  A    between atoms: C7_12  and  C8_13 
REMARK    2  A    between atoms: C8_13  and  N4_16 
REMARK    3  A    between atoms: N4_16  and  C11_18 
ROOT
HETATM    1  C1  UNL     1      44.195  19.752  50.907  1.00  0.00     0.012 C 
HETATM    2  C2  UNL     1      44.943  20.513  51.463  1.00  0.00    -0.110 C 
HETATM    3  C3  UNL     1      45.851  21.389  52.123  1.00  0.00     0.091 C 
HETATM    4  C4  UNL     1      45.430  21.721  53.541  1.00  0.00     0.039 C 
HETATM    5  C5  UNL     1      46.296  22.968  53.753  1.00  0.00     0.127 C 
HETATM    6  N1  UNL     1      46.108  23.679  52.516  1.00  0.00    -0.347 N 
HETATM    7  C6  UNL     1      46.047  25.099  52.506  1.00  0.00     0.184 C 
HETATM    8  N2  UNL     1      44.958  25.670  52.861  1.00  0.00    -0.374 N 
ATOM      9  H21 UNL     1      44.914  26.689  52.854  1.00  0.00     0.158 HD
ATOM     10  H22 UNL     1      44.171  25.082  53.135  1.00  0.00     0.158 HD
HETATM   11  N3  UNL     1      47.133  25.910  52.129  1.00  0.00    -0.064 NA
HETATM   12  C7  UNL     1      46.017  22.725  51.457  1.00  0.00     0.137 C 
ENDROOT
BRANCH  12  13
HETATM   13  C8  UNL     1      44.967  23.036  50.446  1.00  0.00     0.186 C 
HETATM   14  C9  UNL     1      43.668  23.311  51.006  1.00  0.00    -0.090 C 
HETATM   15  C10 UNL     1      42.577  23.565  51.460  1.00  0.00     0.014 C 
BRANCH  13  16
HETATM   16  N4  UNL     1      45.453  24.063  49.551  1.00  0.00    -0.352 N 
ATOM     17  H4  UNL     1      46.138  24.717  49.932  1.00  0.00     0.163 HD
BRANCH  16  18
HETATM   18  C11 UNL     1      45.078  24.253  48.212  1.00  0.00     0.182 C 
HETATM   19  N5  UNL     1      45.580  23.410  47.192  1.00  0.00    -0.070 NA
HETATM   20  S1  UNL     1      44.039  25.479  47.873  1.00  0.00    -0.044 SA
ENDBRANCH  16  18
ENDBRANCH  13  16
ENDBRANCH  12  13
TORSDOF 3
ENDMDL
MODEL 3
REMARK VINA RESULT: -5.288464073      1.212      1.306
REMARK  3 active torsions:
REMARK  status: ('A' for Active; 'I' for Inactive)
REMARK       I    between atoms: N1_6  and  C6_7 
REMARK    1  A    between atoms: C7_12  and  C8_13 
REMARK    2  A    between atoms: C8_13  and  N4_16 
REMARK    3  A    between atoms: N4_16  and  C11_18 
ROOT
HETATM    1  C1  UNL     1      43.837  24.538  54.167  1.00  0.00     0.012 C 
HETATM    2  C2  UNL     1      44.533  24.585  53.187  1.00  0.00    -0.110 C 
HETATM    3  C3  UNL     1      45.384  24.639  52.047  1.00  0.00     0.091 C 
HETATM    4  C4  UNL     1      45.368  25.989  51.358  1.00  0.00     0.039 C 
HETATM    5  C5  UNL     1      45.956  25.567  50.007  1.00  0.00     0.127 C 
HETATM    6  N1  UNL     1      45.237  24.351  49.731  1.00  0.00    -0.347 N 
HETATM    7  C6  UNL     1      44.862  24.025  48.400  1.00  0.00     0.184 C 
HETATM    8  N2  UNL     1      43.842  24.604  47.889  1.00  0.00    -0.374 N 
ATOM      9  H21 UNL     1      43.573  24.370  46.933  1.00  0.00     0.158 HD
ATOM     10  H22 UNL     1      43.331  25.277  48.460  1.00  0.00     0.158 HD
HETATM   11  N3  UNL     1      45.566  23.096  47.612  1.00  0.00    -0.064 NA
HETATM   12  C7  UNL     1      45.032  23.659  50.964  1.00  0.00     0.137 C 
ENDROOT
BRANCH  12  13
HETATM   13  C8  UNL     1      43.676  23.056  51.105  1.00  0.00     0.186 C 
HETATM   14  C9  UNL     1      42.593  23.949  50.779  1.00  0.00    -0.090 C 
HETATM   15  C10 UNL     1      41.674  24.679  50.488  1.00  0.00     0.014 C 
BRANCH  13  16
HETATM   16  N4  UNL     1      43.636  21.796  50.397  1.00  0.00    -0.352 N 
ATOM     17  H4  UNL     1      42.887  21.678  49.714  1.00  0.00     0.163 HD
BRANCH  16  18
HETATM   18  C11 UNL     1      44.522  20.719  50.553  1.00  0.00     0.182 C 
HETATM   19  N5  UNL     1      44.953  19.966  49.435  1.00  0.00    -0.070 NA
HETATM   20  S1  UNL     1      45.039  20.366  52.072  1.00  0.00    -0.044 SA
ENDBRANCH  16  18
ENDBRANCH  13  16
ENDBRANCH  12  13
TORSDOF 3
ENDMDL
MODEL 4
REMARK VINA RESULT: -5.221656678      2.702      4.619
REMARK  3 active torsions:
REMARK  status: ('A' for Active; 'I' for Inactive)
REMARK       I    between atoms: N1_6  and  C6_7 
REMARK    1  A    between atoms: C7_12  and  C8_13 
REMARK    2  A    between atoms: C8_13  and  N4_16 
REMARK    3  A    between atoms: N4_16  and  C11_18 
ROOT
HETATM    1  C1  UNL     1      42.791  27.412  49.853  1.00  0.00     0.012 C 
HETATM    2  C2  UNL     1      42.711  26.252  50.163  1.00  0.00    -0.110 C 
HETATM    3  C3  UNL     1      42.584  24.881  50.525  1.00  0.00     0.091 C 
HETATM    4  C4  UNL     1      42.802  24.634  52.005  1.00  0.00     0.039 C 
HETATM    5  C5  UNL     1      43.061  23.124  51.952  1.00  0.00     0.127 C 
HETATM    6  N1  UNL     1      43.954  23.011  50.828  1.00  0.00    -0.347 N 
HETATM    7  C6  UNL     1      45.005  22.055  50.841  1.00  0.00     0.184 C 
HETATM    8  N2  UNL     1      46.067  22.317  51.506  1.00  0.00    -0.374 N 
ATOM      9  H21 UNL     1      46.821  21.631  51.515  1.00  0.00     0.158 HD
ATOM     10  H22 UNL     1      46.121  23.207  52.000  1.00  0.00     0.158 HD
HETATM   11  N3  UNL     1      44.932  20.827  50.159  1.00  0.00    -0.064 NA
HETATM   12  C7  UNL     1      43.562  23.967  49.842  1.00  0.00     0.137 C 
ENDROOT
BRANCH  12  13
HETATM   13  C8  UNL     1      44.702  24.672  49.191  1.00  0.00     0.186 C 
HETATM   14  C9  UNL     1      45.670  25.210  50.113  1.00  0.00    -0.090 C 
HETATM   15  C10 UNL     1      46.503  25.650  50.872  1.00  0.00     0.014 C 
BRANCH  13  16
HETATM   16  N4  UNL     1      45.270  23.822  48.168  1.00  0.00    -0.352 N 
ATOM     17  H4  UNL     1      45.628  22.916  48.472  1.00  0.00     0.163 HD
BRANCH  16  18
HETATM   18  C11 UNL     1      45.379  24.118  46.801  1.00  0.00     0.182 C 
HETATM   19  N5  UNL     1      45.669  23.100  45.860  1.00  0.00    -0.070 NA
HETATM   20  S1  UNL     1      45.159  25.677  46.333  1.00  0.00    -0.044 SA
ENDBRANCH  16  18
ENDBRANCH  13  16
ENDBRANCH  12  13
TORSDOF 3
ENDMDL
MODEL 5
REMARK VINA RESULT: -5.182163207      2.104      3.891
REMARK  3 active torsions:
REMARK  status: ('A' for Active; 'I' for Inactive)
REMARK       I    between atoms: N1_6  and  C6_7 
REMARK    1  A    between atoms: C7_12  and  C8_13 
REMARK    2  A    between atoms: C8_13  and  N4_16 
REMARK    3  A    between atoms: N4_16  and  C11_18 
ROOT
HETATM    1  C1  UNL     1      41.042  24.189  50.507  1.00  0.00     0.012 C 
HETATM    2  C2  UNL     1      41.704  24.354  51.499  1.00  0.00    -0.110 C 
HETATM    3  C3  UNL     1      42.460  24.552  52.689  1.00  0.00     0.091 C 
HETATM    4  C4  UNL     1      43.175  25.889  52.722  1.00  0.00     0.039 C 
HETATM    5  C5  UNL     1      44.199  25.576  53.821  1.00  0.00     0.127 C 
HETATM    6  N1  UNL     1      44.655  24.264  53.443  1.00  0.00    -0.347 N 
HETATM    7  C6  UNL     1      46.013  23.894  53.634  1.00  0.00     0.184 C 
HETATM    8  N2  UNL     1      46.887  24.309  52.797  1.00  0.00    -0.374 N 
ATOM      9  H21 UNL     1      47.863  24.043  52.934  1.00  0.00     0.158 HD
ATOM     10  H22 UNL     1      46.574  24.888  52.018  1.00  0.00     0.158 HD
HETATM   11  N3  UNL     1      46.445  23.096  54.709  1.00  0.00    -0.064 NA
HETATM   12  C7  UNL     1      43.547  23.538  52.908  1.00  0.00     0.137 C 
ENDROOT
BRANCH  12  13
HETATM   13  C8  UNL     1      43.876  22.727  51.702  1.00  0.00     0.186 C 
HETATM   14  C9  UNL     1      44.508  23.471  50.642  1.00  0.00    -0.090 C 
HETATM   15  C10 UNL     1      45.058  24.076  49.751  1.00  0.00     0.014 C 
BRANCH  13  16
HETATM   16  N4  UNL     1      44.601  21.542  52.104  1.00  0.00    -0.352 N 
ATOM     17  H4  UNL     1      45.203  21.629  52.923  1.00  0.00     0.163 HD
BRANCH  16  18
HETATM   18  C11 UNL     1      44.561  20.285  51.481  1.00  0.00     0.182 C 
HETATM   19  N5  UNL     1      44.029  20.138  50.178  1.00  0.00    -0.070 NA
HETATM   20  S1  UNL     1      45.153  18.998  52.313  1.00  0.00    -0.044 SA
ENDBRANCH  16  18
ENDBRANCH  13  16
ENDBRANCH  12  13
TORSDOF 3
ENDMDL
