MODEL 1
REMARK VINA RESULT: -6.618681065      0.000      0.000
REMARK  1 active torsions:
REMARK  status: ('A' for Active; 'I' for Inactive)
REMARK    1  A    between atoms: C7_8  and  N2_9 
REMARK       I    between atoms: C8_11  and  N4_13 
REMARK       I    between atoms: N4_13  and  C9_15 
ROOT
HETATM    1  C1  UNL     1      42.893  26.865  51.368  1.00  0.00     0.272 C 
HETATM    2  N1  UNL     1      44.234  26.379  51.639  1.00  0.00    -0.070 N 
HETATM    3  C2  UNL     1      45.204  27.281  51.131  1.00  0.00     0.272 C 
HETATM    4  C3  UNL     1      44.331  26.108  53.039  1.00  0.00     0.237 C 
HETATM    5  C4  UNL     1      43.686  24.737  53.264  1.00  0.00     0.034 C 
HETATM    6  C5  UNL     1      43.401  24.262  51.866  1.00  0.00     0.020 C 
HETATM    7  C6  UNL     1      43.477  22.793  51.688  1.00  0.00     0.032 C 
HETATM    8  C7  UNL     1      44.794  22.281  51.196  1.00  0.00     0.084 C 
HETATM    9  C10 UNL     1      45.960  23.152  51.601  1.00  0.00     0.027 C 
HETATM   10  C11 UNL     1      45.802  24.582  51.222  1.00  0.00     0.036 C 
HETATM   11  C12 UNL     1      44.398  25.041  51.049  1.00  0.00     0.194 C 
ENDROOT
BRANCH   8  12
HETATM   12  N2  UNL     1      45.033  20.963  51.703  1.00  0.00    -0.360 N 
HETATM   13  C8  UNL     1      44.972  19.879  51.023  1.00  0.00     0.190 C 
HETATM   14  N3  UNL     1      44.647  19.959  49.658  1.00  0.00    -0.063 NA
HETATM   15  N4  UNL     1      45.237  18.649  51.673  1.00  0.00    -0.305 N 
HETATM   16  C9  UNL     1      45.554  18.581  53.041  1.00  0.00     0.188 C 
ATOM     17  H4  UNL     1      45.197  17.785  51.131  1.00  0.00     0.171 HD
HETATM   18  N5  UNL     1      46.081  19.551  53.707  1.00  0.00    -0.373 N 
HETATM   19  N6  UNL     1      45.288  17.386  53.763  1.00  0.00    -0.064 NA
ATOM     20  H52 UNL     1      46.272  20.408  53.189  1.00  0.00     0.158 HD
ATOM     21  H51 UNL     1      46.311  19.502  54.699  1.00  0.00     0.158 HD
ATOM     22  H2  UNL     1      45.272  20.879  52.692  1.00  0.00     0.162 HD
ENDBRANCH   8  12
TORSDOF 1
ENDMDL
MODEL 2
REMARK VINA RESULT: -6.309110987      1.165      1.328
REMARK  1 active torsions:
REMARK  status: ('A' for Active; 'I' for Inactive)
REMARK    1  A    between atoms: C7_8  and  N2_9 
REMARK       I    between atoms: C8_11  and  N4_13 
REMARK       I    between atoms: N4_13  and  C9_15 
ROOT
HETATM    1  C1  UNL     1      44.442  27.102  53.230  1.00  0.00     0.272 C 
HETATM    2  N1  UNL     1      45.627  26.350  52.862  1.00  0.00    -0.070 N 
HETATM    3  C2  UNL     1      46.486  27.136  52.051  1.00  0.00     0.272 C 
HETATM    4  C3  UNL     1      46.220  25.846  54.061  1.00  0.00     0.237 C 
HETATM    5  C4  UNL     1      45.427  24.593  54.446  1.00  0.00     0.034 C 
HETATM    6  C5  UNL     1      44.499  24.405  53.277  1.00  0.00     0.020 C 
HETATM    7  C6  UNL     1      44.159  22.994  52.982  1.00  0.00     0.032 C 
HETATM    8  C7  UNL     1      45.009  22.342  51.936  1.00  0.00     0.084 C 
HETATM    9  C10 UNL     1      46.403  22.917  51.859  1.00  0.00     0.027 C 
HETATM   10  C11 UNL     1      46.437  24.395  51.686  1.00  0.00     0.036 C 
HETATM   11  C12 UNL     1      45.228  25.116  52.167  1.00  0.00     0.194 C 
ENDROOT
BRANCH   8  12
HETATM   12  N2  UNL     1      45.125  20.939  52.197  1.00  0.00    -0.360 N 
HETATM   13  C8  UNL     1      44.717  20.000  51.427  1.00  0.00     0.190 C 
HETATM   14  N3  UNL     1      44.099  20.346  50.213  1.00  0.00    -0.063 NA
HETATM   15  N4  UNL     1      44.907  18.655  51.830  1.00  0.00    -0.305 N 
HETATM   16  C9  UNL     1      45.520  18.321  53.049  1.00  0.00     0.188 C 
ATOM     17  H4  UNL     1      44.590  17.906  51.214  1.00  0.00     0.171 HD
HETATM   18  N5  UNL     1      46.351  19.087  53.671  1.00  0.00    -0.373 N 
HETATM   19  N6  UNL     1      45.226  17.073  53.663  1.00  0.00    -0.064 NA
ATOM     20  H52 UNL     1      46.562  19.982  53.231  1.00  0.00     0.158 HD
ATOM     21  H51 UNL     1      46.795  18.845  54.557  1.00  0.00     0.158 HD
ATOM     22  H2  UNL     1      45.571  20.663  53.072  1.00  0.00     0.162 HD
ENDBRANCH   8  12
TORSDOF 1
ENDMDL
MODEL 3
REMARK VINA RESULT: -6.015200161      2.181      2.494
REMARK  1 active torsions:
REMARK  status: ('A' for Active; 'I' for Inactive)
REMARK    1  A    between atoms: C7_8  and  N2_9 
REMARK       I    between atoms: C8_11  and  N4_13 
REMARK       I    between atoms: N4_13  and  C9_15 
ROOT
HETATM    1  C1  UNL     1      46.026  27.287  54.266  1.00  0.00     0.272 C 
HETATM    2  N1  UNL     1      47.105  26.367  53.955  1.00  0.00    -0.070 N 
HETATM    3  C2  UNL     1      48.204  27.060  53.386  1.00  0.00     0.272 C 
HETATM    4  C3  UNL     1      47.405  25.622  55.138  1.00  0.00     0.237 C 
HETATM    5  C4  UNL     1      46.355  24.511  55.231  1.00  0.00     0.034 C 
HETATM    6  C5  UNL     1      45.604  24.642  53.935  1.00  0.00     0.020 C 
HETATM    7  C6  UNL     1      45.073  23.367  53.399  1.00  0.00     0.032 C 
HETATM    8  C7  UNL     1      45.949  22.689  52.393  1.00  0.00     0.084 C 
HETATM    9  C10 UNL     1      47.417  22.987  52.585  1.00  0.00     0.027 C 
HETATM   10  C11 UNL     1      47.735  24.441  52.631  1.00  0.00     0.036 C 
HETATM   11  C12 UNL     1      46.610  25.322  53.044  1.00  0.00     0.194 C 
ENDROOT
BRANCH   8  12
HETATM   12  N2  UNL     1      45.776  21.269  52.464  1.00  0.00    -0.360 N 
HETATM   13  C8  UNL     1      45.271  20.531  51.547  1.00  0.00     0.190 C 
HETATM   14  N3  UNL     1      44.840  21.140  50.356  1.00  0.00    -0.063 NA
HETATM   15  N4  UNL     1      45.168  19.137  51.771  1.00  0.00    -0.305 N 
HETATM   16  C9  UNL     1      45.595  18.540  52.970  1.00  0.00     0.188 C 
ATOM     17  H4  UNL     1      44.773  18.547  51.039  1.00  0.00     0.171 HD
HETATM   18  N5  UNL     1      46.495  19.044  53.744  1.00  0.00    -0.373 N 
HETATM   19  N6  UNL     1      45.018  17.309  53.385  1.00  0.00    -0.064 NA
ATOM     20  H52 UNL     1      46.909  19.927  53.447  1.00  0.00     0.158 HD
ATOM     21  H51 UNL     1      46.805  18.611  54.615  1.00  0.00     0.158 HD
ATOM     22  H2  UNL     1      46.082  20.804  53.320  1.00  0.00     0.162 HD
ENDBRANCH   8  12
TORSDOF 1
ENDMDL
MODEL 4
REMARK VINA RESULT: -6.009207645      2.219      3.420
REMARK  1 active torsions:
REMARK  status: ('A' for Active; 'I' for Inactive)
REMARK    1  A    between atoms: C7_8  and  N2_9 
REMARK       I    between atoms: C8_11  and  N4_13 
REMARK       I    between atoms: N4_13  and  C9_15 
ROOT
HETATM    1  C1  UNL     1      44.902  27.587  48.079  1.00  0.00     0.272 C 
HETATM    2  N1  UNL     1      43.767  26.706  48.282  1.00  0.00    -0.070 N 
HETATM    3  C2  UNL     1      42.557  27.447  48.299  1.00  0.00     0.272 C 
HETATM    4  C3  UNL     1      43.830  25.671  47.298  1.00  0.00     0.237 C 
HETATM    5  C4  UNL     1      44.842  24.642  47.812  1.00  0.00     0.034 C 
HETATM    6  C5  UNL     1      45.165  25.143  49.192  1.00  0.00     0.020 C 
HETATM    7  C6  UNL     1      45.489  24.081  50.173  1.00  0.00     0.032 C 
HETATM    8  C7  UNL     1      44.339  23.621  51.012  1.00  0.00     0.084 C 
HETATM    9  C10 UNL     1      43.003  23.765  50.322  1.00  0.00     0.027 C 
HETATM   10  C11 UNL     1      42.736  25.137  49.810  1.00  0.00     0.036 C 
HETATM   11  C12 UNL     1      43.946  25.957  49.536  1.00  0.00     0.194 C 
ENDROOT
BRANCH   8  12
HETATM   12  N2  UNL     1      44.504  22.242  51.366  1.00  0.00    -0.360 N 
HETATM   13  C8  UNL     1      44.909  21.806  52.499  1.00  0.00     0.190 C 
HETATM   14  N3  UNL     1      45.225  22.736  53.505  1.00  0.00    -0.063 NA
HETATM   15  N4  UNL     1      45.020  20.407  52.693  1.00  0.00    -0.305 N 
HETATM   16  C9  UNL     1      44.709  19.487  51.678  1.00  0.00     0.188 C 
ATOM     17  H4  UNL     1      45.336  20.057  53.598  1.00  0.00     0.171 HD
HETATM   18  N5  UNL     1      43.895  19.732  50.708  1.00  0.00    -0.373 N 
HETATM   19  N6  UNL     1      45.312  18.199  51.690  1.00  0.00    -0.064 NA
ATOM     20  H52 UNL     1      43.462  20.655  50.700  1.00  0.00     0.158 HD
ATOM     21  H51 UNL     1      43.670  19.064  49.971  1.00  0.00     0.158 HD
ATOM     22  H2  UNL     1      44.281  21.548  50.652  1.00  0.00     0.162 HD
ENDBRANCH   8  12
TORSDOF 1
ENDMDL
MODEL 5
REMARK VINA RESULT: -5.929085226      1.416      2.410
REMARK  1 active torsions:
REMARK  status: ('A' for Active; 'I' for Inactive)
REMARK    1  A    between atoms: C7_8  and  N2_9 
REMARK       I    between atoms: C8_11  and  N4_13 
REMARK       I    between atoms: N4_13  and  C9_15 
ROOT
HETATM    1  C1  UNL     1      44.914  26.864  49.272  1.00  0.00     0.272 C 
HETATM    2  N1  UNL     1      43.894  25.832  49.277  1.00  0.00    -0.070 N 
HETATM    3  C2  UNL     1      42.600  26.408  49.195  1.00  0.00     0.272 C 
HETATM    4  C3  UNL     1      44.207  24.897  48.242  1.00  0.00     0.237 C 
HETATM    5  C4  UNL     1      45.287  23.967  48.806  1.00  0.00     0.034 C 
HETATM    6  C5  UNL     1      45.382  24.391  50.246  1.00  0.00     0.020 C 
HETATM    7  C6  UNL     1      45.735  23.303  51.186  1.00  0.00     0.032 C 
HETATM    8  C7  UNL     1      44.572  22.633  51.847  1.00  0.00     0.084 C 
HETATM    9  C10 UNL     1      43.315  22.661  51.010  1.00  0.00     0.027 C 
HETATM   10  C11 UNL     1      42.922  24.025  50.561  1.00  0.00     0.036 C 
HETATM   11  C12 UNL     1      44.032  25.013  50.491  1.00  0.00     0.194 C 
ENDROOT
BRANCH   8  12
HETATM   12  N2  UNL     1      44.883  21.263  52.126  1.00  0.00    -0.360 N 
HETATM   13  C8  UNL     1      44.986  20.328  51.257  1.00  0.00     0.190 C 
HETATM   14  N3  UNL     1      44.782  20.644  49.903  1.00  0.00    -0.063 NA
HETATM   15  N4  UNL     1      45.301  19.019  51.695  1.00  0.00    -0.305 N 
HETATM   16  C9  UNL     1      45.495  18.713  53.053  1.00  0.00     0.188 C 
ATOM     17  H4  UNL     1      45.391  18.274  51.003  1.00  0.00     0.171 HD
HETATM   18  N5  UNL     1      45.867  19.574  53.938  1.00  0.00    -0.373 N 
HETATM   19  N6  UNL     1      45.275  17.385  53.511  1.00  0.00    -0.064 NA
ATOM     20  H52 UNL     1      46.026  20.526  53.610  1.00  0.00     0.158 HD
ATOM     21  H51 UNL     1      46.008  19.352  54.924  1.00  0.00     0.158 HD
ATOM     22  H2  UNL     1      45.036  21.009  53.103  1.00  0.00     0.162 HD
ENDBRANCH   8  12
TORSDOF 1
ENDMDL
