MODEL 1
REMARK VINA RESULT: -5.542208149      0.000      0.000
REMARK  4 active torsions:
REMARK  status: ('A' for Active; 'I' for Inactive)
REMARK    1  A    between atoms: N1_4  and  C4_5 
REMARK    2  A    between atoms: C4_5  and  N2_7 
REMARK       I    between atoms: N2_7  and  C5_9 
REMARK       I    between atoms: C5_9  and  N6_17 
REMARK       I    between atoms: N3_10  and  C6_12 
REMARK    3  A    between atoms: N6_17  and  C7_19 
REMARK    4  A    between atoms: C7_19  and  C8_20 
ROOT
HETATM    1  N2  UNL     1      45.586  23.607  50.561  1.00  0.00    -0.166 N 
ATOM      2  H2  UNL     1      46.171  24.428  50.714  1.00  0.00     0.186 HD
HETATM    3  C5  UNL     1      44.614  23.657  49.533  1.00  0.00     0.682 C 
HETATM    4  N3  UNL     1      43.376  23.863  49.678  1.00  0.00    -0.164 N 
ATOM      5  H3  UNL     1      42.824  23.865  48.820  1.00  0.00     0.187 HD
HETATM    6  C6  UNL     1      42.665  24.086  50.849  1.00  0.00     0.200 C 
HETATM    7  N4  UNL     1      41.671  23.348  51.165  1.00  0.00    -0.373 N 
ATOM      8  H41 UNL     1      41.149  23.512  52.025  1.00  0.00     0.158 HD
ATOM      9  H42 UNL     1      41.409  22.588  50.537  1.00  0.00     0.158 HD
HETATM   10  N5  UNL     1      43.026  25.131  51.714  1.00  0.00    -0.063 NA
HETATM   11  N6  UNL     1      45.088  23.456  48.206  1.00  0.00    -0.226 N 
ATOM     12  H6  UNL     1      44.995  22.529  47.791  1.00  0.00     0.177 HD
ENDROOT
BRANCH   1  13
HETATM   13  C4  UNL     1      45.789  22.473  51.389  1.00  0.00     0.189 C 
HETATM   14  S1  UNL     1      46.782  22.641  52.674  1.00  0.00    -0.040 SA
BRANCH  13  15
HETATM   15  N1  UNL     1      45.172  21.219  51.151  1.00  0.00    -0.350 N 
HETATM   16  C2  UNL     1      44.509  20.035  51.583  1.00  0.00     0.100 A 
HETATM   17  C1  UNL     1      45.282  18.914  52.239  1.00  0.00     0.034 C 
HETATM   18  C3  UNL     1      44.799  20.240  50.144  1.00  0.00     0.150 A 
ENDBRANCH  13  15
ENDBRANCH   1  13
BRANCH  11  19
HETATM   19  C7  UNL     1      45.695  24.504  47.418  1.00  0.00     0.142 C 
BRANCH  19  20
HETATM   20  C8  UNL     1      45.701  24.076  45.973  1.00  0.00     0.004 A 
HETATM   21  C9  UNL     1      45.316  25.128  44.942  1.00  0.00     0.007 A 
HETATM   22  C10 UNL     1      46.718  24.612  45.037  1.00  0.00     0.007 A 
ENDBRANCH  19  20
ENDBRANCH  11  19
TORSDOF 4
ENDMDL
MODEL 2
REMARK VINA RESULT: -5.454862760      2.398      5.518
REMARK  4 active torsions:
REMARK  status: ('A' for Active; 'I' for Inactive)
REMARK    1  A    between atoms: N1_4  and  C4_5 
REMARK    2  A    between atoms: C4_5  and  N2_7 
REMARK       I    between atoms: N2_7  and  C5_9 
REMARK       I    between atoms: C5_9  and  N6_17 
REMARK       I    between atoms: N3_10  and  C6_12 
REMARK    3  A    between atoms: N6_17  and  C7_19 
REMARK    4  A    between atoms: C7_19  and  C8_20 
ROOT
HETATM    1  N2  UNL     1      43.055  22.923  51.707  1.00  0.00    -0.166 N 
ATOM      2  H2  UNL     1      42.185  22.496  51.388  1.00  0.00     0.186 HD
HETATM    3  C5  UNL     1      43.134  24.336  51.743  1.00  0.00     0.682 C 
HETATM    4  N3  UNL     1      43.693  25.080  50.889  1.00  0.00    -0.164 N 
ATOM      5  H3  UNL     1      43.651  26.082  51.081  1.00  0.00     0.187 HD
HETATM    6  C6  UNL     1      44.357  24.719  49.726  1.00  0.00     0.200 C 
HETATM    7  N4  UNL     1      45.564  25.083  49.518  1.00  0.00    -0.373 N 
ATOM      8  H41 UNL     1      46.052  24.818  48.663  1.00  0.00     0.158 HD
ATOM      9  H42 UNL     1      46.031  25.649  50.226  1.00  0.00     0.158 HD
HETATM   10  N5  UNL     1      43.714  23.939  48.751  1.00  0.00    -0.063 NA
HETATM   11  N6  UNL     1      42.517  24.974  52.857  1.00  0.00    -0.226 N 
ATOM     12  H6  UNL     1      43.104  25.254  53.643  1.00  0.00     0.177 HD
ENDROOT
BRANCH   1  13
HETATM   13  C4  UNL     1      44.122  22.071  52.090  1.00  0.00     0.189 C 
HETATM   14  S1  UNL     1      45.116  22.590  53.277  1.00  0.00    -0.040 SA
BRANCH  13  15
HETATM   15  N1  UNL     1      44.356  20.806  51.496  1.00  0.00    -0.350 N 
HETATM   16  C2  UNL     1      44.319  19.382  51.499  1.00  0.00     0.100 A 
HETATM   17  C1  UNL     1      45.333  18.587  52.289  1.00  0.00     0.034 C 
HETATM   18  C3  UNL     1      44.865  20.107  50.327  1.00  0.00     0.150 A 
ENDBRANCH  13  15
ENDBRANCH   1  13
BRANCH  11  19
HETATM   19  C7  UNL     1      41.100  25.244  52.926  1.00  0.00     0.142 C 
BRANCH  19  20
HETATM   20  C8  UNL     1      40.752  25.621  54.343  1.00  0.00     0.004 A 
HETATM   21  C9  UNL     1      39.580  24.888  54.982  1.00  0.00     0.007 A 
HETATM   22  C10 UNL     1      40.983  24.664  55.452  1.00  0.00     0.007 A 
ENDBRANCH  19  20
ENDBRANCH  11  19
TORSDOF 4
ENDMDL
MODEL 3
REMARK VINA RESULT: -5.328813451      2.223      5.672
REMARK  4 active torsions:
REMARK  status: ('A' for Active; 'I' for Inactive)
REMARK    1  A    between atoms: N1_4  and  C4_5 
REMARK    2  A    between atoms: C4_5  and  N2_7 
REMARK       I    between atoms: N2_7  and  C5_9 
REMARK       I    between atoms: C5_9  and  N6_17 
REMARK       I    between atoms: N3_10  and  C6_12 
REMARK    3  A    between atoms: N6_17  and  C7_19 
REMARK    4  A    between atoms: C7_19  and  C8_20 
ROOT
HETATM    1  N2  UNL     1      43.263  23.253  51.139  1.00  0.00    -0.166 N 
ATOM      2  H2  UNL     1      42.700  22.958  51.937  1.00  0.00     0.186 HD
HETATM    3  C5  UNL     1      44.506  22.613  50.923  1.00  0.00     0.682 C 
HETATM    4  N3  UNL     1      45.647  23.066  51.226  1.00  0.00    -0.164 N 
ATOM      5  H3  UNL     1      46.437  22.463  50.994  1.00  0.00     0.187 HD
HETATM    6  C6  UNL     1      45.969  24.271  51.831  1.00  0.00     0.200 C 
HETATM    7  N4  UNL     1      46.778  25.090  51.276  1.00  0.00    -0.373 N 
ATOM      8  H41 UNL     1      47.015  25.976  51.721  1.00  0.00     0.158 HD
ATOM      9  H42 UNL     1      47.186  24.838  50.376  1.00  0.00     0.158 HD
HETATM   10  N5  UNL     1      45.408  24.619  53.071  1.00  0.00    -0.063 NA
HETATM   11  N6  UNL     1      44.459  21.332  50.303  1.00  0.00    -0.226 N 
ATOM     12  H6  UNL     1      44.631  21.271  49.300  1.00  0.00     0.177 HD
ENDROOT
BRANCH   1  13
HETATM   13  C4  UNL     1      42.757  24.281  50.303  1.00  0.00     0.189 C 
HETATM   14  S1  UNL     1      41.238  24.809  50.585  1.00  0.00    -0.040 SA
BRANCH  13  15
HETATM   15  N1  UNL     1      43.506  24.862  49.249  1.00  0.00    -0.350 N 
HETATM   16  C2  UNL     1      44.112  24.828  47.961  1.00  0.00     0.100 A 
HETATM   17  C1  UNL     1      45.408  24.084  47.738  1.00  0.00     0.034 C 
HETATM   18  C3  UNL     1      44.222  26.045  48.800  1.00  0.00     0.150 A 
ENDBRANCH  13  15
ENDBRANCH   1  13
BRANCH  11  19
HETATM   19  C7  UNL     1      44.178  20.115  51.028  1.00  0.00     0.142 C 
BRANCH  19  20
HETATM   20  C8  UNL     1      45.440  19.665  51.717  1.00  0.00     0.004 A 
HETATM   21  C9  UNL     1      45.543  19.933  53.212  1.00  0.00     0.007 A 
HETATM   22  C10 UNL     1      45.408  18.539  52.682  1.00  0.00     0.007 A 
ENDBRANCH  19  20
ENDBRANCH  11  19
TORSDOF 4
ENDMDL
MODEL 4
REMARK VINA RESULT: -5.305379755      2.311      5.589
REMARK  4 active torsions:
REMARK  status: ('A' for Active; 'I' for Inactive)
REMARK    1  A    between atoms: N1_4  and  C4_5 
REMARK    2  A    between atoms: C4_5  and  N2_7 
REMARK       I    between atoms: N2_7  and  C5_9 
REMARK       I    between atoms: C5_9  and  N6_17 
REMARK       I    between atoms: N3_10  and  C6_12 
REMARK    3  A    between atoms: N6_17  and  C7_19 
REMARK    4  A    between atoms: C7_19  and  C8_20 
ROOT
HETATM    1  N2  UNL     1      44.212  23.463  51.700  1.00  0.00    -0.166 N 
ATOM      2  H2  UNL     1      45.083  23.355  52.219  1.00  0.00     0.186 HD
HETATM    3  C5  UNL     1      44.095  22.820  50.444  1.00  0.00     0.682 C 
HETATM    4  N3  UNL     1      44.226  23.359  49.308  1.00  0.00    -0.164 N 
ATOM      5  H3  UNL     1      44.107  22.738  48.508  1.00  0.00     0.187 HD
HETATM    6  C6  UNL     1      44.511  24.682  49.004  1.00  0.00     0.200 C 
HETATM    7  N4  UNL     1      43.739  25.363  48.248  1.00  0.00    -0.373 N 
ATOM      8  H41 UNL     1      43.948  26.336  48.024  1.00  0.00     0.158 HD
ATOM      9  H42 UNL     1      42.906  24.913  47.869  1.00  0.00     0.158 HD
HETATM   10  N5  UNL     1      45.658  25.303  49.526  1.00  0.00    -0.063 NA
HETATM   11  N6  UNL     1      43.801  21.428  50.472  1.00  0.00    -0.226 N 
ATOM     12  H6  UNL     1      42.834  21.132  50.339  1.00  0.00     0.177 HD
ENDROOT
BRANCH   1  13
HETATM   13  C4  UNL     1      43.180  24.248  52.274  1.00  0.00     0.189 C 
HETATM   14  S1  UNL     1      43.254  24.539  53.879  1.00  0.00    -0.040 SA
BRANCH  13  15
HETATM   15  N1  UNL     1      42.105  24.786  51.523  1.00  0.00    -0.350 N 
HETATM   16  C2  UNL     1      41.302  25.868  51.062  1.00  0.00     0.100 A 
HETATM   17  C1  UNL     1      40.268  26.499  51.964  1.00  0.00     0.034 C 
HETATM   18  C3  UNL     1      40.998  24.482  50.631  1.00  0.00     0.150 A 
ENDBRANCH  13  15
ENDBRANCH   1  13
BRANCH  11  19
HETATM   19  C7  UNL     1      44.807  20.413  50.681  1.00  0.00     0.142 C 
BRANCH  19  20
HETATM   20  C8  UNL     1      44.726  19.942  52.109  1.00  0.00     0.004 A 
HETATM   21  C9  UNL     1      45.434  18.637  52.446  1.00  0.00     0.007 A 
HETATM   22  C10 UNL     1      45.932  19.947  52.971  1.00  0.00     0.007 A 
ENDBRANCH  19  20
ENDBRANCH  11  19
TORSDOF 4
ENDMDL
MODEL 5
REMARK VINA RESULT: -5.302990761      2.199      4.498
REMARK  4 active torsions:
REMARK  status: ('A' for Active; 'I' for Inactive)
REMARK    1  A    between atoms: N1_4  and  C4_5 
REMARK    2  A    between atoms: C4_5  and  N2_7 
REMARK       I    between atoms: N2_7  and  C5_9 
REMARK       I    between atoms: C5_9  and  N6_17 
REMARK       I    between atoms: N3_10  and  C6_12 
REMARK    3  A    between atoms: N6_17  and  C7_19 
REMARK    4  A    between atoms: C7_19  and  C8_20 
ROOT
HETATM    1  N2  UNL     1      43.083  22.763  50.481  1.00  0.00    -0.166 N 
ATOM      2  H2  UNL     1      42.542  22.277  49.766  1.00  0.00     0.186 HD
HETATM    3  C5  UNL     1      43.019  24.176  50.526  1.00  0.00     0.682 C 
HETATM    4  N3  UNL     1      43.879  24.984  50.072  1.00  0.00    -0.164 N 
ATOM      5  H3  UNL     1      43.663  25.973  50.195  1.00  0.00     0.187 HD
HETATM    6  C6  UNL     1      45.076  24.704  49.430  1.00  0.00     0.200 C 
HETATM    7  N4  UNL     1      46.182  25.168  49.870  1.00  0.00    -0.373 N 
ATOM      8  H41 UNL     1      47.062  24.963  49.398  1.00  0.00     0.158 HD
ATOM      9  H42 UNL     1      46.167  25.751  50.707  1.00  0.00     0.158 HD
HETATM   10  N5  UNL     1      45.096  23.902  48.277  1.00  0.00    -0.063 NA
HETATM   11  N6  UNL     1      41.866  24.736  51.146  1.00  0.00    -0.226 N 
ATOM     12  H6  UNL     1      41.935  25.041  52.117  1.00  0.00     0.177 HD
ENDROOT
BRANCH   1  13
HETATM   13  C4  UNL     1      43.861  21.988  51.378  1.00  0.00     0.189 C 
HETATM   14  S1  UNL     1      44.347  22.697  52.767  1.00  0.00    -0.040 SA
BRANCH  13  15
HETATM   15  N1  UNL     1      44.227  20.643  51.125  1.00  0.00    -0.350 N 
HETATM   16  C2  UNL     1      44.308  19.266  51.481  1.00  0.00     0.100 A 
HETATM   17  C1  UNL     1      45.343  18.786  52.472  1.00  0.00     0.034 C 
HETATM   18  C3  UNL     1      44.849  19.728  50.181  1.00  0.00     0.150 A 
ENDBRANCH  13  15
ENDBRANCH   1  13
BRANCH  11  19
HETATM   19  C7  UNL     1      40.602  24.892  50.465  1.00  0.00     0.142 C 
BRANCH  19  20
HETATM   20  C8  UNL     1      40.378  26.359  50.199  1.00  0.00     0.004 A 
HETATM   21  C9  UNL     1      38.990  26.769  49.725  1.00  0.00     0.007 A 
HETATM   22  C10 UNL     1      39.491  27.154  51.082  1.00  0.00     0.007 A 
ENDBRANCH  19  20
ENDBRANCH  11  19
TORSDOF 4
ENDMDL
