MODEL 1
REMARK VINA RESULT: -5.072875095      0.000      0.000
REMARK  7 active torsions:
REMARK  status: ('A' for Active; 'I' for Inactive)
REMARK       I    between atoms: C1_2  and  N1_3 
REMARK    1  A    between atoms: C1_2  and  C7_18 
REMARK    2  A    between atoms: N1_3  and  N2_5 
REMARK    3  A    between atoms: N2_5  and  C2_7 
REMARK    4  A    between atoms: C2_7  and  N3_9 
REMARK    5  A    between atoms: N3_9  and  C3_11 
REMARK    6  A    between atoms: C3_11  and  N4_13 
REMARK    7  A    between atoms: N4_13  and  C4_15 
ROOT
HETATM    1  C2  UNL     1      27.349  11.252  20.334  1.00  0.00     0.192 C 
HETATM    2  S1  UNL     1      26.308   9.931  20.550  1.00  0.00    -0.039 SA
ENDROOT
BRANCH   1   3
HETATM    3  N2  UNL     1      26.809  12.395  19.716  1.00  0.00    -0.273 N 
ATOM      4  H2  UNL     1      25.808  12.448  19.528  1.00  0.00     0.189 HD
BRANCH   3   5
HETATM    5  N1  UNL     1      27.657  13.474  19.356  1.00  0.00    -0.268 N 
HETATM    6  C1  UNL     1      28.438  13.517  18.187  1.00  0.00     0.240 C 
HETATM    7  O1  UNL     1      28.387  12.529  17.393  1.00  0.00    -0.271 OA
ATOM      8  H1  UNL     1      27.703  14.273  19.988  1.00  0.00     0.190 HD
BRANCH   6   9
HETATM    9  C7  UNL     1      29.306  14.672  17.857  1.00  0.00     0.080 A 
HETATM   10  C8  UNL     1      28.501  15.886  17.332  1.00  0.00     0.015 A 
HETATM   11  C9  UNL     1      29.526  15.160  16.495  1.00  0.00     0.015 A 
ENDBRANCH   6   9
ENDBRANCH   3   5
ENDBRANCH   1   3
BRANCH   1  12
HETATM   12  N3  UNL     1      28.624  11.051  20.812  1.00  0.00    -0.309 N 
ATOM     13  H3  UNL     1      28.851  11.505  21.696  1.00  0.00     0.170 HD
BRANCH  12  14
HETATM   14  C3  UNL     1      29.642  10.298  20.223  1.00  0.00     0.174 C 
HETATM   15  S2  UNL     1      30.087   8.800  20.616  1.00  0.00    -0.041 SA
BRANCH  14  16
HETATM   16  N4  UNL     1      30.392  10.902  19.133  1.00  0.00    -0.362 N 
ATOM     17  H4  UNL     1      30.394  11.912  18.992  1.00  0.00     0.162 HD
BRANCH  16  18
HETATM   18  C4  UNL     1      31.129  10.031  18.262  1.00  0.00     0.084 A 
HETATM   19  C5  UNL     1      31.465  10.629  16.879  1.00  0.00     0.027 A 
HETATM   20  C6  UNL     1      32.521  10.288  17.882  1.00  0.00     0.027 A 
ENDBRANCH  16  18
ENDBRANCH  14  16
ENDBRANCH  12  14
ENDBRANCH   1  12
TORSDOF 7
ENDMDL
MODEL 2
REMARK VINA RESULT: -5.032572231      2.092      3.516
REMARK  7 active torsions:
REMARK  status: ('A' for Active; 'I' for Inactive)
REMARK       I    between atoms: C1_2  and  N1_3 
REMARK    1  A    between atoms: C1_2  and  C7_18 
REMARK    2  A    between atoms: N1_3  and  N2_5 
REMARK    3  A    between atoms: N2_5  and  C2_7 
REMARK    4  A    between atoms: C2_7  and  N3_9 
REMARK    5  A    between atoms: N3_9  and  C3_11 
REMARK    6  A    between atoms: C3_11  and  N4_13 
REMARK    7  A    between atoms: N4_13  and  C4_15 
ROOT
HETATM    1  C2  UNL     1      28.530  10.530  17.417  1.00  0.00     0.192 C 
HETATM    2  S1  UNL     1      28.540   8.895  17.865  1.00  0.00    -0.039 SA
ENDROOT
BRANCH   1   3
HETATM    3  N2  UNL     1      29.636  10.997  16.682  1.00  0.00    -0.273 N 
ATOM      4  H2  UNL     1      30.354  10.343  16.371  1.00  0.00     0.189 HD
BRANCH   3   5
HETATM    5  N1  UNL     1      29.752  12.377  16.374  1.00  0.00    -0.268 N 
HETATM    6  C1  UNL     1      29.978  13.389  17.324  1.00  0.00     0.240 C 
HETATM    7  O1  UNL     1      30.087  13.056  18.542  1.00  0.00    -0.271 OA
ATOM      8  H1  UNL     1      29.666  12.654  15.396  1.00  0.00     0.190 HD
BRANCH   6   9
HETATM    9  C7  UNL     1      30.093  14.817  16.947  1.00  0.00     0.080 A 
HETATM   10  C8  UNL     1      28.779  15.600  17.190  1.00  0.00     0.015 A 
HETATM   11  C9  UNL     1      29.382  15.420  15.819  1.00  0.00     0.015 A 
ENDBRANCH   6   9
ENDBRANCH   3   5
ENDBRANCH   1   3
BRANCH   1  12
HETATM   12  N3  UNL     1      27.411  11.221  17.821  1.00  0.00    -0.309 N 
ATOM     13  H3  UNL     1      26.926  11.756  17.102  1.00  0.00     0.170 HD
BRANCH  12  14
HETATM   14  C3  UNL     1      26.864  11.274  19.106  1.00  0.00     0.174 C 
HETATM   15  S2  UNL     1      25.458  10.648  19.585  1.00  0.00    -0.041 SA
BRANCH  14  16
HETATM   16  N4  UNL     1      27.626  11.954  20.142  1.00  0.00    -0.362 N 
ATOM     17  H4  UNL     1      27.853  12.945  20.064  1.00  0.00     0.162 HD
BRANCH  16  18
HETATM   18  C4  UNL     1      28.047  11.184  21.279  1.00  0.00     0.084 A 
HETATM   19  C5  UNL     1      29.480  10.617  21.183  1.00  0.00     0.027 A 
HETATM   20  C6  UNL     1      29.091  11.644  22.199  1.00  0.00     0.027 A 
ENDBRANCH  16  18
ENDBRANCH  14  16
ENDBRANCH  12  14
ENDBRANCH   1  12
TORSDOF 7
ENDMDL
MODEL 3
REMARK VINA RESULT: -4.981070199      2.478      4.875
REMARK  7 active torsions:
REMARK  status: ('A' for Active; 'I' for Inactive)
REMARK       I    between atoms: C1_2  and  N1_3 
REMARK    1  A    between atoms: C1_2  and  C7_18 
REMARK    2  A    between atoms: N1_3  and  N2_5 
REMARK    3  A    between atoms: N2_5  and  C2_7 
REMARK    4  A    between atoms: C2_7  and  N3_9 
REMARK    5  A    between atoms: N3_9  and  C3_11 
REMARK    6  A    between atoms: C3_11  and  N4_13 
REMARK    7  A    between atoms: N4_13  and  C4_15 
ROOT
HETATM    1  C2  UNL     1      28.871  12.429  19.515  1.00  0.00     0.192 C 
HETATM    2  S1  UNL     1      29.226  11.637  20.971  1.00  0.00    -0.039 SA
ENDROOT
BRANCH   1   3
HETATM    3  N2  UNL     1      27.538  12.835  19.317  1.00  0.00    -0.273 N 
ATOM      4  H2  UNL     1      27.337  13.676  18.776  1.00  0.00     0.189 HD
BRANCH   3   5
HETATM    5  N1  UNL     1      26.475  12.077  19.871  1.00  0.00    -0.268 N 
HETATM    6  C1  UNL     1      25.931  10.921  19.283  1.00  0.00     0.240 C 
HETATM    7  O1  UNL     1      26.418  10.520  18.183  1.00  0.00    -0.271 OA
ATOM      8  H1  UNL     1      26.077  12.391  20.756  1.00  0.00     0.190 HD
BRANCH   6   9
HETATM    9  C7  UNL     1      24.820  10.164  19.905  1.00  0.00     0.080 A 
HETATM   10  C8  UNL     1      25.322   9.075  20.885  1.00  0.00     0.015 A 
HETATM   11  C9  UNL     1      24.545   8.752  19.633  1.00  0.00     0.015 A 
ENDBRANCH   6   9
ENDBRANCH   3   5
ENDBRANCH   1   3
BRANCH   1  12
HETATM   12  N3  UNL     1      29.954  12.597  18.683  1.00  0.00    -0.309 N 
ATOM     13  H3  UNL     1      30.767  13.062  19.087  1.00  0.00     0.170 HD
BRANCH  12  14
HETATM   14  C3  UNL     1      30.068  12.203  17.347  1.00  0.00     0.174 C 
HETATM   15  S2  UNL     1      30.508  10.752  16.801  1.00  0.00    -0.041 SA
BRANCH  14  16
HETATM   16  N4  UNL     1      29.757  13.184  16.320  1.00  0.00    -0.362 N 
ATOM     17  H4  UNL     1      29.325  12.906  15.439  1.00  0.00     0.162 HD
BRANCH  16  18
HETATM   18  C4  UNL     1      30.079  14.558  16.586  1.00  0.00     0.084 A 
HETATM   19  C5  UNL     1      29.536  15.564  15.548  1.00  0.00     0.027 A 
HETATM   20  C6  UNL     1      29.066  15.546  16.968  1.00  0.00     0.027 A 
ENDBRANCH  16  18
ENDBRANCH  14  16
ENDBRANCH  12  14
ENDBRANCH   1  12
TORSDOF 7
ENDMDL
MODEL 4
REMARK VINA RESULT: -4.979078998      2.764      3.399
REMARK  7 active torsions:
REMARK  status: ('A' for Active; 'I' for Inactive)
REMARK       I    between atoms: C1_2  and  N1_3 
REMARK    1  A    between atoms: C1_2  and  C7_18 
REMARK    2  A    between atoms: N1_3  and  N2_5 
REMARK    3  A    between atoms: N2_5  and  C2_7 
REMARK    4  A    between atoms: C2_7  and  N3_9 
REMARK    5  A    between atoms: N3_9  and  C3_11 
REMARK    6  A    between atoms: C3_11  and  N4_13 
REMARK    7  A    between atoms: N4_13  and  C4_15 
ROOT
HETATM    1  C2  UNL     1      27.735  11.217  20.021  1.00  0.00     0.192 C 
HETATM    2  S1  UNL     1      28.868  11.306  21.279  1.00  0.00    -0.039 SA
ENDROOT
BRANCH   1   3
HETATM    3  N2  UNL     1      27.021  12.392  19.720  1.00  0.00    -0.273 N 
ATOM      4  H2  UNL     1      26.002  12.392  19.757  1.00  0.00     0.189 HD
BRANCH   3   5
HETATM    5  N1  UNL     1      27.718  13.577  19.368  1.00  0.00    -0.268 N 
HETATM    6  C1  UNL     1      28.444  13.749  18.176  1.00  0.00     0.240 C 
HETATM    7  O1  UNL     1      28.485  12.786  17.353  1.00  0.00    -0.271 OA
ATOM      8  H1  UNL     1      27.690  14.357  20.024  1.00  0.00     0.190 HD
BRANCH   6   9
HETATM    9  C7  UNL     1      29.153  15.010  17.856  1.00  0.00     0.080 A 
HETATM   10  C8  UNL     1      28.192  16.120  17.363  1.00  0.00     0.015 A 
HETATM   11  C9  UNL     1      29.289  15.545  16.501  1.00  0.00     0.015 A 
ENDBRANCH   6   9
ENDBRANCH   3   5
ENDBRANCH   1   3
BRANCH   1  12
HETATM   12  N3  UNL     1      27.655   9.983  19.417  1.00  0.00    -0.309 N 
ATOM     13  H3  UNL     1      27.314   9.218  19.998  1.00  0.00     0.170 HD
BRANCH  12  14
HETATM   14  C3  UNL     1      27.987   9.659  18.099  1.00  0.00     0.174 C 
HETATM   15  S2  UNL     1      29.353   8.976  17.586  1.00  0.00    -0.041 SA
BRANCH  14  16
HETATM   16  N4  UNL     1      27.012   9.954  17.061  1.00  0.00    -0.362 N 
ATOM     17  H4  UNL     1      26.902  10.900  16.695  1.00  0.00     0.162 HD
BRANCH  16  18
HETATM   18  C4  UNL     1      26.211   8.871  16.566  1.00  0.00     0.084 A 
HETATM   19  C5  UNL     1      24.697   9.010  16.832  1.00  0.00     0.027 A 
HETATM   20  C6  UNL     1      25.272   9.028  15.452  1.00  0.00     0.027 A 
ENDBRANCH  16  18
ENDBRANCH  14  16
ENDBRANCH  12  14
ENDBRANCH   1  12
TORSDOF 7
ENDMDL
MODEL 5
REMARK VINA RESULT: -4.960604220      3.019      5.187
REMARK  7 active torsions:
REMARK  status: ('A' for Active; 'I' for Inactive)
REMARK       I    between atoms: C1_2  and  N1_3 
REMARK    1  A    between atoms: C1_2  and  C7_18 
REMARK    2  A    between atoms: N1_3  and  N2_5 
REMARK    3  A    between atoms: N2_5  and  C2_7 
REMARK    4  A    between atoms: C2_7  and  N3_9 
REMARK    5  A    between atoms: N3_9  and  C3_11 
REMARK    6  A    between atoms: C3_11  and  N4_13 
REMARK    7  A    between atoms: N4_13  and  C4_15 
ROOT
HETATM    1  C2  UNL     1      27.774  11.935  19.134  1.00  0.00     0.192 C 
HETATM    2  S1  UNL     1      26.386  10.974  19.287  1.00  0.00    -0.039 SA
ENDROOT
BRANCH   1   3
HETATM    3  N2  UNL     1      28.328  12.450  20.321  1.00  0.00    -0.273 N 
ATOM      4  H2  UNL     1      28.587  13.435  20.377  1.00  0.00     0.189 HD
BRANCH   3   5
HETATM    5  N1  UNL     1      28.526  11.601  21.440  1.00  0.00    -0.268 N 
HETATM    6  C1  UNL     1      29.115  12.003  22.651  1.00  0.00     0.240 C 
HETATM    7  O1  UNL     1      29.500  13.206  22.762  1.00  0.00    -0.271 OA
ATOM      8  H1  UNL     1      28.219  10.631  21.360  1.00  0.00     0.190 HD
BRANCH   6   9
HETATM    9  C7  UNL     1      29.297  11.074  23.791  1.00  0.00     0.080 A 
HETATM   10  C8  UNL     1      28.148  11.174  24.824  1.00  0.00     0.015 A 
HETATM   11  C9  UNL     1      29.581  11.510  25.158  1.00  0.00     0.015 A 
ENDBRANCH   6   9
ENDBRANCH   3   5
ENDBRANCH   1   3
BRANCH   1  12
HETATM   12  N3  UNL     1      28.214  12.093  17.840  1.00  0.00    -0.309 N 
ATOM     13  H3  UNL     1      27.499  12.067  17.113  1.00  0.00     0.170 HD
BRANCH  12  14
HETATM   14  C3  UNL     1      29.529  12.283  17.408  1.00  0.00     0.174 C 
HETATM   15  S2  UNL     1      30.848  11.549  17.971  1.00  0.00    -0.041 SA
BRANCH  14  16
HETATM   16  N4  UNL     1      29.760  13.234  16.332  1.00  0.00    -0.362 N 
ATOM     17  H4  UNL     1      29.732  12.942  15.355  1.00  0.00     0.162 HD
BRANCH  16  18
HETATM   18  C4  UNL     1      30.029  14.598  16.689  1.00  0.00     0.084 A 
HETATM   19  C5  UNL     1      29.396  15.650  15.754  1.00  0.00     0.027 A 
HETATM   20  C6  UNL     1      28.988  15.503  17.186  1.00  0.00     0.027 A 
ENDBRANCH  16  18
ENDBRANCH  14  16
ENDBRANCH  12  14
ENDBRANCH   1  12
TORSDOF 7
ENDMDL
