MODEL 1
REMARK VINA RESULT: -5.832994253      0.000      0.000
REMARK  3 active torsions:
REMARK  status: ('A' for Active; 'I' for Inactive)
REMARK       I    between atoms: C2_2  and  N1_4 
REMARK    1  A    between atoms: N1_4  and  C3_6 
REMARK    2  A    between atoms: C6_12  and  C7_13 
REMARK       I    between atoms: C7_13  and  N3_15 
REMARK    3  A    between atoms: N3_15  and  C8_17 
ROOT
HETATM    1  C3  UNL     1      29.720  13.239  17.770  1.00  0.00     0.111 C 
HETATM    2  C4  UNL     1      30.822  12.250  17.498  1.00  0.00     0.257 C 
HETATM    3  N2  UNL     1      30.996  11.294  18.556  1.00  0.00    -0.072 N 
ATOM      4  H21 UNL     1      31.423  11.727  19.375  1.00  0.00     0.277 HD
ATOM      5  H22 UNL     1      31.727  10.622  18.326  1.00  0.00     0.277 HD
HETATM    6  C5  UNL     1      29.761  10.619  18.907  1.00  0.00     0.246 C 
HETATM    7  C6  UNL     1      28.773  11.649  19.333  1.00  0.00     0.105 C 
HETATM    8  C12 UNL     1      28.429  12.499  18.127  1.00  0.00     0.042 C 
ENDROOT
BRANCH   7   9
HETATM    9  C7  UNL     1      27.601  11.113  20.021  1.00  0.00     0.224 C 
HETATM   10  O2  UNL     1      27.057  11.798  20.920  1.00  0.00    -0.273 OA
HETATM   11  N3  UNL     1      27.111   9.825  19.645  1.00  0.00    -0.353 N 
ATOM     12  H3  UNL     1      27.591   9.311  18.906  1.00  0.00     0.163 HD
BRANCH  11  13
HETATM   13  C8  UNL     1      25.958   9.227  20.278  1.00  0.00     0.022 C 
HETATM   14  C9  UNL     1      26.172   8.998  21.754  1.00  0.00     0.037 C 
HETATM   15  C10 UNL     1      24.769  10.127  20.013  1.00  0.00     0.037 C 
HETATM   16  C11 UNL     1      25.647   7.887  19.655  1.00  0.00     0.037 C 
ENDBRANCH  11  13
ENDBRANCH   7   9
BRANCH   1  17
HETATM   17  N1  UNL     1      29.477  14.032  16.594  1.00  0.00    -0.355 N 
HETATM   18  C2  UNL     1      29.334  15.436  16.657  1.00  0.00     0.213 C 
HETATM   19  C1  UNL     1      29.083  16.280  15.464  1.00  0.00     0.117 C 
HETATM   20  O1  UNL     1      29.418  16.015  17.768  1.00  0.00    -0.274 OA
ATOM     21  H1  UNL     1      29.407  13.567  15.689  1.00  0.00     0.162 HD
ENDBRANCH   1  17
TORSDOF 3
ENDMDL
MODEL 2
REMARK VINA RESULT: -5.539394337      1.894      2.425
REMARK  3 active torsions:
REMARK  status: ('A' for Active; 'I' for Inactive)
REMARK       I    between atoms: C2_2  and  N1_4 
REMARK    1  A    between atoms: N1_4  and  C3_6 
REMARK    2  A    between atoms: C6_12  and  C7_13 
REMARK       I    between atoms: C7_13  and  N3_15 
REMARK    3  A    between atoms: N3_15  and  C8_17 
ROOT
HETATM    1  C3  UNL     1      29.773  13.471  17.996  1.00  0.00     0.111 C 
HETATM    2  C4  UNL     1      30.565  12.374  17.334  1.00  0.00     0.257 C 
HETATM    3  N2  UNL     1      31.070  11.403  18.265  1.00  0.00    -0.072 N 
ATOM      4  H21 UNL     1      31.837  11.789  18.816  1.00  0.00     0.277 HD
ATOM      5  H22 UNL     1      31.573  10.660  17.781  1.00  0.00     0.277 HD
HETATM    6  C5  UNL     1      30.034  10.858  19.121  1.00  0.00     0.246 C 
HETATM    7  C6  UNL     1      29.414  11.984  19.875  1.00  0.00     0.105 C 
HETATM    8  C12 UNL     1      28.683  12.868  18.884  1.00  0.00     0.042 C 
ENDROOT
BRANCH   7   9
HETATM    9  C7  UNL     1      28.587  11.571  21.006  1.00  0.00     0.224 C 
HETATM   10  O2  UNL     1      27.364  11.842  20.997  1.00  0.00    -0.273 OA
HETATM   11  N3  UNL     1      29.204  10.869  22.087  1.00  0.00    -0.353 N 
ATOM     12  H3  UNL     1      30.204  10.673  22.043  1.00  0.00     0.163 HD
BRANCH  11  13
HETATM   13  C8  UNL     1      28.454  10.427  23.241  1.00  0.00     0.022 C 
HETATM   14  C9  UNL     1      27.972  11.582  24.085  1.00  0.00     0.037 C 
HETATM   15  C10 UNL     1      27.307   9.572  22.746  1.00  0.00     0.037 C 
HETATM   16  C11 UNL     1      29.310   9.551  24.125  1.00  0.00     0.037 C 
ENDBRANCH  11  13
ENDBRANCH   7   9
BRANCH   1  17
HETATM   17  N1  UNL     1      29.141  14.287  16.994  1.00  0.00    -0.355 N 
HETATM   18  C2  UNL     1      29.006  15.685  17.145  1.00  0.00     0.213 C 
HETATM   19  C1  UNL     1      28.360  16.552  16.131  1.00  0.00     0.117 C 
HETATM   20  O1  UNL     1      29.446  16.238  18.183  1.00  0.00    -0.274 OA
ATOM     21  H1  UNL     1      28.781  13.843  16.149  1.00  0.00     0.162 HD
ENDBRANCH   1  17
TORSDOF 3
ENDMDL
MODEL 3
REMARK VINA RESULT: -5.482216750      1.842      2.108
REMARK  3 active torsions:
REMARK  status: ('A' for Active; 'I' for Inactive)
REMARK       I    between atoms: C2_2  and  N1_4 
REMARK    1  A    between atoms: N1_4  and  C3_6 
REMARK    2  A    between atoms: C6_12  and  C7_13 
REMARK       I    between atoms: C7_13  and  N3_15 
REMARK    3  A    between atoms: N3_15  and  C8_17 
ROOT
HETATM    1  C3  UNL     1      28.301  13.207  18.747  1.00  0.00     0.111 C 
HETATM    2  C4  UNL     1      29.292  12.966  19.855  1.00  0.00     0.257 C 
HETATM    3  N2  UNL     1      28.702  12.366  21.018  1.00  0.00    -0.072 N 
ATOM      4  H21 UNL     1      28.120  13.036  21.521  1.00  0.00     0.277 HD
ATOM      5  H22 UNL     1      29.405  12.188  21.736  1.00  0.00     0.277 HD
HETATM    6  C5  UNL     1      27.958  11.159  20.708  1.00  0.00     0.246 C 
HETATM    7  C6  UNL     1      26.883  11.512  19.739  1.00  0.00     0.105 C 
HETATM    8  C12 UNL     1      27.540  11.917  18.435  1.00  0.00     0.042 C 
ENDROOT
BRANCH   7   9
HETATM    9  C7  UNL     1      25.854  10.487  19.579  1.00  0.00     0.224 C 
HETATM   10  O2  UNL     1      24.688  10.730  19.969  1.00  0.00    -0.273 OA
HETATM   11  N3  UNL     1      26.213   9.240  18.980  1.00  0.00    -0.353 N 
ATOM     12  H3  UNL     1      27.177   9.096  18.679  1.00  0.00     0.163 HD
BRANCH  11  13
HETATM   13  C8  UNL     1      25.252   8.178  18.788  1.00  0.00     0.022 C 
HETATM   14  C9  UNL     1      24.365   7.985  19.993  1.00  0.00     0.037 C 
HETATM   15  C10 UNL     1      24.452   8.501  17.543  1.00  0.00     0.037 C 
HETATM   16  C11 UNL     1      25.958   6.867  18.533  1.00  0.00     0.037 C 
ENDBRANCH  11  13
ENDBRANCH   7   9
BRANCH   1  17
HETATM   17  N1  UNL     1      28.995  13.623  17.557  1.00  0.00    -0.355 N 
HETATM   18  C2  UNL     1      28.913  14.946  17.069  1.00  0.00     0.213 C 
HETATM   19  C1  UNL     1      29.615  15.405  15.846  1.00  0.00     0.117 C 
HETATM   20  O1  UNL     1      28.215  15.788  17.685  1.00  0.00    -0.274 OA
ATOM     21  H1  UNL     1      29.562  12.943  17.051  1.00  0.00     0.162 HD
ENDBRANCH   1  17
TORSDOF 3
ENDMDL
MODEL 4
REMARK VINA RESULT: -5.382668850      3.560      5.933
REMARK  3 active torsions:
REMARK  status: ('A' for Active; 'I' for Inactive)
REMARK       I    between atoms: C2_2  and  N1_4 
REMARK    1  A    between atoms: N1_4  and  C3_6 
REMARK    2  A    between atoms: C6_12  and  C7_13 
REMARK       I    between atoms: C7_13  and  N3_15 
REMARK    3  A    between atoms: N3_15  and  C8_17 
ROOT
HETATM    1  C3  UNL     1      29.493  12.167  17.172  1.00  0.00     0.111 C 
HETATM    2  C4  UNL     1      28.387  11.194  17.481  1.00  0.00     0.257 C 
HETATM    3  N2  UNL     1      28.610   9.890  16.920  1.00  0.00    -0.072 N 
ATOM      4  H21 UNL     1      28.482   9.899  15.909  1.00  0.00     0.277 HD
ATOM      5  H22 UNL     1      27.859   9.248  17.175  1.00  0.00     0.277 HD
HETATM    6  C5  UNL     1      29.905   9.342  17.278  1.00  0.00     0.246 C 
HETATM    7  C6  UNL     1      30.957  10.276  16.784  1.00  0.00     0.105 C 
HETATM    8  C12 UNL     1      30.844  11.568  17.567  1.00  0.00     0.042 C 
ENDROOT
BRANCH   7   9
HETATM    9  C7  UNL     1      32.306   9.716  16.775  1.00  0.00     0.224 C 
HETATM   10  O2  UNL     1      32.550   8.729  16.041  1.00  0.00    -0.273 OA
HETATM   11  N3  UNL     1      33.303  10.313  17.605  1.00  0.00    -0.353 N 
ATOM     12  H3  UNL     1      33.050  11.115  18.182  1.00  0.00     0.163 HD
BRANCH  11  13
HETATM   13  C8  UNL     1      34.660   9.817  17.651  1.00  0.00     0.022 C 
HETATM   14  C9  UNL     1      34.723   8.363  18.052  1.00  0.00     0.037 C 
HETATM   15  C10 UNL     1      35.285  10.056  16.292  1.00  0.00     0.037 C 
HETATM   16  C11 UNL     1      35.475  10.596  18.656  1.00  0.00     0.037 C 
ENDBRANCH  11  13
ENDBRANCH   7   9
BRANCH   1  17
HETATM   17  N1  UNL     1      29.298  13.379  17.922  1.00  0.00    -0.355 N 
HETATM   18  C2  UNL     1      29.226  14.642  17.294  1.00  0.00     0.213 C 
HETATM   19  C1  UNL     1      29.026  15.909  18.040  1.00  0.00     0.117 C 
HETATM   20  O1  UNL     1      29.338  14.718  16.046  1.00  0.00    -0.274 OA
ATOM     21  H1  UNL     1      29.208  13.324  18.936  1.00  0.00     0.162 HD
ENDBRANCH   1  17
TORSDOF 3
ENDMDL
MODEL 5
REMARK VINA RESULT: -5.351175391      1.998      2.418
REMARK  3 active torsions:
REMARK  status: ('A' for Active; 'I' for Inactive)
REMARK       I    between atoms: C2_2  and  N1_4 
REMARK    1  A    between atoms: N1_4  and  C3_6 
REMARK    2  A    between atoms: C6_12  and  C7_13 
REMARK       I    between atoms: C7_13  and  N3_15 
REMARK    3  A    between atoms: N3_15  and  C8_17 
ROOT
HETATM    1  C3  UNL     1      28.331  13.185  18.442  1.00  0.00     0.111 C 
HETATM    2  C4  UNL     1      29.231  13.153  19.648  1.00  0.00     0.257 C 
HETATM    3  N2  UNL     1      28.688  12.387  20.736  1.00  0.00    -0.072 N 
ATOM      4  H21 UNL     1      27.912  12.879  21.179  1.00  0.00     0.277 HD
ATOM      5  H22 UNL     1      29.336  12.360  21.524  1.00  0.00     0.277 HD
HETATM    6  C5  UNL     1      28.298  11.048  20.337  1.00  0.00     0.246 C 
HETATM    7  C6  UNL     1      27.275  11.164  19.260  1.00  0.00     0.105 C 
HETATM    8  C12 UNL     1      27.943  11.761  18.038  1.00  0.00     0.042 C 
ENDROOT
BRANCH   7   9
HETATM    9  C7  UNL     1      26.549   9.927  18.981  1.00  0.00     0.224 C 
HETATM   10  O2  UNL     1      26.550   9.015  19.840  1.00  0.00    -0.273 OA
HETATM   11  N3  UNL     1      25.861   9.801  17.736  1.00  0.00    -0.353 N 
ATOM     12  H3  UNL     1      25.893  10.575  17.073  1.00  0.00     0.163 HD
BRANCH  11  13
HETATM   13  C8  UNL     1      25.121   8.609  17.386  1.00  0.00     0.022 C 
HETATM   14  C9  UNL     1      24.234   8.137  18.512  1.00  0.00     0.037 C 
HETATM   15  C10 UNL     1      24.329   8.910  16.130  1.00  0.00     0.037 C 
HETATM   16  C11 UNL     1      26.066   7.479  17.053  1.00  0.00     0.037 C 
ENDBRANCH  11  13
ENDBRANCH   7   9
BRANCH   1  17
HETATM   17  N1  UNL     1      29.020  13.798  17.338  1.00  0.00    -0.355 N 
HETATM   18  C2  UNL     1      28.820  15.152  16.992  1.00  0.00     0.213 C 
HETATM   19  C1  UNL     1      29.515  15.812  15.859  1.00  0.00     0.117 C 
HETATM   20  O1  UNL     1      28.018  15.848  17.661  1.00  0.00    -0.274 OA
ATOM     21  H1  UNL     1      29.672  13.237  16.789  1.00  0.00     0.162 HD
ENDBRANCH   1  17
TORSDOF 3
ENDMDL
