MODEL 1
REMARK VINA RESULT: -5.741329381      0.000      0.000
REMARK  3 active torsions:
REMARK  status: ('A' for Active; 'I' for Inactive)
REMARK    1  A    between atoms: C2_2  and  N1_3 
REMARK       I    between atoms: N1_3  and  C3_5 
REMARK       I    between atoms: C3_5  and  N2_7 
REMARK    2  A    between atoms: N2_7  and  C4_9 
REMARK       I    between atoms: N3_13  and  C8_14 
REMARK       I    between atoms: C8_14  and  N5_18 
REMARK    3  A    between atoms: N5_18  and  C9_20 
ROOT
HETATM    1  C4  UNL     1      29.131  11.305  20.894  1.00  0.00     0.104 C 
HETATM    2  C5  UNL     1      29.903  10.037  20.676  1.00  0.00     0.028 C 
HETATM    3  C6  UNL     1      29.466   8.904  21.567  1.00  0.00     0.022 C 
HETATM    4  C7  UNL     1      29.392   9.464  22.994  1.00  0.00     0.141 C 
HETATM    5  N3  UNL     1      28.363  10.478  22.985  1.00  0.00    -0.216 N 
HETATM    6  C8  UNL     1      27.842  10.919  24.251  1.00  0.00     0.670 C 
HETATM    7  N4  UNL     1      28.229  12.093  24.612  1.00  0.00    -0.235 N 
ATOM      8  H41 UNL     1      27.859  12.405  25.509  1.00  0.00     0.174 HD
ATOM      9  H42 UNL     1      28.856  12.686  24.069  1.00  0.00     0.174 HD
HETATM   10  N5  UNL     1      26.965  10.089  25.009  1.00  0.00    -0.218 N 
ATOM     11  H5  UNL     1      26.153   9.712  24.520  1.00  0.00     0.178 HD
HETATM   12  C13 UNL     1      27.907  11.000  21.713  1.00  0.00     0.166 C 
ENDROOT
BRANCH  10  13
HETATM   13  C9  UNL     1      27.107   9.733  26.376  1.00  0.00     0.036 C 
HETATM   14  C10 UNL     1      26.444   8.376  26.601  1.00  0.00     0.038 C 
HETATM   15  C11 UNL     1      26.553  10.743  27.359  1.00  0.00     0.038 C 
HETATM   16  C12 UNL     1      28.569   9.528  26.801  1.00  0.00     0.038 C 
ENDBRANCH  10  13
BRANCH   1  17
HETATM   17  N2  UNL     1      28.845  11.912  19.632  1.00  0.00    -0.337 N 
HETATM   18  C3  UNL     1      28.842  13.315  19.401  1.00  0.00     0.316 C 
HETATM   19  N1  UNL     1      28.545  13.823  18.115  1.00  0.00    -0.343 N 
HETATM   20  O1  UNL     1      29.098  14.144  20.309  1.00  0.00    -0.247 OA
ATOM     21  H1  UNL     1      28.333  13.173  17.357  1.00  0.00     0.164 HD
ATOM     22  H2  UNL     1      28.628  11.300  18.846  1.00  0.00     0.164 HD
BRANCH  19  23
HETATM   23  C2  UNL     1      28.536  15.242  17.852  1.00  0.00     0.120 C 
HETATM   24  C1  UNL     1      29.256  15.583  16.582  1.00  0.00     0.026 C 
ENDBRANCH  19  23
ENDBRANCH   1  17
TORSDOF 3
ENDMDL
MODEL 2
REMARK VINA RESULT: -5.490333848      3.227      3.982
REMARK  3 active torsions:
REMARK  status: ('A' for Active; 'I' for Inactive)
REMARK    1  A    between atoms: C2_2  and  N1_3 
REMARK       I    between atoms: N1_3  and  C3_5 
REMARK       I    between atoms: C3_5  and  N2_7 
REMARK    2  A    between atoms: N2_7  and  C4_9 
REMARK       I    between atoms: N3_13  and  C8_14 
REMARK       I    between atoms: C8_14  and  N5_18 
REMARK    3  A    between atoms: N5_18  and  C9_20 
ROOT
HETATM    1  C4  UNL     1      28.123  11.754  19.915  1.00  0.00     0.104 C 
HETATM    2  C5  UNL     1      28.988  11.597  21.130  1.00  0.00     0.028 C 
HETATM    3  C6  UNL     1      28.848  10.255  21.801  1.00  0.00     0.022 C 
HETATM    4  C7  UNL     1      27.344   9.988  21.950  1.00  0.00     0.141 C 
HETATM    5  N3  UNL     1      26.807   9.902  20.612  1.00  0.00    -0.216 N 
HETATM    6  C8  UNL     1      25.504   9.317  20.446  1.00  0.00     0.670 C 
HETATM    7  N4  UNL     1      24.567  10.159  20.179  1.00  0.00    -0.235 N 
ATOM      8  H41 UNL     1      23.643   9.744  20.061  1.00  0.00     0.174 HD
ATOM      9  H42 UNL     1      24.704  11.165  20.088  1.00  0.00     0.174 HD
HETATM   10  N5  UNL     1      25.312   7.910  20.573  1.00  0.00    -0.218 N 
ATOM     11  H5  UNL     1      25.929   7.312  20.022  1.00  0.00     0.178 HD
HETATM   12  C13 UNL     1      27.599  10.404  19.507  1.00  0.00     0.166 C 
ENDROOT
BRANCH  10  13
HETATM   13  C9  UNL     1      24.352   7.255  21.389  1.00  0.00     0.036 C 
HETATM   14  C10 UNL     1      24.856   5.850  21.708  1.00  0.00     0.038 C 
HETATM   15  C11 UNL     1      22.960   7.178  20.798  1.00  0.00     0.038 C 
HETATM   16  C12 UNL     1      24.164   7.923  22.759  1.00  0.00     0.038 C 
ENDBRANCH  10  13
BRANCH   1  17
HETATM   17  N2  UNL     1      28.859  12.421  18.888  1.00  0.00    -0.337 N 
HETATM   18  C3  UNL     1      28.652  13.774  18.505  1.00  0.00     0.316 C 
HETATM   19  N1  UNL     1      29.432  14.348  17.473  1.00  0.00    -0.343 N 
HETATM   20  O1  UNL     1      27.787  14.501  19.053  1.00  0.00    -0.247 OA
ATOM     21  H1  UNL     1      30.142  13.782  17.009  1.00  0.00     0.164 HD
ATOM     22  H2  UNL     1      29.580  11.892  18.397  1.00  0.00     0.164 HD
BRANCH  19  23
HETATM   23  C2  UNL     1      29.243  15.719  17.064  1.00  0.00     0.120 C 
HETATM   24  C1  UNL     1      29.318  15.877  15.575  1.00  0.00     0.026 C 
ENDBRANCH  19  23
ENDBRANCH   1  17
TORSDOF 3
ENDMDL
MODEL 3
REMARK VINA RESULT: -5.444637935      1.278      1.428
REMARK  3 active torsions:
REMARK  status: ('A' for Active; 'I' for Inactive)
REMARK    1  A    between atoms: C2_2  and  N1_3 
REMARK       I    between atoms: N1_3  and  C3_5 
REMARK       I    between atoms: C3_5  and  N2_7 
REMARK    2  A    between atoms: N2_7  and  C4_9 
REMARK       I    between atoms: N3_13  and  C8_14 
REMARK       I    between atoms: C8_14  and  N5_18 
REMARK    3  A    between atoms: N5_18  and  C9_20 
ROOT
HETATM    1  C4  UNL     1      29.759  11.347  19.601  1.00  0.00     0.104 C 
HETATM    2  C5  UNL     1      30.443  10.035  19.353  1.00  0.00     0.028 C 
HETATM    3  C6  UNL     1      29.862   8.892  20.145  1.00  0.00     0.022 C 
HETATM    4  C7  UNL     1      29.738   9.376  21.596  1.00  0.00     0.141 C 
HETATM    5  N3  UNL     1      28.793  10.469  21.587  1.00  0.00    -0.216 N 
HETATM    6  C8  UNL     1      28.226  10.879  22.843  1.00  0.00     0.670 C 
HETATM    7  N4  UNL     1      28.679  11.995  23.298  1.00  0.00    -0.235 N 
ATOM      8  H41 UNL     1      28.276  12.285  24.190  1.00  0.00     0.174 HD
ATOM      9  H42 UNL     1      29.384  12.565  22.833  1.00  0.00     0.174 HD
HETATM   10  N5  UNL     1      27.240  10.081  23.495  1.00  0.00    -0.218 N 
ATOM     11  H5  UNL     1      26.435   9.800  22.935  1.00  0.00     0.178 HD
HETATM   12  C13 UNL     1      28.464  11.097  20.324  1.00  0.00     0.166 C 
ENDROOT
BRANCH  10  13
HETATM   13  C9  UNL     1      27.264   9.639  24.844  1.00  0.00     0.036 C 
HETATM   14  C10 UNL     1      26.407   8.380  24.961  1.00  0.00     0.038 C 
HETATM   15  C11 UNL     1      26.809  10.665  25.860  1.00  0.00     0.038 C 
HETATM   16  C12 UNL     1      28.660   9.207  25.315  1.00  0.00     0.038 C 
ENDBRANCH  10  13
BRANCH   1  17
HETATM   17  N2  UNL     1      29.604  12.045  18.364  1.00  0.00    -0.337 N 
HETATM   18  C3  UNL     1      29.435  13.453  18.255  1.00  0.00     0.316 C 
HETATM   19  N1  UNL     1      29.288  14.055  16.984  1.00  0.00    -0.343 N 
HETATM   20  O1  UNL     1      29.410  14.204  19.261  1.00  0.00    -0.247 OA
ATOM     21  H1  UNL     1      29.305  13.470  16.148  1.00  0.00     0.164 HD
ATOM     22  H2  UNL     1      29.615  11.499  17.503  1.00  0.00     0.164 HD
BRANCH  19  23
HETATM   23  C2  UNL     1      29.116  15.481  16.844  1.00  0.00     0.120 C 
HETATM   24  C1  UNL     1      29.328  15.937  15.432  1.00  0.00     0.026 C 
ENDBRANCH  19  23
ENDBRANCH   1  17
TORSDOF 3
ENDMDL
MODEL 4
REMARK VINA RESULT: -5.425384877      4.505      5.012
REMARK  3 active torsions:
REMARK  status: ('A' for Active; 'I' for Inactive)
REMARK    1  A    between atoms: C2_2  and  N1_3 
REMARK       I    between atoms: N1_3  and  C3_5 
REMARK       I    between atoms: C3_5  and  N2_7 
REMARK    2  A    between atoms: N2_7  and  C4_9 
REMARK       I    between atoms: N3_13  and  C8_14 
REMARK       I    between atoms: C8_14  and  N5_18 
REMARK    3  A    between atoms: N5_18  and  C9_20 
ROOT
HETATM    1  C4  UNL     1      28.765  10.396  17.704  1.00  0.00     0.104 C 
HETATM    2  C5  UNL     1      29.450   9.096  17.401  1.00  0.00     0.028 C 
HETATM    3  C6  UNL     1      28.514   7.917  17.350  1.00  0.00     0.022 C 
HETATM    4  C7  UNL     1      27.637   7.992  18.608  1.00  0.00     0.141 C 
HETATM    5  N3  UNL     1      26.867   9.209  18.501  1.00  0.00    -0.216 N 
HETATM    6  C8  UNL     1      25.721   9.357  19.358  1.00  0.00     0.670 C 
HETATM    7  N4  UNL     1      25.878  10.189  20.327  1.00  0.00    -0.235 N 
ATOM      8  H41 UNL     1      25.065  10.294  20.934  1.00  0.00     0.174 HD
ATOM      9  H42 UNL     1      26.734  10.714  20.504  1.00  0.00     0.174 HD
HETATM   10  N5  UNL     1      24.524   8.622  19.111  1.00  0.00    -0.218 N 
ATOM     11  H5  UNL     1      24.142   8.673  18.166  1.00  0.00     0.178 HD
HETATM   12  C13 UNL     1      27.280  10.216  17.546  1.00  0.00     0.166 C 
ENDROOT
BRANCH  10  13
HETATM   13  C9  UNL     1      23.811   7.826  20.045  1.00  0.00     0.036 C 
HETATM   14  C10 UNL     1      22.636   7.164  19.328  1.00  0.00     0.038 C 
HETATM   15  C11 UNL     1      23.314   8.568  21.267  1.00  0.00     0.038 C 
HETATM   16  C12 UNL     1      24.637   6.656  20.600  1.00  0.00     0.038 C 
ENDBRANCH  10  13
BRANCH   1  17
HETATM   17  N2  UNL     1      29.312  11.428  16.880  1.00  0.00    -0.337 N 
HETATM   18  C3  UNL     1      29.208  12.817  17.163  1.00  0.00     0.316 C 
HETATM   19  N1  UNL     1      29.783  13.766  16.285  1.00  0.00    -0.343 N 
HETATM   20  O1  UNL     1      28.614  13.251  18.180  1.00  0.00    -0.247 OA
ATOM     21  H1  UNL     1      30.272  13.443  15.450  1.00  0.00     0.164 HD
ATOM     22  H2  UNL     1      29.810  11.150  16.035  1.00  0.00     0.164 HD
BRANCH  19  23
HETATM   23  C2  UNL     1      29.693  15.182  16.548  1.00  0.00     0.120 C 
HETATM   24  C1  UNL     1      29.290  15.955  15.328  1.00  0.00     0.026 C 
ENDBRANCH  19  23
ENDBRANCH   1  17
TORSDOF 3
ENDMDL
MODEL 5
REMARK VINA RESULT: -5.344809008      2.820      7.275
REMARK  3 active torsions:
REMARK  status: ('A' for Active; 'I' for Inactive)
REMARK    1  A    between atoms: C2_2  and  N1_3 
REMARK       I    between atoms: N1_3  and  C3_5 
REMARK       I    between atoms: C3_5  and  N2_7 
REMARK    2  A    between atoms: N2_7  and  C4_9 
REMARK       I    between atoms: N3_13  and  C8_14 
REMARK       I    between atoms: C8_14  and  N5_18 
REMARK    3  A    between atoms: N5_18  and  C9_20 
ROOT
HETATM    1  C4  UNL     1      28.637  11.927  23.898  1.00  0.00     0.104 C 
HETATM    2  C5  UNL     1      27.711  10.758  24.069  1.00  0.00     0.028 C 
HETATM    3  C6  UNL     1      27.741   9.791  22.914  1.00  0.00     0.022 C 
HETATM    4  C7  UNL     1      27.617  10.626  21.632  1.00  0.00     0.141 C 
HETATM    5  N3  UNL     1      28.791  11.466  21.572  1.00  0.00    -0.216 N 
HETATM    6  C8  UNL     1      29.107  12.090  20.316  1.00  0.00     0.670 C 
HETATM    7  N4  UNL     1      28.872  13.355  20.270  1.00  0.00    -0.235 N 
ATOM      8  H41 UNL     1      29.096  13.798  19.379  1.00  0.00     0.174 HD
ATOM      9  H42 UNL     1      28.489  13.900  21.043  1.00  0.00     0.174 HD
HETATM   10  N5  UNL     1      29.642  11.329  19.236  1.00  0.00    -0.218 N 
ATOM     11  H5  UNL     1      30.456  10.750  19.442  1.00  0.00     0.178 HD
HETATM   12  C13 UNL     1      29.588  11.639  22.769  1.00  0.00     0.166 C 
ENDROOT
BRANCH  10  13
HETATM   13  C9  UNL     1      29.156  11.294  17.902  1.00  0.00     0.036 C 
HETATM   14  C10 UNL     1      29.659  10.018  17.231  1.00  0.00     0.038 C 
HETATM   15  C11 UNL     1      29.525  12.496  17.057  1.00  0.00     0.038 C 
HETATM   16  C12 UNL     1      27.626  11.204  17.816  1.00  0.00     0.038 C 
ENDBRANCH  10  13
BRANCH   1  17
HETATM   17  N2  UNL     1      29.285  12.208  25.141  1.00  0.00    -0.337 N 
HETATM   18  C3  UNL     1      30.226  11.345  25.766  1.00  0.00     0.316 C 
HETATM   19  N1  UNL     1      30.815  11.710  26.999  1.00  0.00    -0.343 N 
HETATM   20  O1  UNL     1      30.566  10.247  25.261  1.00  0.00    -0.247 OA
ATOM     21  H1  UNL     1      30.557  12.596  27.433  1.00  0.00     0.164 HD
ATOM     22  H2  UNL     1      29.057  13.084  25.610  1.00  0.00     0.164 HD
BRANCH  19  23
HETATM   23  C2  UNL     1      31.773  10.853  27.655  1.00  0.00     0.120 C 
HETATM   24  C1  UNL     1      32.963  11.619  28.153  1.00  0.00     0.026 C 
ENDBRANCH  19  23
ENDBRANCH   1  17
TORSDOF 3
ENDMDL
