MODEL 1
REMARK VINA RESULT: -5.558489499      0.000      0.000
REMARK  3 active torsions:
REMARK  status: ('A' for Active; 'I' for Inactive)
REMARK    1  A    between atoms: C2_2  and  N1_3 
REMARK       I    between atoms: N1_3  and  C3_5 
REMARK       I    between atoms: C3_5  and  N2_7 
REMARK    2  A    between atoms: N2_7  and  C4_9 
REMARK    3  A    between atoms: C8_13  and  O2_14 
ROOT
HETATM    1  C4  UNL     1      27.852  11.490  20.462  1.00  0.00     0.092 C 
HETATM    2  C5  UNL     1      26.953  11.386  19.270  1.00  0.00     0.061 C 
HETATM    3  C6  UNL     1      27.597  11.227  17.956  1.00  0.00     0.229 C 
HETATM    4  C7  UNL     1      28.456   9.957  17.882  1.00  0.00     0.076 C 
HETATM    5  C8  UNL     1      29.837  10.615  18.023  1.00  0.00     0.091 C 
HETATM    6  C9  UNL     1      30.094  10.923  19.428  1.00  0.00     0.046 C 
HETATM    7  C10 UNL     1      29.265  11.905  20.131  1.00  0.00     0.013 C 
HETATM    8  C11 UNL     1      29.173  13.266  19.507  1.00  0.00     0.042 C 
HETATM    9  C12 UNL     1      28.932  13.280  18.061  1.00  0.00     0.226 C 
HETATM   10  C13 UNL     1      30.288  13.025  17.382  1.00  0.00     0.075 C 
HETATM   11  C14 UNL     1      29.693  11.719  17.064  1.00  0.00     0.260 C 
HETATM   12  N3  UNL     1      28.361  12.234  17.403  1.00  0.00     0.105 N 
ENDROOT
BRANCH   1  13
HETATM   13  N2  UNL     1      27.785  10.365  21.341  1.00  0.00    -0.338 N 
HETATM   14  C3  UNL     1      27.750  10.533  22.737  1.00  0.00     0.316 C 
HETATM   15  N1  UNL     1      27.683   9.453  23.660  1.00  0.00    -0.343 N 
HETATM   16  O1  UNL     1      27.780  11.699  23.223  1.00  0.00    -0.247 OA
ATOM     17  H1  UNL     1      27.658   8.504  23.287  1.00  0.00     0.164 HD
ATOM     18  H2  UNL     1      27.762   9.424  20.949  1.00  0.00     0.164 HD
BRANCH  15  19
HETATM   19  C2  UNL     1      27.648   9.621  25.080  1.00  0.00     0.120 C 
HETATM   20  C1  UNL     1      26.256   9.467  25.652  1.00  0.00     0.026 C 
ENDBRANCH  15  19
ENDBRANCH   1  13
BRANCH   5  21
HETATM   21  O2  UNL     1      30.794   9.720  17.558  1.00  0.00    -0.388 OA
ATOM     22  H2  UNL     1      31.625  10.177  17.504  1.00  0.00     0.210 HD
ENDBRANCH   5  21
TORSDOF 3
ENDMDL
MODEL 2
REMARK VINA RESULT: -5.550443069      2.195      5.927
REMARK  3 active torsions:
REMARK  status: ('A' for Active; 'I' for Inactive)
REMARK    1  A    between atoms: C2_2  and  N1_3 
REMARK       I    between atoms: N1_3  and  C3_5 
REMARK       I    between atoms: C3_5  and  N2_7 
REMARK    2  A    between atoms: N2_7  and  C4_9 
REMARK    3  A    between atoms: C8_13  and  O2_14 
ROOT
HETATM    1  C4  UNL     1      29.289  10.729  18.308  1.00  0.00     0.092 C 
HETATM    2  C5  UNL     1      28.829   9.317  18.120  1.00  0.00     0.061 C 
HETATM    3  C6  UNL     1      27.612   8.908  18.839  1.00  0.00     0.229 C 
HETATM    4  C7  UNL     1      26.392   9.750  18.439  1.00  0.00     0.076 C 
HETATM    5  C8  UNL     1      26.329  10.652  19.680  1.00  0.00     0.091 C 
HETATM    6  C9  UNL     1      27.325  11.715  19.566  1.00  0.00     0.046 C 
HETATM    7  C10 UNL     1      28.753  11.389  19.554  1.00  0.00     0.013 C 
HETATM    8  C11 UNL     1      29.262  10.585  20.714  1.00  0.00     0.042 C 
HETATM    9  C12 UNL     1      28.439   9.430  21.086  1.00  0.00     0.226 C 
HETATM   10  C13 UNL     1      27.272   9.970  21.931  1.00  0.00     0.075 C 
HETATM   11  C14 UNL     1      26.479   9.643  20.738  1.00  0.00     0.260 C 
HETATM   12  N3  UNL     1      27.582   8.829  20.217  1.00  0.00     0.105 N 
ENDROOT
BRANCH   1  13
HETATM   13  N2  UNL     1      29.163  11.542  17.138  1.00  0.00    -0.338 N 
HETATM   14  C3  UNL     1      29.758  12.815  17.069  1.00  0.00     0.316 C 
HETATM   15  N1  UNL     1      29.667  13.666  15.934  1.00  0.00    -0.343 N 
HETATM   16  O1  UNL     1      30.414  13.248  18.057  1.00  0.00    -0.247 OA
ATOM     17  H1  UNL     1      29.141  13.335  15.126  1.00  0.00     0.164 HD
ATOM     18  H2  UNL     1      28.632  11.192  16.341  1.00  0.00     0.164 HD
BRANCH  15  19
HETATM   19  C2  UNL     1      30.270  14.962  15.860  1.00  0.00     0.120 C 
HETATM   20  C1  UNL     1      29.282  16.044  15.484  1.00  0.00     0.026 C 
ENDBRANCH  15  19
ENDBRANCH   1  13
BRANCH   5  21
HETATM   21  O2  UNL     1      25.057  11.208  19.748  1.00  0.00    -0.388 OA
ATOM     22  H2  UNL     1      24.440  10.514  19.947  1.00  0.00     0.210 HD
ENDBRANCH   5  21
TORSDOF 3
ENDMDL
MODEL 3
REMARK VINA RESULT: -5.538054554      2.158      7.007
REMARK  3 active torsions:
REMARK  status: ('A' for Active; 'I' for Inactive)
REMARK    1  A    between atoms: C2_2  and  N1_3 
REMARK       I    between atoms: N1_3  and  C3_5 
REMARK       I    between atoms: C3_5  and  N2_7 
REMARK    2  A    between atoms: N2_7  and  C4_9 
REMARK    3  A    between atoms: C8_13  and  O2_14 
ROOT
HETATM    1  C4  UNL     1      29.008  11.111  23.155  1.00  0.00     0.092 C 
HETATM    2  C5  UNL     1      28.922   9.622  23.272  1.00  0.00     0.061 C 
HETATM    3  C6  UNL     1      28.331   9.079  24.506  1.00  0.00     0.229 C 
HETATM    4  C7  UNL     1      26.885   9.550  24.712  1.00  0.00     0.076 C 
HETATM    5  C8  UNL     1      27.149  10.611  25.790  1.00  0.00     0.091 C 
HETATM    6  C9  UNL     1      27.647  11.834  25.165  1.00  0.00     0.046 C 
HETATM    7  C10 UNL     1      28.941  11.836  24.477  1.00  0.00     0.013 C 
HETATM    8  C11 UNL     1      30.121  11.371  25.278  1.00  0.00     0.042 C 
HETATM    9  C12 UNL     1      29.911  10.142  26.049  1.00  0.00     0.226 C 
HETATM   10  C13 UNL     1      29.160  10.543  27.330  1.00  0.00     0.075 C 
HETATM   11  C14 UNL     1      28.035   9.853  26.684  1.00  0.00     0.260 C 
HETATM   12  N3  UNL     1      28.955   9.227  25.728  1.00  0.00     0.105 N 
ENDROOT
BRANCH   1  13
HETATM   13  N2  UNL     1      28.145  11.668  22.161  1.00  0.00    -0.338 N 
HETATM   14  C3  UNL     1      28.551  11.768  20.818  1.00  0.00     0.316 C 
HETATM   15  N1  UNL     1      27.737  12.312  19.787  1.00  0.00    -0.343 N 
HETATM   16  O1  UNL     1      29.699  11.360  20.484  1.00  0.00    -0.247 OA
ATOM     17  H1  UNL     1      26.806  12.647  20.036  1.00  0.00     0.164 HD
ATOM     18  H2  UNL     1      27.219  11.998  22.431  1.00  0.00     0.164 HD
BRANCH  15  19
HETATM   19  C2  UNL     1      28.147  12.416  18.420  1.00  0.00     0.120 C 
HETATM   20  C1  UNL     1      28.623  13.805  18.058  1.00  0.00     0.026 C 
ENDBRANCH  15  19
ENDBRANCH   1  13
BRANCH   5  21
HETATM   21  O2  UNL     1      25.949  10.875  26.442  1.00  0.00    -0.388 OA
ATOM     22  H2  UNL     1      25.667  10.078  26.876  1.00  0.00     0.210 HD
ENDBRANCH   5  21
TORSDOF 3
ENDMDL
MODEL 4
REMARK VINA RESULT: -5.473643461      2.717      6.123
REMARK  3 active torsions:
REMARK  status: ('A' for Active; 'I' for Inactive)
REMARK    1  A    between atoms: C2_2  and  N1_3 
REMARK       I    between atoms: N1_3  and  C3_5 
REMARK       I    between atoms: C3_5  and  N2_7 
REMARK    2  A    between atoms: N2_7  and  C4_9 
REMARK    3  A    between atoms: C8_13  and  O2_14 
ROOT
HETATM    1  C4  UNL     1      30.086  10.849  17.398  1.00  0.00     0.092 C 
HETATM    2  C5  UNL     1      29.445  12.154  17.045  1.00  0.00     0.061 C 
HETATM    3  C6  UNL     1      28.563  12.763  18.052  1.00  0.00     0.229 C 
HETATM    4  C7  UNL     1      29.301  13.058  19.366  1.00  0.00     0.076 C 
HETATM    5  C8  UNL     1      28.758  11.884  20.194  1.00  0.00     0.091 C 
HETATM    6  C9  UNL     1      29.484  10.664  19.851  1.00  0.00     0.046 C 
HETATM    7  C10 UNL     1      29.383  10.099  18.503  1.00  0.00     0.013 C 
HETATM    8  C11 UNL     1      27.998   9.809  18.006  1.00  0.00     0.042 C 
HETATM    9  C12 UNL     1      27.014  10.872  18.231  1.00  0.00     0.226 C 
HETATM   10  C13 UNL     1      26.550  10.747  19.692  1.00  0.00     0.075 C 
HETATM   11  C14 UNL     1      27.328  11.980  19.868  1.00  0.00     0.260 C 
HETATM   12  N3  UNL     1      27.368  12.173  18.414  1.00  0.00     0.105 N 
ENDROOT
BRANCH   1  13
HETATM   13  N2  UNL     1      31.502  10.926  17.579  1.00  0.00    -0.338 N 
HETATM   14  C3  UNL     1      32.377  10.118  16.831  1.00  0.00     0.316 C 
HETATM   15  N1  UNL     1      33.792  10.152  16.968  1.00  0.00    -0.343 N 
HETATM   16  O1  UNL     1      31.904   9.309  15.985  1.00  0.00    -0.247 OA
ATOM     17  H1  UNL     1      34.193  10.799  17.646  1.00  0.00     0.164 HD
ATOM     18  H2  UNL     1      31.884  11.579  18.263  1.00  0.00     0.164 HD
BRANCH  15  19
HETATM   19  C2  UNL     1      34.685   9.331  16.209  1.00  0.00     0.120 C 
HETATM   20  C1  UNL     1      35.599  10.136  15.312  1.00  0.00     0.026 C 
ENDBRANCH  15  19
ENDBRANCH   1  13
BRANCH   5  21
HETATM   21  O2  UNL     1      28.947  12.179  21.540  1.00  0.00    -0.388 OA
ATOM     22  H2  UNL     1      29.503  11.507  21.915  1.00  0.00     0.210 HD
ENDBRANCH   5  21
TORSDOF 3
ENDMDL
MODEL 5
REMARK VINA RESULT: -5.467139956      2.099      5.788
REMARK  3 active torsions:
REMARK  status: ('A' for Active; 'I' for Inactive)
REMARK    1  A    between atoms: C2_2  and  N1_3 
REMARK       I    between atoms: N1_3  and  C3_5 
REMARK       I    between atoms: C3_5  and  N2_7 
REMARK    2  A    between atoms: N2_7  and  C4_9 
REMARK    3  A    between atoms: C8_13  and  O2_14 
ROOT
HETATM    1  C4  UNL     1      28.779  11.173  18.606  1.00  0.00     0.092 C 
HETATM    2  C5  UNL     1      27.789  10.064  18.439  1.00  0.00     0.061 C 
HETATM    3  C6  UNL     1      27.399   9.325  19.651  1.00  0.00     0.229 C 
HETATM    4  C7  UNL     1      26.757  10.238  20.705  1.00  0.00     0.076 C 
HETATM    5  C8  UNL     1      27.956  10.356  21.656  1.00  0.00     0.091 C 
HETATM    6  C9  UNL     1      28.908  11.332  21.130  1.00  0.00     0.046 C 
HETATM    7  C10 UNL     1      29.603  11.077  19.866  1.00  0.00     0.013 C 
HETATM    8  C11 UNL     1      30.368   9.789  19.777  1.00  0.00     0.042 C 
HETATM    9  C12 UNL     1      29.659   8.602  20.262  1.00  0.00     0.226 C 
HETATM   10  C13 UNL     1      29.784   8.606  21.796  1.00  0.00     0.075 C 
HETATM   11  C14 UNL     1      28.355   8.944  21.742  1.00  0.00     0.260 C 
HETATM   12  N3  UNL     1      28.302   8.536  20.334  1.00  0.00     0.105 N 
ENDROOT
BRANCH   1  13
HETATM   13  N2  UNL     1      28.236  12.477  18.384  1.00  0.00    -0.338 N 
HETATM   14  C3  UNL     1      29.018  13.508  17.832  1.00  0.00     0.316 C 
HETATM   15  N1  UNL     1      28.532  14.822  17.589  1.00  0.00    -0.343 N 
HETATM   16  O1  UNL     1      30.222  13.279  17.528  1.00  0.00    -0.247 OA
ATOM     17  H1  UNL     1      27.563  15.027  17.829  1.00  0.00     0.164 HD
ATOM     18  H2  UNL     1      27.264  12.663  18.631  1.00  0.00     0.164 HD
BRANCH  15  19
HETATM   19  C2  UNL     1      29.325  15.873  17.029  1.00  0.00     0.120 C 
HETATM   20  C1  UNL     1      29.270  15.904  15.518  1.00  0.00     0.026 C 
ENDBRANCH  15  19
ENDBRANCH   1  13
BRANCH   5  21
HETATM   21  O2  UNL     1      27.488  10.780  22.895  1.00  0.00    -0.388 OA
ATOM     22  H2  UNL     1      28.008  11.527  23.168  1.00  0.00     0.210 HD
ENDBRANCH   5  21
TORSDOF 3
ENDMDL
