MODEL 1
REMARK VINA RESULT: -5.629007334      0.000      0.000
REMARK  2 active torsions:
REMARK  status: ('A' for Active; 'I' for Inactive)
REMARK    1  A    between atoms: O1_1  and  C1_3 
REMARK    2  A    between atoms: C1_3  and  C2_4 
ROOT
HETATM    1  C2  UNL     1      28.732  10.339  19.702  1.00  0.00     0.039 C 
HETATM    2  C3  UNL     1      29.737   9.391  19.117  1.00  0.00     0.246 C 
HETATM    3  N1  UNL     1      31.054   9.946  18.974  1.00  0.00    -0.073 N 
ATOM      4  H11 UNL     1      31.787   9.238  18.922  1.00  0.00     0.277 HD
ATOM      5  H12 UNL     1      31.391  10.413  19.816  1.00  0.00     0.277 HD
HETATM    6  C4  UNL     1      31.007  10.820  17.806  1.00  0.00     0.262 C 
HETATM    7  C5  UNL     1      30.543  12.147  18.252  1.00  0.00     0.288 C 
HETATM    8  N2  UNL     1      29.172  12.399  18.380  1.00  0.00     0.017 N 
HETATM    9  C6  UNL     1      29.065  13.586  19.258  1.00  0.00     0.262 C 
HETATM   10  C7  UNL     1      29.275  14.767  18.382  1.00  0.00     0.048 C 
HETATM   11  C8  UNL     1      29.169  14.226  17.001  1.00  0.00     0.144 C 
HETATM   12  N3  UNL     1      28.706  12.890  17.125  1.00  0.00    -0.046 NA
HETATM   13  C9  UNL     1      28.264  11.404  18.789  1.00  0.00     0.224 C 
HETATM   14  C10 UNL     1      27.456  10.844  17.612  1.00  0.00     0.041 C 
HETATM   15  C11 UNL     1      26.329   9.959  18.093  1.00  0.00    -0.012 C 
HETATM   16  C12 UNL     1      25.543  10.630  19.211  1.00  0.00     0.005 C 
HETATM   17  C13 UNL     1      26.326  10.306  20.469  1.00  0.00     0.006 C 
HETATM   18  C14 UNL     1      27.507   9.467  20.035  1.00  0.00     0.000 C 
HETATM   19  C15 UNL     1      26.947   8.802  18.812  1.00  0.00     0.010 C 
ENDROOT
BRANCH   1  20
HETATM   20  C1  UNL     1      29.158  10.860  21.059  1.00  0.00     0.177 C 
BRANCH  20  21
HETATM   21  O1  UNL     1      29.672   9.810  21.858  1.00  0.00    -0.400 OA
ATOM     22  H1  UNL     1      28.980   9.210  22.109  1.00  0.00     0.209 HD
ENDBRANCH  20  21
ENDBRANCH   1  20
TORSDOF 2
ENDMDL
MODEL 2
REMARK VINA RESULT: -5.141411227      2.177      4.667
REMARK  2 active torsions:
REMARK  status: ('A' for Active; 'I' for Inactive)
REMARK    1  A    between atoms: O1_1  and  C1_3 
REMARK    2  A    between atoms: C1_3  and  C2_4 
ROOT
HETATM    1  C2  UNL     1      28.627  11.638  18.958  1.00  0.00     0.039 C 
HETATM    2  C3  UNL     1      27.255  11.325  18.439  1.00  0.00     0.246 C 
HETATM    3  N1  UNL     1      26.212  11.453  19.419  1.00  0.00    -0.073 N 
ATOM      4  H11 UNL     1      25.287  11.590  19.010  1.00  0.00     0.277 HD
ATOM      5  H12 UNL     1      26.250  12.329  19.939  1.00  0.00     0.277 HD
HETATM    6  C4  UNL     1      26.300  10.269  20.269  1.00  0.00     0.262 C 
HETATM    7  C5  UNL     1      27.279  10.550  21.336  1.00  0.00     0.288 C 
HETATM    8  N2  UNL     1      28.646  10.364  21.095  1.00  0.00     0.017 N 
HETATM    9  C6  UNL     1      29.345  11.150  22.136  1.00  0.00     0.262 C 
HETATM   10  C7  UNL     1      29.369  10.296  23.350  1.00  0.00     0.048 C 
HETATM   11  C8  UNL     1      28.976   8.947  22.862  1.00  0.00     0.144 C 
HETATM   12  N3  UNL     1      28.965   9.020  21.445  1.00  0.00    -0.046 NA
HETATM   13  C9  UNL     1      29.221  10.603  19.833  1.00  0.00     0.224 C 
HETATM   14  C10 UNL     1      29.508   9.300  19.075  1.00  0.00     0.041 C 
HETATM   15  C11 UNL     1      30.336   9.557  17.838  1.00  0.00    -0.012 C 
HETATM   16  C12 UNL     1      31.530  10.448  18.152  1.00  0.00     0.005 C 
HETATM   17  C13 UNL     1      30.979  11.860  18.068  1.00  0.00     0.006 C 
HETATM   18  C14 UNL     1      29.518  11.728  17.705  1.00  0.00     0.000 C 
HETATM   19  C15 UNL     1      29.531  10.439  16.937  1.00  0.00     0.010 C 
ENDROOT
BRANCH   1  20
HETATM   20  C1  UNL     1      28.715  13.033  19.540  1.00  0.00     0.177 C 
BRANCH  20  21
HETATM   21  O1  UNL     1      27.641  13.835  19.079  1.00  0.00    -0.400 OA
ATOM     22  H1  UNL     1      27.864  14.757  19.135  1.00  0.00     0.209 HD
ENDBRANCH  20  21
ENDBRANCH   1  20
TORSDOF 2
ENDMDL
MODEL 3
REMARK VINA RESULT: -5.116914506      2.605      4.777
REMARK  2 active torsions:
REMARK  status: ('A' for Active; 'I' for Inactive)
REMARK    1  A    between atoms: O1_1  and  C1_3 
REMARK    2  A    between atoms: C1_3  and  C2_4 
ROOT
HETATM    1  C2  UNL     1      28.314  10.333  18.723  1.00  0.00     0.039 C 
HETATM    2  C3  UNL     1      28.734   9.466  17.573  1.00  0.00     0.246 C 
HETATM    3  N1  UNL     1      27.667   9.123  16.674  1.00  0.00    -0.073 N 
ATOM      4  H11 UNL     1      27.992   8.853  15.745  1.00  0.00     0.277 HD
ATOM      5  H12 UNL     1      27.108   9.925  16.384  1.00  0.00     0.277 HD
HETATM    6  C4  UNL     1      26.888   8.083  17.340  1.00  0.00     0.262 C 
HETATM    7  C5  UNL     1      25.892   8.747  18.202  1.00  0.00     0.288 C 
HETATM    8  N2  UNL     1      26.253   9.169  19.488  1.00  0.00     0.017 N 
HETATM    9  C6  UNL     1      25.234  10.169  19.880  1.00  0.00     0.262 C 
HETATM   10  C7  UNL     1      24.070   9.396  20.382  1.00  0.00     0.048 C 
HETATM   11  C8  UNL     1      24.592   8.014  20.559  1.00  0.00     0.144 C 
HETATM   12  N3  UNL     1      25.998   8.089  20.382  1.00  0.00    -0.046 NA
HETATM   13  C9  UNL     1      27.544   9.645  19.782  1.00  0.00     0.224 C 
HETATM   14  C10 UNL     1      28.387   8.600  20.525  1.00  0.00     0.041 C 
HETATM   15  C11 UNL     1      29.673   9.200  21.041  1.00  0.00    -0.012 C 
HETATM   16  C12 UNL     1      29.414  10.515  21.765  1.00  0.00     0.005 C 
HETATM   17  C13 UNL     1      29.382  11.554  20.658  1.00  0.00     0.006 C 
HETATM   18  C14 UNL     1      29.630  10.810  19.366  1.00  0.00     0.000 C 
HETATM   19  C15 UNL     1      30.460   9.660  19.855  1.00  0.00     0.010 C 
ENDROOT
BRANCH   1  20
HETATM   20  C1  UNL     1      27.672  11.625  18.261  1.00  0.00     0.177 C 
BRANCH  20  21
HETATM   21  O1  UNL     1      28.244  12.058  17.040  1.00  0.00    -0.400 OA
ATOM     22  H1  UNL     1      27.905  12.911  16.795  1.00  0.00     0.209 HD
ENDBRANCH  20  21
ENDBRANCH   1  20
TORSDOF 2
ENDMDL
MODEL 4
REMARK VINA RESULT: -5.081915433      1.912      3.600
REMARK  2 active torsions:
REMARK  status: ('A' for Active; 'I' for Inactive)
REMARK    1  A    between atoms: O1_1  and  C1_3 
REMARK    2  A    between atoms: C1_3  and  C2_4 
ROOT
HETATM    1  C2  UNL     1      28.414  10.402  18.286  1.00  0.00     0.039 C 
HETATM    2  C3  UNL     1      28.455  11.763  17.655  1.00  0.00     0.246 C 
HETATM    3  N1  UNL     1      29.455  12.635  18.203  1.00  0.00    -0.073 N 
ATOM      4  H11 UNL     1      29.721  13.392  17.573  1.00  0.00     0.277 HD
ATOM      5  H12 UNL     1      30.376  12.202  18.274  1.00  0.00     0.277 HD
HETATM    6  C4  UNL     1      28.935  13.104  19.484  1.00  0.00     0.262 C 
HETATM    7  C5  UNL     1      29.299  12.110  20.511  1.00  0.00     0.288 C 
HETATM    8  N2  UNL     1      28.496  10.979  20.704  1.00  0.00     0.017 N 
HETATM    9  C6  UNL     1      29.347  10.002  21.419  1.00  0.00     0.262 C 
HETATM   10  C7  UNL     1      29.289  10.378  22.854  1.00  0.00     0.048 C 
HETATM   11  C8  UNL     1      28.160  11.343  22.939  1.00  0.00     0.144 C 
HETATM   12  N3  UNL     1      27.510  11.313  21.677  1.00  0.00    -0.046 NA
HETATM   13  C9  UNL     1      27.821  10.353  19.639  1.00  0.00     0.224 C 
HETATM   14  C10 UNL     1      26.325  10.691  19.629  1.00  0.00     0.041 C 
HETATM   15  C11 UNL     1      25.575   9.832  18.638  1.00  0.00    -0.012 C 
HETATM   16  C12 UNL     1      25.948   8.363  18.793  1.00  0.00     0.005 C 
HETATM   17  C13 UNL     1      27.210   8.205  17.965  1.00  0.00     0.006 C 
HETATM   18  C14 UNL     1      27.504   9.563  17.369  1.00  0.00     0.000 C 
HETATM   19  C15 UNL     1      26.121  10.139  17.279  1.00  0.00     0.010 C 
ENDROOT
BRANCH   1  20
HETATM   20  C1  UNL     1      29.746   9.687  18.190  1.00  0.00     0.177 C 
BRANCH  20  21
HETATM   21  O1  UNL     1      30.412  10.030  16.988  1.00  0.00    -0.400 OA
ATOM     22  H1  UNL     1      29.853  10.565  16.437  1.00  0.00     0.209 HD
ENDBRANCH  20  21
ENDBRANCH   1  20
TORSDOF 2
ENDMDL
MODEL 5
REMARK VINA RESULT: -4.985107445      2.431      4.341
REMARK  2 active torsions:
REMARK  status: ('A' for Active; 'I' for Inactive)
REMARK    1  A    between atoms: O1_1  and  C1_3 
REMARK    2  A    between atoms: C1_3  and  C2_4 
ROOT
HETATM    1  C2  UNL     1      27.256  10.612  19.128  1.00  0.00     0.039 C 
HETATM    2  C3  UNL     1      27.319  11.974  19.755  1.00  0.00     0.246 C 
HETATM    3  N1  UNL     1      28.651  12.428  20.041  1.00  0.00    -0.073 N 
ATOM      4  H11 UNL     1      28.723  13.442  20.126  1.00  0.00     0.277 HD
ATOM      5  H12 UNL     1      29.293  12.322  19.255  1.00  0.00     0.277 HD
HETATM    6  C4  UNL     1      29.079  11.715  21.241  1.00  0.00     0.262 C 
HETATM    7  C5  UNL     1      29.656  10.425  20.818  1.00  0.00     0.288 C 
HETATM    8  N2  UNL     1      28.815   9.330  20.580  1.00  0.00     0.017 N 
HETATM    9  C6  UNL     1      29.607   8.392  19.753  1.00  0.00     0.262 C 
HETATM   10  C7  UNL     1      30.458   7.626  20.699  1.00  0.00     0.048 C 
HETATM   11  C8  UNL     1      29.886   7.927  22.038  1.00  0.00     0.144 C 
HETATM   12  N3  UNL     1      28.671   8.624  21.810  1.00  0.00    -0.046 NA
HETATM   13  C9  UNL     1      27.523   9.483  20.045  1.00  0.00     0.224 C 
HETATM   14  C10 UNL     1      26.436   9.338  21.117  1.00  0.00     0.041 C 
HETATM   15  C11 UNL     1      25.060   9.266  20.497  1.00  0.00    -0.012 C 
HETATM   16  C12 UNL     1      25.029   8.269  19.346  1.00  0.00     0.005 C 
HETATM   17  C13 UNL     1      25.520   9.062  18.148  1.00  0.00     0.006 C 
HETATM   18  C14 UNL     1      25.801  10.461  18.646  1.00  0.00     0.000 C 
HETATM   19  C15 UNL     1      24.825  10.559  19.782  1.00  0.00     0.010 C 
ENDROOT
BRANCH   1  20
HETATM   20  C1  UNL     1      28.051  10.537  17.841  1.00  0.00     0.177 C 
BRANCH  20  21
HETATM   21  O1  UNL     1      28.019  11.780  17.162  1.00  0.00    -0.400 OA
ATOM     22  H1  UNL     1      28.740  11.844  16.546  1.00  0.00     0.209 HD
ENDBRANCH  20  21
ENDBRANCH   1  20
TORSDOF 2
ENDMDL
