MODEL 1
REMARK VINA RESULT: -5.673693812      0.000      0.000
REMARK  5 active torsions:
REMARK  status: ('A' for Active; 'I' for Inactive)
REMARK    1  A    between atoms: C2_2  and  C3_4 
REMARK    2  A    between atoms: C3_4  and  N1_5 
REMARK    3  A    between atoms: N1_5  and  C4_7 
REMARK    4  A    between atoms: C4_7  and  N2_9 
REMARK    5  A    between atoms: N2_9  and  C5_11 
ROOT
HETATM    1  C5  UNL     1      27.275  10.725  17.623  1.00  0.00     0.090 C 
HETATM    2  C6  UNL     1      26.419   9.666  16.948  1.00  0.00     0.030 C 
HETATM    3  C7  UNL     1      26.138   8.621  18.003  1.00  0.00    -0.010 C 
HETATM    4  C8  UNL     1      24.947   8.929  18.847  1.00  0.00     0.040 C 
HETATM    5  C9  UNL     1      25.185   9.910  19.939  1.00  0.00     0.217 A 
HETATM    6  N3  UNL     1      25.222  11.308  19.561  1.00  0.00    -0.062 N 
ATOM      7  H31 UNL     1      24.725  12.152  19.847  1.00  0.00     0.278 HD
ATOM      8  H32 UNL     1      24.944  11.846  18.740  1.00  0.00     0.278 HD
HETATM    9  C10 UNL     1      26.403  10.637  19.978  1.00  0.00     0.222 A 
HETATM   10  C11 UNL     1      27.484  10.252  19.015  1.00  0.00     0.041 C 
HETATM   11  C12 UNL     1      27.405   8.727  18.857  1.00  0.00     0.013 C 
ENDROOT
BRANCH   1  12
HETATM   12  N2  UNL     1      28.588  10.732  16.955  1.00  0.00    -0.362 N 
ATOM     13  H2  UNL     1      28.802  10.005  16.272  1.00  0.00     0.162 HD
BRANCH  12  14
HETATM   14  C4  UNL     1      29.556  11.716  17.232  1.00  0.00     0.168 C 
HETATM   15  S1  UNL     1      30.947  11.390  18.030  1.00  0.00    -0.041 SA
BRANCH  14  16
HETATM   16  N1  UNL     1      29.326  13.049  16.806  1.00  0.00    -0.360 N 
ATOM     17  H1  UNL     1      29.400  13.284  15.816  1.00  0.00     0.162 HD
BRANCH  16  18
HETATM   18  C3  UNL     1      28.987  14.072  17.760  1.00  0.00     0.199 C 
BRANCH  18  19
HETATM   19  C2  UNL     1      29.236  15.435  17.226  1.00  0.00     0.140 C 
HETATM   20  C1  UNL     1      29.362  15.670  15.770  1.00  0.00     0.092 C 
HETATM   21  O1  UNL     1      29.335  16.351  17.999  1.00  0.00    -0.297 OA
ENDBRANCH  18  19
ENDBRANCH  16  18
ENDBRANCH  14  16
ENDBRANCH  12  14
ENDBRANCH   1  12
TORSDOF 5
ENDMDL
MODEL 2
REMARK VINA RESULT: -5.560162120      3.676      5.801
REMARK  5 active torsions:
REMARK  status: ('A' for Active; 'I' for Inactive)
REMARK    1  A    between atoms: C2_2  and  C3_4 
REMARK    2  A    between atoms: C3_4  and  N1_5 
REMARK    3  A    between atoms: N1_5  and  C4_7 
REMARK    4  A    between atoms: C4_7  and  N2_9 
REMARK    5  A    between atoms: N2_9  and  C5_11 
ROOT
HETATM    1  C5  UNL     1      29.476  12.291  19.586  1.00  0.00     0.090 C 
HETATM    2  C6  UNL     1      30.408  12.020  18.418  1.00  0.00     0.030 C 
HETATM    3  C7  UNL     1      29.622  12.348  17.171  1.00  0.00    -0.010 C 
HETATM    4  C8  UNL     1      29.689  13.788  16.784  1.00  0.00     0.040 C 
HETATM    5  C9  UNL     1      28.782  14.688  17.545  1.00  0.00     0.217 A 
HETATM    6  N3  UNL     1      29.212  15.072  18.873  1.00  0.00    -0.062 N 
ATOM      7  H31 UNL     1      29.370  15.955  19.360  1.00  0.00     0.278 HD
ATOM      8  H32 UNL     1      30.090  15.034  19.392  1.00  0.00     0.278 HD
HETATM    9  C10 UNL     1      28.106  14.199  18.692  1.00  0.00     0.222 A 
HETATM   10  C11 UNL     1      28.191  12.733  18.986  1.00  0.00     0.041 C 
HETATM   11  C12 UNL     1      28.200  12.014  17.630  1.00  0.00     0.013 C 
ENDROOT
BRANCH   1  12
HETATM   12  N2  UNL     1      29.229  11.010  20.271  1.00  0.00    -0.362 N 
ATOM     13  H2  UNL     1      29.827  10.211  20.059  1.00  0.00     0.162 HD
BRANCH  12  14
HETATM   14  C4  UNL     1      28.191  10.858  21.209  1.00  0.00     0.168 C 
HETATM   15  S1  UNL     1      26.985   9.767  21.027  1.00  0.00    -0.041 SA
BRANCH  14  16
HETATM   16  N1  UNL     1      28.182  11.678  22.365  1.00  0.00    -0.360 N 
ATOM     17  H1  UNL     1      27.836  12.636  22.304  1.00  0.00     0.162 HD
BRANCH  16  18
HETATM   18  C3  UNL     1      28.658  11.168  23.626  1.00  0.00     0.199 C 
BRANCH  18  19
HETATM   19  C2  UNL     1      29.471  12.171  24.359  1.00  0.00     0.140 C 
HETATM   20  C1  UNL     1      30.446  11.753  25.391  1.00  0.00     0.092 C 
HETATM   21  O1  UNL     1      29.324  13.336  24.101  1.00  0.00    -0.297 OA
ENDBRANCH  18  19
ENDBRANCH  16  18
ENDBRANCH  14  16
ENDBRANCH  12  14
ENDBRANCH   1  12
TORSDOF 5
ENDMDL
MODEL 3
REMARK VINA RESULT: -5.480439213      1.802      2.556
REMARK  5 active torsions:
REMARK  status: ('A' for Active; 'I' for Inactive)
REMARK    1  A    between atoms: C2_2  and  C3_4 
REMARK    2  A    between atoms: C3_4  and  N1_5 
REMARK    3  A    between atoms: N1_5  and  C4_7 
REMARK    4  A    between atoms: C4_7  and  N2_9 
REMARK    5  A    between atoms: N2_9  and  C5_11 
ROOT
HETATM    1  C5  UNL     1      26.926  10.760  19.423  1.00  0.00     0.090 C 
HETATM    2  C6  UNL     1      26.935  10.051  20.766  1.00  0.00     0.030 C 
HETATM    3  C7  UNL     1      25.624   9.306  20.854  1.00  0.00    -0.010 C 
HETATM    4  C8  UNL     1      25.664   7.951  20.231  1.00  0.00     0.040 C 
HETATM    5  C9  UNL     1      25.528   7.934  18.750  1.00  0.00     0.217 A 
HETATM    6  N3  UNL     1      26.711   8.270  17.986  1.00  0.00    -0.062 N 
ATOM      7  H31 UNL     1      27.256   7.817  17.251  1.00  0.00     0.278 HD
ATOM      8  H32 UNL     1      27.708   8.351  18.188  1.00  0.00     0.278 HD
HETATM    9  C10 UNL     1      25.597   9.150  18.024  1.00  0.00     0.222 A 
HETATM   10  C11 UNL     1      25.619  10.432  18.799  1.00  0.00     0.041 C 
HETATM   11  C12 UNL     1      24.718  10.219  20.023  1.00  0.00     0.013 C 
ENDROOT
BRANCH   1  12
HETATM   12  N2  UNL     1      26.944  12.211  19.681  1.00  0.00    -0.362 N 
ATOM     13  H2  UNL     1      26.171  12.633  20.196  1.00  0.00     0.162 HD
BRANCH  12  14
HETATM   14  C4  UNL     1      27.998  13.031  19.235  1.00  0.00     0.168 C 
HETATM   15  S1  UNL     1      29.495  12.452  18.914  1.00  0.00    -0.041 SA
BRANCH  14  16
HETATM   16  N1  UNL     1      27.763  14.416  19.052  1.00  0.00    -0.360 N 
ATOM     17  H1  UNL     1      26.822  14.791  19.175  1.00  0.00     0.162 HD
BRANCH  16  18
HETATM   18  C3  UNL     1      28.843  15.299  18.693  1.00  0.00     0.199 C 
BRANCH  18  19
HETATM   19  C2  UNL     1      28.750  15.744  17.279  1.00  0.00     0.140 C 
HETATM   20  C1  UNL     1      29.599  15.134  16.232  1.00  0.00     0.092 C 
HETATM   21  O1  UNL     1      27.970  16.615  16.997  1.00  0.00    -0.297 OA
ENDBRANCH  18  19
ENDBRANCH  16  18
ENDBRANCH  14  16
ENDBRANCH  12  14
ENDBRANCH   1  12
TORSDOF 5
ENDMDL
MODEL 4
REMARK VINA RESULT: -5.464014580      2.851      4.227
REMARK  5 active torsions:
REMARK  status: ('A' for Active; 'I' for Inactive)
REMARK    1  A    between atoms: C2_2  and  C3_4 
REMARK    2  A    between atoms: C3_4  and  N1_5 
REMARK    3  A    between atoms: N1_5  and  C4_7 
REMARK    4  A    between atoms: C4_7  and  N2_9 
REMARK    5  A    between atoms: N2_9  and  C5_11 
ROOT
HETATM    1  C5  UNL     1      29.740  11.304  17.981  1.00  0.00     0.090 C 
HETATM    2  C6  UNL     1      31.187  11.683  17.715  1.00  0.00     0.030 C 
HETATM    3  C7  UNL     1      31.992  10.420  17.909  1.00  0.00    -0.010 C 
HETATM    4  C8  UNL     1      32.076   9.571  16.685  1.00  0.00     0.040 C 
HETATM    5  C9  UNL     1      30.883   8.722  16.424  1.00  0.00     0.217 A 
HETATM    6  N3  UNL     1      29.735   9.379  15.835  1.00  0.00    -0.062 N 
ATOM      7  H31 UNL     1      29.163   9.235  15.002  1.00  0.00     0.278 HD
ATOM      8  H32 UNL     1      29.569  10.269  15.365  1.00  0.00     0.278 HD
HETATM    9  C10 UNL     1      29.699   8.922  17.179  1.00  0.00     0.222 A 
HETATM   10  C11 UNL     1      29.757   9.864  18.343  1.00  0.00     0.041 C 
HETATM   11  C12 UNL     1      31.150   9.701  18.967  1.00  0.00     0.013 C 
ENDROOT
BRANCH   1  12
HETATM   12  N2  UNL     1      29.289  12.055  19.166  1.00  0.00    -0.362 N 
ATOM     13  H2  UNL     1      29.955  12.245  19.915  1.00  0.00     0.162 HD
BRANCH  12  14
HETATM   14  C4  UNL     1      27.965  12.516  19.292  1.00  0.00     0.168 C 
HETATM   15  S1  UNL     1      26.705  11.517  19.599  1.00  0.00    -0.041 SA
BRANCH  14  16
HETATM   16  N1  UNL     1      27.702  13.902  19.152  1.00  0.00    -0.360 N 
ATOM     17  H1  UNL     1      26.742  14.242  19.199  1.00  0.00     0.162 HD
BRANCH  16  18
HETATM   18  C3  UNL     1      28.782  14.832  18.945  1.00  0.00     0.199 C 
BRANCH  18  19
HETATM   19  C2  UNL     1      28.785  15.381  17.565  1.00  0.00     0.140 C 
HETATM   20  C1  UNL     1      29.660  14.806  16.519  1.00  0.00     0.092 C 
HETATM   21  O1  UNL     1      28.062  16.306  17.308  1.00  0.00    -0.297 OA
ENDBRANCH  18  19
ENDBRANCH  16  18
ENDBRANCH  14  16
ENDBRANCH  12  14
ENDBRANCH   1  12
TORSDOF 5
ENDMDL
MODEL 5
REMARK VINA RESULT: -5.402886394      3.358      5.386
REMARK  5 active torsions:
REMARK  status: ('A' for Active; 'I' for Inactive)
REMARK    1  A    between atoms: C2_2  and  C3_4 
REMARK    2  A    between atoms: C3_4  and  N1_5 
REMARK    3  A    between atoms: N1_5  and  C4_7 
REMARK    4  A    between atoms: C4_7  and  N2_9 
REMARK    5  A    between atoms: N2_9  and  C5_11 
ROOT
HETATM    1  C5  UNL     1      29.766  11.654  19.415  1.00  0.00     0.090 C 
HETATM    2  C6  UNL     1      30.608  11.915  18.178  1.00  0.00     0.030 C 
HETATM    3  C7  UNL     1      29.663  12.472  17.139  1.00  0.00    -0.010 C 
HETATM    4  C8  UNL     1      29.483  13.950  17.227  1.00  0.00     0.040 C 
HETATM    5  C9  UNL     1      28.534  14.408  18.277  1.00  0.00     0.217 A 
HETATM    6  N3  UNL     1      29.032  14.434  19.636  1.00  0.00    -0.062 N 
ATOM      7  H31 UNL     1      29.107  15.138  20.370  1.00  0.00     0.278 HD
ATOM      8  H32 UNL     1      29.953  14.388  20.073  1.00  0.00     0.278 HD
HETATM    9  C10 UNL     1      28.052  13.485  19.240  1.00  0.00     0.222 A 
HETATM   10  C11 UNL     1      28.378  12.035  19.049  1.00  0.00     0.041 C 
HETATM   11  C12 UNL     1      28.357  11.777  17.536  1.00  0.00     0.013 C 
ENDROOT
BRANCH   1  12
HETATM   12  N2  UNL     1      29.777  10.203  19.668  1.00  0.00    -0.362 N 
ATOM     13  H2  UNL     1      30.339   9.599  19.068  1.00  0.00     0.162 HD
BRANCH  12  14
HETATM   14  C4  UNL     1      29.033   9.627  20.715  1.00  0.00     0.168 C 
HETATM   15  S1  UNL     1      27.836   8.540  20.458  1.00  0.00    -0.041 SA
BRANCH  14  16
HETATM   16  N1  UNL     1      29.327   9.995  22.052  1.00  0.00    -0.360 N 
ATOM     17  H1  UNL     1      30.157   9.621  22.510  1.00  0.00     0.162 HD
BRANCH  16  18
HETATM   18  C3  UNL     1      28.460  10.895  22.768  1.00  0.00     0.199 C 
BRANCH  18  19
HETATM   19  C2  UNL     1      29.201  12.054  23.327  1.00  0.00     0.140 C 
HETATM   20  C1  UNL     1      29.661  12.056  24.734  1.00  0.00     0.092 C 
HETATM   21  O1  UNL     1      29.423  12.997  22.615  1.00  0.00    -0.297 OA
ENDBRANCH  18  19
ENDBRANCH  16  18
ENDBRANCH  14  16
ENDBRANCH  12  14
ENDBRANCH   1  12
TORSDOF 5
ENDMDL
