MODEL 1
REMARK VINA RESULT: -5.634088617      0.000      0.000
REMARK  5 active torsions:
REMARK  status: ('A' for Active; 'I' for Inactive)
REMARK    1  A    between atoms: C2_2  and  N1_3 
REMARK    2  A    between atoms: N1_3  and  C3_5 
REMARK    3  A    between atoms: C3_5  and  N2_7 
REMARK    4  A    between atoms: N2_7  and  N3_9 
REMARK       I    between atoms: N3_9  and  C4_11 
REMARK    5  A    between atoms: C4_11  and  C5_13 
ROOT
HETATM    1  N3  UNL     1      28.266  11.387  21.788  1.00  0.00    -0.268 N 
ATOM      2  H3  UNL     1      27.931  10.425  21.845  1.00  0.00     0.190 HD
HETATM    3  C4  UNL     1      29.052  11.911  22.825  1.00  0.00     0.242 C 
HETATM    4  O1  UNL     1      29.465  13.089  22.756  1.00  0.00    -0.271 OA
ENDROOT
BRANCH   3   5
HETATM    5  C5  UNL     1      29.403  11.104  23.992  1.00  0.00     0.110 C 
HETATM    6  C6  UNL     1      28.362  10.037  24.305  1.00  0.00     0.018 C 
HETATM    7  C7  UNL     1      29.023   9.164  25.381  1.00  0.00     0.034 C 
HETATM    8  C8  UNL     1      29.560  10.046  26.499  1.00  0.00     0.186 C 
HETATM    9  C9  UNL     1      31.013  10.413  26.310  1.00  0.00     0.035 C 
HETATM   10  N4  UNL     1      28.892  11.307  26.399  1.00  0.00    -0.066 N 
HETATM   11  C10 UNL     1      30.991  11.814  25.677  1.00  0.00     0.036 C 
HETATM   12  C11 UNL     1      29.524  11.929  25.253  1.00  0.00     0.199 C 
ATOM     13  H42 UNL     1      27.875  11.244  26.340  1.00  0.00     0.278 HD
ATOM     14  H41 UNL     1      28.913  11.868  27.251  1.00  0.00     0.278 HD
ENDBRANCH   3   5
BRANCH   1  15
HETATM   15  N2  UNL     1      27.942  12.162  20.690  1.00  0.00    -0.274 N 
ATOM     16  H2  UNL     1      26.956  12.335  20.493  1.00  0.00     0.189 HD
BRANCH  15  17
HETATM   17  C3  UNL     1      28.912  12.727  19.824  1.00  0.00     0.186 C 
HETATM   18  S1  UNL     1      29.862  11.737  18.909  1.00  0.00    -0.040 SA
BRANCH  17  19
HETATM   19  N1  UNL     1      29.081  14.129  19.721  1.00  0.00    -0.366 N 
ATOM     20  H1  UNL     1      29.798  14.579  20.290  1.00  0.00     0.161 HD
BRANCH  19  21
HETATM   21  C2  UNL     1      28.285  14.936  18.849  1.00  0.00     0.117 C 
HETATM   22  C1  UNL     1      29.150  15.589  17.786  1.00  0.00     0.026 C 
ENDBRANCH  19  21
ENDBRANCH  17  19
ENDBRANCH  15  17
ENDBRANCH   1  15
TORSDOF 5
ENDMDL
MODEL 2
REMARK VINA RESULT: -5.590628885      4.890      6.088
REMARK  5 active torsions:
REMARK  status: ('A' for Active; 'I' for Inactive)
REMARK    1  A    between atoms: C2_2  and  N1_3 
REMARK    2  A    between atoms: N1_3  and  C3_5 
REMARK    3  A    between atoms: C3_5  and  N2_7 
REMARK    4  A    between atoms: N2_7  and  N3_9 
REMARK       I    between atoms: N3_9  and  C4_11 
REMARK    5  A    between atoms: C4_11  and  C5_13 
ROOT
HETATM    1  N3  UNL     1      26.980  12.364  18.925  1.00  0.00    -0.268 N 
ATOM      2  H3  UNL     1      26.703  12.317  17.944  1.00  0.00     0.190 HD
HETATM    3  C4  UNL     1      26.543  11.375  19.819  1.00  0.00     0.242 C 
HETATM    4  O1  UNL     1      26.884  11.431  21.021  1.00  0.00    -0.271 OA
ENDROOT
BRANCH   3   5
HETATM    5  C5  UNL     1      25.695  10.272  19.373  1.00  0.00     0.110 C 
HETATM    6  C6  UNL     1      25.125   9.462  20.530  1.00  0.00     0.018 C 
HETATM    7  C7  UNL     1      24.093   8.534  19.872  1.00  0.00     0.034 C 
HETATM    8  C8  UNL     1      24.728   7.817  18.690  1.00  0.00     0.186 C 
HETATM    9  C9  UNL     1      24.496   8.531  17.379  1.00  0.00     0.035 C 
HETATM   10  N4  UNL     1      26.146   7.899  18.858  1.00  0.00    -0.066 N 
HETATM   11  C10 UNL     1      25.779   9.344  17.137  1.00  0.00     0.036 C 
HETATM   12  C11 UNL     1      26.443   9.276  18.516  1.00  0.00     0.199 C 
ATOM     13  H42 UNL     1      26.481   7.610  19.777  1.00  0.00     0.278 HD
ATOM     14  H41 UNL     1      26.677   7.207  18.330  1.00  0.00     0.278 HD
ENDBRANCH   3   5
BRANCH   1  15
HETATM   15  N2  UNL     1      27.782  13.402  19.361  1.00  0.00    -0.274 N 
ATOM     16  H2  UNL     1      27.513  13.899  20.210  1.00  0.00     0.189 HD
BRANCH  15  17
HETATM   17  C3  UNL     1      28.960  13.810  18.685  1.00  0.00     0.186 C 
HETATM   18  S1  UNL     1      30.046  12.675  18.183  1.00  0.00    -0.040 SA
BRANCH  17  19
HETATM   19  N1  UNL     1      29.225  15.176  18.424  1.00  0.00    -0.366 N 
ATOM     20  H1  UNL     1      29.932  15.654  18.982  1.00  0.00     0.161 HD
BRANCH  19  21
HETATM   21  C2  UNL     1      28.538  15.910  17.407  1.00  0.00     0.117 C 
HETATM   22  C1  UNL     1      29.243  15.761  16.071  1.00  0.00     0.026 C 
ENDBRANCH  19  21
ENDBRANCH  17  19
ENDBRANCH  15  17
ENDBRANCH   1  15
TORSDOF 5
ENDMDL
MODEL 3
REMARK VINA RESULT: -5.564884979      4.953      6.836
REMARK  5 active torsions:
REMARK  status: ('A' for Active; 'I' for Inactive)
REMARK    1  A    between atoms: C2_2  and  N1_3 
REMARK    2  A    between atoms: N1_3  and  C3_5 
REMARK    3  A    between atoms: C3_5  and  N2_7 
REMARK    4  A    between atoms: N2_7  and  N3_9 
REMARK       I    between atoms: N3_9  and  C4_11 
REMARK    5  A    between atoms: C4_11  and  C5_13 
ROOT
HETATM    1  N3  UNL     1      26.204  11.481  19.180  1.00  0.00    -0.268 N 
ATOM      2  H3  UNL     1      25.969  11.665  18.204  1.00  0.00     0.190 HD
HETATM    3  C4  UNL     1      25.717  10.324  19.804  1.00  0.00     0.242 C 
HETATM    4  O1  UNL     1      26.005  10.096  21.000  1.00  0.00    -0.271 OA
ENDROOT
BRANCH   3   5
HETATM    5  C5  UNL     1      24.876   9.370  19.083  1.00  0.00     0.110 C 
HETATM    6  C6  UNL     1      24.262   8.318  19.997  1.00  0.00     0.018 C 
HETATM    7  C7  UNL     1      23.246   7.587  19.107  1.00  0.00     0.034 C 
HETATM    8  C8  UNL     1      23.915   7.161  17.808  1.00  0.00     0.186 C 
HETATM    9  C9  UNL     1      23.733   8.169  16.697  1.00  0.00     0.035 C 
HETATM   10  N4  UNL     1      25.327   7.181  18.035  1.00  0.00    -0.066 N 
HETATM   11  C10 UNL     1      25.028   8.997  16.695  1.00  0.00     0.036 C 
HETATM   12  C11 UNL     1      25.645   8.595  18.038  1.00  0.00     0.199 C 
ATOM     13  H42 UNL     1      25.629   6.677  18.869  1.00  0.00     0.278 HD
ATOM     14  H41 UNL     1      25.871   6.625  17.374  1.00  0.00     0.278 HD
ENDBRANCH   3   5
BRANCH   1  15
HETATM   15  N2  UNL     1      26.998  12.375  19.873  1.00  0.00    -0.274 N 
ATOM     16  H2  UNL     1      26.850  12.477  20.877  1.00  0.00     0.189 HD
BRANCH  15  17
HETATM   17  C3  UNL     1      28.007  13.157  19.258  1.00  0.00     0.186 C 
HETATM   18  S1  UNL     1      29.465  12.472  18.900  1.00  0.00    -0.040 SA
BRANCH  17  19
HETATM   19  N1  UNL     1      27.792  14.519  18.935  1.00  0.00    -0.366 N 
ATOM     20  H1  UNL     1      26.837  14.880  18.940  1.00  0.00     0.161 HD
BRANCH  19  21
HETATM   21  C2  UNL     1      28.863  15.407  18.603  1.00  0.00     0.117 C 
HETATM   22  C1  UNL     1      28.839  15.744  17.123  1.00  0.00     0.026 C 
ENDBRANCH  19  21
ENDBRANCH  17  19
ENDBRANCH  15  17
ENDBRANCH   1  15
TORSDOF 5
ENDMDL
MODEL 4
REMARK VINA RESULT: -5.506884443      4.494      5.524
REMARK  5 active torsions:
REMARK  status: ('A' for Active; 'I' for Inactive)
REMARK    1  A    between atoms: C2_2  and  N1_3 
REMARK    2  A    between atoms: N1_3  and  C3_5 
REMARK    3  A    between atoms: C3_5  and  N2_7 
REMARK    4  A    between atoms: N2_7  and  N3_9 
REMARK       I    between atoms: N3_9  and  C4_11 
REMARK    5  A    between atoms: C4_11  and  C5_13 
ROOT
HETATM    1  N3  UNL     1      27.008  12.101  19.230  1.00  0.00    -0.268 N 
ATOM      2  H3  UNL     1      26.642  11.796  18.327  1.00  0.00     0.190 HD
HETATM    3  C4  UNL     1      26.958  11.231  20.329  1.00  0.00     0.242 C 
HETATM    4  O1  UNL     1      27.407  11.602  21.435  1.00  0.00    -0.271 OA
ENDROOT
BRANCH   3   5
HETATM    5  C5  UNL     1      26.390   9.890  20.208  1.00  0.00     0.110 C 
HETATM    6  C6  UNL     1      27.264   8.951  19.387  1.00  0.00     0.018 C 
HETATM    7  C7  UNL     1      26.629   7.567  19.587  1.00  0.00     0.034 C 
HETATM    8  C8  UNL     1      25.135   7.643  19.309  1.00  0.00     0.186 C 
HETATM    9  C9  UNL     1      24.318   7.882  20.557  1.00  0.00     0.035 C 
HETATM   10  N4  UNL     1      24.909   8.829  18.541  1.00  0.00    -0.066 N 
HETATM   11  C10 UNL     1      24.046   9.396  20.571  1.00  0.00     0.036 C 
HETATM   12  C11 UNL     1      25.044   9.890  19.519  1.00  0.00     0.199 C 
ATOM     13  H42 UNL     1      25.512   8.926  17.724  1.00  0.00     0.278 HD
ATOM     14  H41 UNL     1      24.030   8.838  18.024  1.00  0.00     0.278 HD
ENDBRANCH   3   5
BRANCH   1  15
HETATM   15  N2  UNL     1      27.549  13.367  19.358  1.00  0.00    -0.274 N 
ATOM     16  H2  UNL     1      27.058  14.047  19.938  1.00  0.00     0.189 HD
BRANCH  15  17
HETATM   17  C3  UNL     1      28.751  13.766  18.722  1.00  0.00     0.186 C 
HETATM   18  S1  UNL     1      29.839  12.622  18.245  1.00  0.00    -0.040 SA
BRANCH  17  19
HETATM   19  N1  UNL     1      29.039  15.131  18.480  1.00  0.00    -0.366 N 
ATOM     20  H1  UNL     1      29.702  15.609  19.090  1.00  0.00     0.161 HD
BRANCH  19  21
HETATM   21  C2  UNL     1      28.435  15.864  17.410  1.00  0.00     0.117 C 
HETATM   22  C1  UNL     1      29.247  15.719  16.136  1.00  0.00     0.026 C 
ENDBRANCH  19  21
ENDBRANCH  17  19
ENDBRANCH  15  17
ENDBRANCH   1  15
TORSDOF 5
ENDMDL
MODEL 5
REMARK VINA RESULT: -5.489509311      1.691      2.292
REMARK  5 active torsions:
REMARK  status: ('A' for Active; 'I' for Inactive)
REMARK    1  A    between atoms: C2_2  and  N1_3 
REMARK    2  A    between atoms: N1_3  and  C3_5 
REMARK    3  A    between atoms: C3_5  and  N2_7 
REMARK    4  A    between atoms: N2_7  and  N3_9 
REMARK       I    between atoms: N3_9  and  C4_11 
REMARK    5  A    between atoms: C4_11  and  C5_13 
ROOT
HETATM    1  N3  UNL     1      28.375  11.414  22.646  1.00  0.00    -0.268 N 
ATOM      2  H3  UNL     1      27.895  10.521  22.766  1.00  0.00     0.190 HD
HETATM    3  C4  UNL     1      28.904  12.074  23.764  1.00  0.00     0.242 C 
HETATM    4  O1  UNL     1      29.494  13.167  23.618  1.00  0.00    -0.271 OA
ENDROOT
BRANCH   3   5
HETATM    5  C5  UNL     1      28.782  11.508  25.106  1.00  0.00     0.110 C 
HETATM    6  C6  UNL     1      30.081  10.887  25.603  1.00  0.00     0.018 C 
HETATM    7  C7  UNL     1      29.815  10.583  27.085  1.00  0.00     0.034 C 
HETATM    8  C8  UNL     1      28.509   9.815  27.224  1.00  0.00     0.186 C 
HETATM    9  C9  UNL     1      27.325  10.714  27.491  1.00  0.00     0.035 C 
HETATM   10  N4  UNL     1      28.209   9.256  25.942  1.00  0.00    -0.066 N 
HETATM   11  C10 UNL     1      26.663  10.918  26.118  1.00  0.00     0.036 C 
HETATM   12  C11 UNL     1      27.755  10.401  25.178  1.00  0.00     0.199 C 
ATOM     13  H42 UNL     1      28.978   8.740  25.514  1.00  0.00     0.278 HD
ATOM     14  H41 UNL     1      27.555   8.474  25.962  1.00  0.00     0.278 HD
ENDBRANCH   3   5
BRANCH   1  15
HETATM   15  N2  UNL     1      28.497  11.960  21.382  1.00  0.00    -0.274 N 
ATOM     16  H2  UNL     1      29.328  12.512  21.171  1.00  0.00     0.189 HD
BRANCH  15  17
HETATM   17  C3  UNL     1      27.523  11.792  20.365  1.00  0.00     0.186 C 
HETATM   18  S1  UNL     1      26.713  10.360  20.243  1.00  0.00    -0.040 SA
BRANCH  17  19
HETATM   19  N1  UNL     1      27.224  12.830  19.450  1.00  0.00    -0.366 N 
ATOM     20  H1  UNL     1      26.256  13.136  19.355  1.00  0.00     0.161 HD
BRANCH  19  21
HETATM   21  C2  UNL     1      28.230  13.465  18.656  1.00  0.00     0.117 C 
HETATM   22  C1  UNL     1      28.091  14.975  18.722  1.00  0.00     0.026 C 
ENDBRANCH  19  21
ENDBRANCH  17  19
ENDBRANCH  15  17
ENDBRANCH   1  15
TORSDOF 5
ENDMDL
