MODEL 1
REMARK VINA RESULT: -5.988060638      0.000      0.000
REMARK  3 active torsions:
REMARK  status: ('A' for Active; 'I' for Inactive)
REMARK    1  A    between atoms: C7_10  and  N2_11 
REMARK       I    between atoms: N2_11  and  C8_13 
REMARK       I    between atoms: C8_13  and  N3_15 
REMARK    2  A    between atoms: N3_15  and  N4_17 
REMARK       I    between atoms: N4_17  and  C9_19 
REMARK    3  A    between atoms: C9_19  and  C10_21 
ROOT
HETATM    1  N2  UNL     1      39.994  -0.690  31.004  1.00  0.00    -0.336 N 
ATOM      2  H2  UNL     1      40.459   0.059  31.517  1.00  0.00     0.164 HD
HETATM    3  C8  UNL     1      40.620  -1.290  29.871  1.00  0.00     0.335 C 
HETATM    4  O1  UNL     1      40.047  -2.221  29.234  1.00  0.00    -0.246 OA
HETATM    5  N3  UNL     1      41.902  -0.878  29.411  1.00  0.00    -0.249 N 
ATOM      6  H3  UNL     1      42.365  -0.124  29.919  1.00  0.00     0.192 HD
ENDROOT
BRANCH   1   7
HETATM    7  C7  UNL     1      38.714  -1.152  31.405  1.00  0.00     0.097 C 
HETATM    8  C2  UNL     1      37.690  -0.081  31.696  1.00  0.00     0.035 C 
HETATM    9  C1  UNL     1      38.298   1.146  32.288  1.00  0.00     0.014 C 
HETATM   10  C3  UNL     1      36.915  -0.773  32.832  1.00  0.00     0.192 C 
HETATM   11  C4  UNL     1      38.131  -1.190  33.678  1.00  0.00     0.041 C 
HETATM   12  N1  UNL     1      36.416  -2.032  32.397  1.00  0.00    -0.070 N 
HETATM   13  C5  UNL     1      38.722  -2.089  32.587  1.00  0.00     0.036 C 
HETATM   14  C6  UNL     1      37.522  -3.003  32.427  1.00  0.00     0.239 C 
ATOM     15  H12 UNL     1      35.607  -2.342  32.937  1.00  0.00     0.277 HD
ATOM     16  H11 UNL     1      35.962  -1.982  31.485  1.00  0.00     0.277 HD
ENDBRANCH   1   7
BRANCH   5  17
HETATM   17  N4  UNL     1      42.567  -1.420  28.328  1.00  0.00    -0.266 N 
HETATM   18  C9  UNL     1      43.773  -0.814  27.894  1.00  0.00     0.240 C 
HETATM   19  O2  UNL     1      44.255   0.209  28.468  1.00  0.00    -0.271 OA
ATOM     20  H4  UNL     1      42.197  -2.241  27.850  1.00  0.00     0.190 HD
BRANCH  18  21
HETATM   21  C10 UNL     1      44.528  -1.355  26.739  1.00  0.00     0.080 A 
HETATM   22  C11 UNL     1      44.024  -2.532  25.990  1.00  0.00     0.015 A 
HETATM   23  C12 UNL     1      43.984  -1.156  25.359  1.00  0.00     0.015 A 
ENDBRANCH  18  21
ENDBRANCH   5  17
TORSDOF 3
ENDMDL
MODEL 2
REMARK VINA RESULT: -5.759672543      1.867      2.727
REMARK  3 active torsions:
REMARK  status: ('A' for Active; 'I' for Inactive)
REMARK    1  A    between atoms: C7_10  and  N2_11 
REMARK       I    between atoms: N2_11  and  C8_13 
REMARK       I    between atoms: C8_13  and  N3_15 
REMARK    2  A    between atoms: N3_15  and  N4_17 
REMARK       I    between atoms: N4_17  and  C9_19 
REMARK    3  A    between atoms: C9_19  and  C10_21 
ROOT
HETATM    1  N2  UNL     1      39.535  -0.264  31.412  1.00  0.00    -0.336 N 
ATOM      2  H2  UNL     1      38.717  -0.335  30.807  1.00  0.00     0.164 HD
HETATM    3  C8  UNL     1      40.846  -0.476  30.888  1.00  0.00     0.335 C 
HETATM    4  O1  UNL     1      41.863  -0.386  31.634  1.00  0.00    -0.246 OA
HETATM    5  N3  UNL     1      41.068  -0.792  29.518  1.00  0.00    -0.249 N 
ATOM      6  H3  UNL     1      40.250  -0.870  28.914  1.00  0.00     0.192 HD
ENDROOT
BRANCH   1   7
HETATM    7  C7  UNL     1      39.390   0.047  32.789  1.00  0.00     0.097 C 
HETATM    8  C2  UNL     1      39.012  -1.108  33.687  1.00  0.00     0.035 C 
HETATM    9  C1  UNL     1      38.118  -2.090  33.009  1.00  0.00     0.014 C 
HETATM   10  C3  UNL     1      38.139  -0.358  34.709  1.00  0.00     0.192 C 
HETATM   11  C4  UNL     1      37.256   0.399  33.701  1.00  0.00     0.041 C 
HETATM   12  N1  UNL     1      38.874   0.703  35.308  1.00  0.00    -0.070 N 
HETATM   13  C5  UNL     1      38.428   1.171  33.085  1.00  0.00     0.036 C 
HETATM   14  C6  UNL     1      38.910   1.831  34.362  1.00  0.00     0.239 C 
ATOM     15  H12 UNL     1      38.507   0.968  36.222  1.00  0.00     0.277 HD
ATOM     16  H11 UNL     1      39.805   0.415  35.610  1.00  0.00     0.277 HD
ENDBRANCH   1   7
BRANCH   5  17
HETATM   17  N4  UNL     1      42.307  -1.001  28.945  1.00  0.00    -0.266 N 
HETATM   18  C9  UNL     1      42.531  -2.198  28.220  1.00  0.00     0.240 C 
HETATM   19  O2  UNL     1      41.630  -3.081  28.086  1.00  0.00    -0.271 OA
ATOM     20  H4  UNL     1      43.048  -0.307  29.041  1.00  0.00     0.190 HD
BRANCH  18  21
HETATM   21  C10 UNL     1      43.840  -2.474  27.583  1.00  0.00     0.080 A 
HETATM   22  C11 UNL     1      43.914  -3.172  26.276  1.00  0.00     0.015 A 
HETATM   23  C12 UNL     1      44.232  -1.695  26.366  1.00  0.00     0.015 A 
ENDBRANCH  18  21
ENDBRANCH   5  17
TORSDOF 3
ENDMDL
MODEL 3
REMARK VINA RESULT: -5.742097109      1.563      2.357
REMARK  3 active torsions:
REMARK  status: ('A' for Active; 'I' for Inactive)
REMARK    1  A    between atoms: C7_10  and  N2_11 
REMARK       I    between atoms: N2_11  and  C8_13 
REMARK       I    between atoms: C8_13  and  N3_15 
REMARK    2  A    between atoms: N3_15  and  N4_17 
REMARK       I    between atoms: N4_17  and  C9_19 
REMARK    3  A    between atoms: C9_19  and  C10_21 
ROOT
HETATM    1  N2  UNL     1      39.446  -1.589  31.111  1.00  0.00    -0.336 N 
ATOM      2  H2  UNL     1      38.992  -2.453  30.818  1.00  0.00     0.164 HD
HETATM    3  C8  UNL     1      40.617  -1.122  30.440  1.00  0.00     0.335 C 
HETATM    4  O1  UNL     1      41.183  -0.049  30.798  1.00  0.00    -0.246 OA
HETATM    5  N3  UNL     1      41.195  -1.832  29.351  1.00  0.00    -0.249 N 
ATOM      6  H3  UNL     1      40.745  -2.701  29.062  1.00  0.00     0.192 HD
ENDROOT
BRANCH   1   7
HETATM    7  C7  UNL     1      38.926  -0.829  32.190  1.00  0.00     0.097 C 
HETATM    8  C2  UNL     1      38.260  -1.621  33.290  1.00  0.00     0.035 C 
HETATM    9  C1  UNL     1      37.556  -2.831  32.776  1.00  0.00     0.014 C 
HETATM   10  C3  UNL     1      37.162  -0.619  33.694  1.00  0.00     0.192 C 
HETATM   11  C4  UNL     1      36.638  -0.316  32.279  1.00  0.00     0.041 C 
HETATM   12  N1  UNL     1      37.739   0.628  34.064  1.00  0.00    -0.070 N 
HETATM   13  C5  UNL     1      37.968   0.266  31.789  1.00  0.00     0.036 C 
HETATM   14  C6  UNL     1      38.092   1.357  32.835  1.00  0.00     0.239 C 
ATOM     15  H12 UNL     1      37.138   1.170  34.684  1.00  0.00     0.277 HD
ATOM     16  H11 UNL     1      38.532   0.521  34.698  1.00  0.00     0.277 HD
ENDBRANCH   1   7
BRANCH   5  17
HETATM   17  N4  UNL     1      42.320  -1.435  28.654  1.00  0.00    -0.266 N 
HETATM   18  C9  UNL     1      42.875  -2.316  27.694  1.00  0.00     0.240 C 
HETATM   19  O2  UNL     1      42.372  -3.456  27.457  1.00  0.00    -0.271 OA
ATOM     20  H4  UNL     1      42.743  -0.523  28.829  1.00  0.00     0.190 HD
BRANCH  18  21
HETATM   21  C10 UNL     1      44.080  -1.941  26.916  1.00  0.00     0.080 A 
HETATM   22  C11 UNL     1      44.232  -2.366  25.503  1.00  0.00     0.015 A 
HETATM   23  C12 UNL     1      43.953  -0.915  25.833  1.00  0.00     0.015 A 
ENDBRANCH  18  21
ENDBRANCH   5  17
TORSDOF 3
ENDMDL
MODEL 4
REMARK VINA RESULT: -5.692816978      5.478      6.549
REMARK  3 active torsions:
REMARK  status: ('A' for Active; 'I' for Inactive)
REMARK    1  A    between atoms: C7_10  and  N2_11 
REMARK       I    between atoms: N2_11  and  C8_13 
REMARK       I    between atoms: C8_13  and  N3_15 
REMARK    2  A    between atoms: N3_15  and  N4_17 
REMARK       I    between atoms: N4_17  and  C9_19 
REMARK    3  A    between atoms: C9_19  and  C10_21 
ROOT
HETATM    1  N2  UNL     1      42.945   0.427  34.708  1.00  0.00    -0.336 N 
ATOM      2  H2  UNL     1      42.125   0.127  35.234  1.00  0.00     0.164 HD
HETATM    3  C8  UNL     1      43.219  -0.119  33.418  1.00  0.00     0.335 C 
HETATM    4  O1  UNL     1      44.234   0.252  32.761  1.00  0.00    -0.246 OA
HETATM    5  N3  UNL     1      42.374  -1.094  32.817  1.00  0.00    -0.249 N 
ATOM      6  H3  UNL     1      41.557  -1.400  33.346  1.00  0.00     0.192 HD
ENDROOT
BRANCH   1   7
HETATM    7  C7  UNL     1      43.833   1.395  35.245  1.00  0.00     0.097 C 
HETATM    8  C2  UNL     1      45.045   0.849  35.961  1.00  0.00     0.035 C 
HETATM    9  C1  UNL     1      44.760  -0.430  36.674  1.00  0.00     0.014 C 
HETATM   10  C3  UNL     1      45.203   1.926  37.049  1.00  0.00     0.192 C 
HETATM   11  C4  UNL     1      43.740   1.948  37.523  1.00  0.00     0.041 C 
HETATM   12  N1  UNL     1      45.337   3.214  36.458  1.00  0.00    -0.070 N 
HETATM   13  C5  UNL     1      43.189   2.401  36.167  1.00  0.00     0.036 C 
HETATM   14  C6  UNL     1      44.000   3.677  36.053  1.00  0.00     0.239 C 
ATOM     15  H12 UNL     1      45.815   3.878  37.066  1.00  0.00     0.277 HD
ATOM     16  H11 UNL     1      46.006   3.225  35.687  1.00  0.00     0.277 HD
ENDBRANCH   1   7
BRANCH   5  17
HETATM   17  N4  UNL     1      42.575  -1.658  31.572  1.00  0.00    -0.266 N 
HETATM   18  C9  UNL     1      41.903  -1.103  30.455  1.00  0.00     0.240 C 
HETATM   19  O2  UNL     1      41.124  -0.108  30.565  1.00  0.00    -0.271 OA
ATOM     20  H4  UNL     1      43.196  -2.459  31.460  1.00  0.00     0.190 HD
BRANCH  18  21
HETATM   21  C10 UNL     1      42.084  -1.667  29.096  1.00  0.00     0.080 A 
HETATM   22  C11 UNL     1      43.299  -1.356  28.304  1.00  0.00     0.015 A 
HETATM   23  C12 UNL     1      43.107  -2.739  28.886  1.00  0.00     0.015 A 
ENDBRANCH  18  21
ENDBRANCH   5  17
TORSDOF 3
ENDMDL
MODEL 5
REMARK VINA RESULT: -5.619899379      1.877      2.799
REMARK  3 active torsions:
REMARK  status: ('A' for Active; 'I' for Inactive)
REMARK    1  A    between atoms: C7_10  and  N2_11 
REMARK       I    between atoms: N2_11  and  C8_13 
REMARK       I    between atoms: C8_13  and  N3_15 
REMARK    2  A    between atoms: N3_15  and  N4_17 
REMARK       I    between atoms: N4_17  and  C9_19 
REMARK    3  A    between atoms: C9_19  and  C10_21 
ROOT
HETATM    1  N2  UNL     1      38.487  -0.086  31.419  1.00  0.00    -0.336 N 
ATOM      2  H2  UNL     1      37.805  -0.029  30.663  1.00  0.00     0.164 HD
HETATM    3  C8  UNL     1      39.868  -0.305  31.134  1.00  0.00     0.335 C 
HETATM    4  O1  UNL     1      40.717  -0.375  32.069  1.00  0.00    -0.246 OA
HETATM    5  N3  UNL     1      40.349  -0.453  29.803  1.00  0.00    -0.249 N 
ATOM      6  H3  UNL     1      39.667  -0.402  29.046  1.00  0.00     0.192 HD
ENDROOT
BRANCH   1   7
HETATM    7  C7  UNL     1      38.079   0.051  32.770  1.00  0.00     0.097 C 
HETATM    8  C2  UNL     1      36.711  -0.496  33.102  1.00  0.00     0.035 C 
HETATM    9  C1  UNL     1      35.745  -0.343  31.976  1.00  0.00     0.014 C 
HETATM   10  C3  UNL     1      36.286   0.519  34.179  1.00  0.00     0.192 C 
HETATM   11  C4  UNL     1      36.644   1.797  33.400  1.00  0.00     0.041 C 
HETATM   12  N1  UNL     1      37.237   0.548  35.238  1.00  0.00    -0.070 N 
HETATM   13  C5  UNL     1      38.135   1.459  33.309  1.00  0.00     0.036 C 
HETATM   14  C6  UNL     1      38.394   1.346  34.799  1.00  0.00     0.239 C 
ATOM     15  H12 UNL     1      36.839   0.883  36.114  1.00  0.00     0.277 HD
ATOM     16  H11 UNL     1      37.502  -0.386  35.554  1.00  0.00     0.277 HD
ENDBRANCH   1   7
BRANCH   5  17
HETATM   17  N4  UNL     1      41.671  -0.659  29.457  1.00  0.00    -0.266 N 
HETATM   18  C9  UNL     1      42.022  -1.858  28.788  1.00  0.00     0.240 C 
HETATM   19  O2  UNL     1      41.162  -2.745  28.501  1.00  0.00    -0.271 OA
ATOM     20  H4  UNL     1      42.381   0.039  29.679  1.00  0.00     0.190 HD
BRANCH  18  21
HETATM   21  C10 UNL     1      43.425  -2.131  28.392  1.00  0.00     0.080 A 
HETATM   22  C11 UNL     1      43.727  -2.962  27.201  1.00  0.00     0.015 A 
HETATM   23  C12 UNL     1      43.973  -1.469  27.167  1.00  0.00     0.015 A 
ENDBRANCH  18  21
ENDBRANCH   5  17
TORSDOF 3
ENDMDL
