MODEL 1
REMARK VINA RESULT: -5.658749486      0.000      0.000
REMARK  4 active torsions:
REMARK  status: ('A' for Active; 'I' for Inactive)
REMARK       I    between atoms: C1_4  and  N3_6 
REMARK    1  A    between atoms: C4_9  and  N4_10 
REMARK    2  A    between atoms: N4_10  and  C5_12 
REMARK    3  A    between atoms: C5_12  and  N5_14 
REMARK    4  A    between atoms: N5_14  and  C6_16 
ROOT
HETATM    1  N4  UNL     1      40.551  -4.158  29.524  1.00  0.00    -0.361 N 
ATOM      2  H4  UNL     1      40.026  -4.929  29.935  1.00  0.00     0.162 HD
ENDROOT
BRANCH   1   3
HETATM    3  C4  UNL     1      39.909  -2.879  29.298  1.00  0.00     0.103 C 
HETATM    4  C3  UNL     1      38.435  -3.035  29.354  1.00  0.00     0.046 C 
HETATM    5  C2  UNL     1      37.940  -1.956  30.272  1.00  0.00     0.127 C 
HETATM    6  N3  UNL     1      39.072  -1.186  30.717  1.00  0.00    -0.354 N 
HETATM    7  C1  UNL     1      39.018   0.054  31.388  1.00  0.00     0.184 C 
HETATM    8  C11 UNL     1      40.281  -1.892  30.365  1.00  0.00     0.150 C 
HETATM    9  N1  UNL     1      38.943   1.134  30.709  1.00  0.00    -0.374 N 
HETATM   10  N2  UNL     1      39.047   0.075  32.804  1.00  0.00    -0.064 NA
ATOM     11  H12 UNL     1      38.904   2.030  31.194  1.00  0.00     0.158 HD
ATOM     12  H11 UNL     1      38.922   1.119  29.690  1.00  0.00     0.158 HD
ENDBRANCH   1   3
BRANCH   1  13
HETATM   13  C5  UNL     1      41.912  -4.331  29.172  1.00  0.00     0.168 C 
HETATM   14  S1  UNL     1      43.014  -4.823  30.267  1.00  0.00    -0.041 SA
BRANCH  13  15
HETATM   15  N5  UNL     1      42.362  -4.080  27.853  1.00  0.00    -0.363 N 
ATOM     16  H5  UNL     1      41.868  -4.527  27.081  1.00  0.00     0.162 HD
BRANCH  15  17
HETATM   17  C6  UNL     1      43.472  -3.235  27.547  1.00  0.00     0.083 C 
HETATM   18  C7  UNL     1      43.222  -1.803  28.015  1.00  0.00     0.025 C 
HETATM   19  C8  UNL     1      43.759  -0.880  26.977  1.00  0.00     0.002 C 
HETATM   20  C9  UNL     1      44.568  -1.781  26.070  1.00  0.00     0.002 C 
HETATM   21  C10 UNL     1      43.662  -3.021  26.044  1.00  0.00     0.025 C 
ENDBRANCH  15  17
ENDBRANCH  13  15
ENDBRANCH   1  13
TORSDOF 4
ENDMDL
MODEL 2
REMARK VINA RESULT: -5.607519628      2.804      6.184
REMARK  4 active torsions:
REMARK  status: ('A' for Active; 'I' for Inactive)
REMARK       I    between atoms: C1_4  and  N3_6 
REMARK    1  A    between atoms: C4_9  and  N4_10 
REMARK    2  A    between atoms: N4_10  and  C5_12 
REMARK    3  A    between atoms: C5_12  and  N5_14 
REMARK    4  A    between atoms: N5_14  and  C6_16 
ROOT
HETATM    1  N4  UNL     1      40.288  -3.846  29.490  1.00  0.00    -0.361 N 
ATOM      2  H4  UNL     1      40.259  -4.817  29.178  1.00  0.00     0.162 HD
ENDROOT
BRANCH   1   3
HETATM    3  C4  UNL     1      41.560  -3.189  29.703  1.00  0.00     0.103 C 
HETATM    4  C3  UNL     1      42.672  -4.130  29.419  1.00  0.00     0.046 C 
HETATM    5  C2  UNL     1      43.614  -3.395  28.512  1.00  0.00     0.127 C 
HETATM    6  N3  UNL     1      43.091  -2.072  28.291  1.00  0.00    -0.354 N 
HETATM    7  C1  UNL     1      43.787  -0.994  27.703  1.00  0.00     0.184 C 
HETATM    8  C11 UNL     1      41.730  -2.025  28.770  1.00  0.00     0.150 C 
HETATM    9  N1  UNL     1      44.521  -0.246  28.433  1.00  0.00    -0.374 N 
HETATM   10  N2  UNL     1      43.656  -0.765  26.311  1.00  0.00    -0.064 NA
ATOM     11  H12 UNL     1      45.023   0.533  28.008  1.00  0.00     0.158 HD
ATOM     12  H11 UNL     1      44.614  -0.411  29.435  1.00  0.00     0.158 HD
ENDBRANCH   1   3
BRANCH   1  13
HETATM   13  C5  UNL     1      39.084  -3.135  29.717  1.00  0.00     0.168 C 
HETATM   14  S1  UNL     1      38.783  -2.417  31.149  1.00  0.00    -0.041 SA
BRANCH  13  15
HETATM   15  N5  UNL     1      38.099  -3.026  28.706  1.00  0.00    -0.363 N 
ATOM     16  H5  UNL     1      38.384  -2.684  27.788  1.00  0.00     0.162 HD
BRANCH  15  17
HETATM   17  C6  UNL     1      36.727  -3.370  28.904  1.00  0.00     0.083 C 
HETATM   18  C7  UNL     1      36.341  -4.598  28.083  1.00  0.00     0.025 C 
HETATM   19  C8  UNL     1      34.972  -4.376  27.540  1.00  0.00     0.002 C 
HETATM   20  C9  UNL     1      34.474  -3.160  28.288  1.00  0.00     0.002 C 
HETATM   21  C10 UNL     1      35.763  -2.326  28.336  1.00  0.00     0.025 C 
ENDBRANCH  15  17
ENDBRANCH  13  15
ENDBRANCH   1  13
TORSDOF 4
ENDMDL
MODEL 3
REMARK VINA RESULT: -5.481251315      2.417      6.103
REMARK  4 active torsions:
REMARK  status: ('A' for Active; 'I' for Inactive)
REMARK       I    between atoms: C1_4  and  N3_6 
REMARK    1  A    between atoms: C4_9  and  N4_10 
REMARK    2  A    between atoms: N4_10  and  C5_12 
REMARK    3  A    between atoms: C5_12  and  N5_14 
REMARK    4  A    between atoms: N5_14  and  C6_16 
ROOT
HETATM    1  N4  UNL     1      40.089  -3.608  29.486  1.00  0.00    -0.361 N 
ATOM      2  H4  UNL     1      40.020  -4.522  29.040  1.00  0.00     0.162 HD
ENDROOT
BRANCH   1   3
HETATM    3  C4  UNL     1      41.387  -3.014  29.731  1.00  0.00     0.103 C 
HETATM    4  C3  UNL     1      42.453  -4.030  29.543  1.00  0.00     0.046 C 
HETATM    5  C2  UNL     1      43.478  -3.393  28.651  1.00  0.00     0.127 C 
HETATM    6  N3  UNL     1      43.044  -2.054  28.347  1.00  0.00    -0.354 N 
HETATM    7  C1  UNL     1      43.828  -1.046  27.747  1.00  0.00     0.184 C 
HETATM    8  C11 UNL     1      41.668  -1.907  28.757  1.00  0.00     0.150 C 
HETATM    9  N1  UNL     1      44.571  -0.308  28.478  1.00  0.00    -0.374 N 
HETATM   10  N2  UNL     1      43.775  -0.875  26.341  1.00  0.00    -0.064 NA
ATOM     11  H12 UNL     1      45.137   0.421  28.044  1.00  0.00     0.158 HD
ATOM     12  H11 UNL     1      44.609  -0.431  29.489  1.00  0.00     0.158 HD
ENDBRANCH   1   3
BRANCH   1  13
HETATM   13  C5  UNL     1      38.917  -2.912  29.869  1.00  0.00     0.168 C 
HETATM   14  S1  UNL     1      37.532  -3.056  29.021  1.00  0.00    -0.041 SA
BRANCH  13  15
HETATM   15  N5  UNL     1      38.909  -2.063  31.002  1.00  0.00    -0.363 N 
ATOM     16  H5  UNL     1      39.539  -2.281  31.773  1.00  0.00     0.162 HD
BRANCH  15  17
HETATM   17  C6  UNL     1      38.064  -0.917  31.121  1.00  0.00     0.083 C 
HETATM   18  C7  UNL     1      38.885   0.359  31.295  1.00  0.00     0.025 C 
HETATM   19  C8  UNL     1      38.189   1.221  32.290  1.00  0.00     0.002 C 
HETATM   20  C9  UNL     1      36.835   0.567  32.457  1.00  0.00     0.002 C 
HETATM   21  C10 UNL     1      37.243  -0.913  32.412  1.00  0.00     0.025 C 
ENDBRANCH  15  17
ENDBRANCH  13  15
ENDBRANCH   1  13
TORSDOF 4
ENDMDL
MODEL 4
REMARK VINA RESULT: -5.478438390      2.615      5.985
REMARK  4 active torsions:
REMARK  status: ('A' for Active; 'I' for Inactive)
REMARK       I    between atoms: C1_4  and  N3_6 
REMARK    1  A    between atoms: C4_9  and  N4_10 
REMARK    2  A    between atoms: N4_10  and  C5_12 
REMARK    3  A    between atoms: C5_12  and  N5_14 
REMARK    4  A    between atoms: N5_14  and  C6_16 
ROOT
HETATM    1  N4  UNL     1      40.126  -3.696  29.413  1.00  0.00    -0.361 N 
ATOM      2  H4  UNL     1      39.988  -4.384  28.673  1.00  0.00     0.162 HD
ENDROOT
BRANCH   1   3
HETATM    3  C4  UNL     1      41.437  -3.124  29.640  1.00  0.00     0.103 C 
HETATM    4  C3  UNL     1      42.487  -4.120  29.317  1.00  0.00     0.046 C 
HETATM    5  C2  UNL     1      43.468  -3.412  28.429  1.00  0.00     0.127 C 
HETATM    6  N3  UNL     1      43.025  -2.053  28.256  1.00  0.00    -0.354 N 
HETATM    7  C1  UNL     1      43.781  -0.999  27.702  1.00  0.00     0.184 C 
HETATM    8  C11 UNL     1      41.672  -1.941  28.746  1.00  0.00     0.150 C 
HETATM    9  N1  UNL     1      44.563  -0.323  28.452  1.00  0.00    -0.374 N 
HETATM   10  N2  UNL     1      43.658  -0.714  26.319  1.00  0.00    -0.064 NA
ATOM     11  H12 UNL     1      45.109   0.439  28.050  1.00  0.00     0.158 HD
ATOM     12  H11 UNL     1      44.651  -0.528  29.447  1.00  0.00     0.158 HD
ENDBRANCH   1   3
BRANCH   1  13
HETATM   13  C5  UNL     1      39.036  -3.297  30.225  1.00  0.00     0.168 C 
HETATM   14  S1  UNL     1      39.024  -3.587  31.829  1.00  0.00    -0.041 SA
BRANCH  13  15
HETATM   15  N5  UNL     1      37.917  -2.631  29.669  1.00  0.00    -0.363 N 
ATOM     16  H5  UNL     1      37.611  -1.758  30.099  1.00  0.00     0.162 HD
BRANCH  15  17
HETATM   17  C6  UNL     1      37.193  -3.118  28.539  1.00  0.00     0.083 C 
HETATM   18  C7  UNL     1      35.866  -2.382  28.372  1.00  0.00     0.025 C 
HETATM   19  C8  UNL     1      34.837  -3.377  27.961  1.00  0.00     0.002 C 
HETATM   20  C9  UNL     1      35.639  -4.611  27.614  1.00  0.00     0.002 C 
HETATM   21  C10 UNL     1      36.707  -4.558  28.717  1.00  0.00     0.025 C 
ENDBRANCH  15  17
ENDBRANCH  13  15
ENDBRANCH   1  13
TORSDOF 4
ENDMDL
MODEL 5
REMARK VINA RESULT: -5.466271109      1.143      1.623
REMARK  4 active torsions:
REMARK  status: ('A' for Active; 'I' for Inactive)
REMARK       I    between atoms: C1_4  and  N3_6 
REMARK    1  A    between atoms: C4_9  and  N4_10 
REMARK    2  A    between atoms: N4_10  and  C5_12 
REMARK    3  A    between atoms: C5_12  and  N5_14 
REMARK    4  A    between atoms: N5_14  and  C6_16 
ROOT
HETATM    1  N4  UNL     1      40.521  -3.460  29.338  1.00  0.00    -0.361 N 
ATOM      2  H4  UNL     1      39.741  -3.738  28.742  1.00  0.00     0.162 HD
ENDROOT
BRANCH   1   3
HETATM    3  C4  UNL     1      40.313  -2.512  30.412  1.00  0.00     0.103 C 
HETATM    4  C3  UNL     1      40.483  -1.127  29.906  1.00  0.00     0.046 C 
HETATM    5  C2  UNL     1      39.284  -0.363  30.387  1.00  0.00     0.127 C 
HETATM    6  N3  UNL     1      38.458  -1.253  31.159  1.00  0.00    -0.354 N 
HETATM    7  C1  UNL     1      37.377  -0.875  31.983  1.00  0.00     0.184 C 
HETATM    8  C11 UNL     1      38.917  -2.607  30.955  1.00  0.00     0.150 C 
HETATM    9  N1  UNL     1      37.599  -0.529  33.193  1.00  0.00    -0.374 N 
HETATM   10  N2  UNL     1      36.065  -0.885  31.449  1.00  0.00    -0.064 NA
ATOM     11  H12 UNL     1      36.817  -0.255  33.788  1.00  0.00     0.158 HD
ATOM     12  H11 UNL     1      38.543  -0.521  33.577  1.00  0.00     0.158 HD
ENDBRANCH   1   3
BRANCH   1  13
HETATM   13  C5  UNL     1      41.812  -4.000  29.118  1.00  0.00     0.168 C 
HETATM   14  S1  UNL     1      42.714  -4.565  30.352  1.00  0.00    -0.041 SA
BRANCH  13  15
HETATM   15  N5  UNL     1      42.364  -4.065  27.816  1.00  0.00    -0.363 N 
ATOM     16  H5  UNL     1      41.943  -4.707  27.144  1.00  0.00     0.162 HD
BRANCH  15  17
HETATM   17  C6  UNL     1      43.479  -3.280  27.394  1.00  0.00     0.083 C 
HETATM   18  C7  UNL     1      43.325  -1.823  27.824  1.00  0.00     0.025 C 
HETATM   19  C8  UNL     1      43.816  -0.961  26.713  1.00  0.00     0.002 C 
HETATM   20  C9  UNL     1      44.514  -1.927  25.782  1.00  0.00     0.002 C 
HETATM   21  C10 UNL     1      43.559  -3.127  25.873  1.00  0.00     0.025 C 
ENDBRANCH  15  17
ENDBRANCH  13  15
ENDBRANCH   1  13
TORSDOF 4
ENDMDL
