MODEL 1
REMARK VINA RESULT: -6.708013937      0.000      0.000
REMARK  2 active torsions:
REMARK  status: ('A' for Active; 'I' for Inactive)
REMARK    1  A    between atoms: C7_14  and  N4_15 
REMARK       I    between atoms: N4_15  and  C8_17 
REMARK    2  A    between atoms: C8_17  and  C9_19 
ROOT
HETATM    1  N1  UNL     1      38.599   0.939  31.870  1.00  0.00    -0.235 N 
ATOM      2  H11 UNL     1      38.735   1.329  32.803  1.00  0.00     0.174 HD
ATOM      3  H12 UNL     1      37.920   1.199  31.155  1.00  0.00     0.174 HD
HETATM    4  C1  UNL     1      39.418  -0.023  31.572  1.00  0.00     0.668 C 
HETATM    5  N2  UNL     1      39.227  -0.570  30.263  1.00  0.00    -0.220 N 
ATOM      6  H2  UNL     1      38.476  -0.204  29.677  1.00  0.00     0.178 HD
HETATM    7  C2  UNL     1      40.088  -1.649  29.737  1.00  0.00     0.123 C 
HETATM    8  C3  UNL     1      40.026  -2.719  30.811  1.00  0.00     0.035 C 
HETATM    9  C4  UNL     1      41.167  -2.576  31.718  1.00  0.00     0.019 A 
HETATM   10  C5  UNL     1      41.421  -1.354  32.430  1.00  0.00     0.110 A 
HETATM   11  N3  UNL     1      40.378  -0.391  32.582  1.00  0.00    -0.221 N 
ATOM     12  H3  UNL     1      40.305   0.078  33.485  1.00  0.00     0.178 HD
HETATM   13  C6  UNL     1      42.067  -1.524  31.171  1.00  0.00     0.040 A 
HETATM   14  C7  UNL     1      41.491  -1.132  29.903  1.00  0.00     0.114 C 
ENDROOT
BRANCH  14  15
HETATM   15  N4  UNL     1      42.278  -1.744  28.812  1.00  0.00    -0.354 N 
HETATM   16  C8  UNL     1      43.443  -1.130  28.316  1.00  0.00     0.222 C 
HETATM   17  O1  UNL     1      43.862  -0.046  28.773  1.00  0.00    -0.273 OA
ATOM     18  H4  UNL     1      41.970  -2.630  28.410  1.00  0.00     0.163 HD
BRANCH  16  19
HETATM   19  C9  UNL     1      44.191  -1.782  27.227  1.00  0.00     0.078 C 
HETATM   20  C10 UNL     1      43.821  -3.250  27.094  1.00  0.00     0.014 C 
HETATM   21  C11 UNL     1      43.494  -3.481  25.637  1.00  0.00     0.001 C 
HETATM   22  C12 UNL     1      44.246  -2.341  24.957  1.00  0.00     0.001 C 
HETATM   23  C13 UNL     1      43.889  -1.182  25.872  1.00  0.00     0.014 C 
ENDBRANCH  16  19
ENDBRANCH  14  15
TORSDOF 2
ENDMDL
MODEL 2
REMARK VINA RESULT: -6.057906983      3.401      6.339
REMARK  2 active torsions:
REMARK  status: ('A' for Active; 'I' for Inactive)
REMARK    1  A    between atoms: C7_14  and  N4_15 
REMARK       I    between atoms: N4_15  and  C8_17 
REMARK    2  A    between atoms: C8_17  and  C9_19 
ROOT
HETATM    1  N1  UNL     1      43.554  -3.715  25.901  1.00  0.00    -0.235 N 
ATOM      2  H11 UNL     1      44.097  -3.023  25.383  1.00  0.00     0.174 HD
ATOM      3  H12 UNL     1      43.316  -4.672  25.642  1.00  0.00     0.174 HD
HETATM    4  C1  UNL     1      43.117  -3.297  27.049  1.00  0.00     0.668 C 
HETATM    5  N2  UNL     1      42.357  -4.268  27.776  1.00  0.00    -0.220 N 
ATOM      6  H2  UNL     1      42.190  -5.182  27.356  1.00  0.00     0.178 HD
HETATM    7  C2  UNL     1      41.808  -3.982  29.117  1.00  0.00     0.123 C 
HETATM    8  C3  UNL     1      41.038  -2.689  28.926  1.00  0.00     0.035 C 
HETATM    9  C4  UNL     1      41.884  -1.551  29.291  1.00  0.00     0.019 A 
HETATM   10  C5  UNL     1      43.155  -1.318  28.662  1.00  0.00     0.110 A 
HETATM   11  N3  UNL     1      43.455  -1.944  27.414  1.00  0.00    -0.221 N 
ATOM     12  H3  UNL     1      43.952  -1.385  26.721  1.00  0.00     0.178 HD
HETATM   13  C6  UNL     1      43.151  -2.078  29.868  1.00  0.00     0.040 A 
HETATM   14  C7  UNL     1      42.991  -3.515  29.921  1.00  0.00     0.114 C 
ENDROOT
BRANCH  14  15
HETATM   15  N4  UNL     1      42.711  -3.913  31.317  1.00  0.00    -0.354 N 
HETATM   16  C8  UNL     1      43.217  -5.113  31.852  1.00  0.00     0.222 C 
HETATM   17  O1  UNL     1      43.922  -5.890  31.175  1.00  0.00    -0.273 OA
ATOM     18  H4  UNL     1      42.139  -3.306  31.905  1.00  0.00     0.163 HD
BRANCH  16  19
HETATM   19  C9  UNL     1      42.910  -5.463  33.249  1.00  0.00     0.078 C 
HETATM   20  C10 UNL     1      44.128  -6.020  33.968  1.00  0.00     0.014 C 
HETATM   21  C11 UNL     1      44.258  -5.245  35.258  1.00  0.00     0.001 C 
HETATM   22  C12 UNL     1      42.833  -4.741  35.472  1.00  0.00     0.001 C 
HETATM   23  C13 UNL     1      42.490  -4.265  34.071  1.00  0.00     0.014 C 
ENDBRANCH  16  19
ENDBRANCH  14  15
TORSDOF 2
ENDMDL
MODEL 3
REMARK VINA RESULT: -5.990882156      1.300      1.435
REMARK  2 active torsions:
REMARK  status: ('A' for Active; 'I' for Inactive)
REMARK    1  A    between atoms: C7_14  and  N4_15 
REMARK       I    between atoms: N4_15  and  C8_17 
REMARK    2  A    between atoms: C8_17  and  C9_19 
ROOT
HETATM    1  N1  UNL     1      37.232  -0.565  31.673  1.00  0.00    -0.235 N 
ATOM      2  H11 UNL     1      37.127  -0.416  32.677  1.00  0.00     0.174 HD
ATOM      3  H12 UNL     1      36.721  -0.136  30.901  1.00  0.00     0.174 HD
HETATM    4  C1  UNL     1      38.151  -1.424  31.356  1.00  0.00     0.668 C 
HETATM    5  N2  UNL     1      38.299  -1.632  29.947  1.00  0.00    -0.220 N 
ATOM      6  H2  UNL     1      37.682  -1.133  29.305  1.00  0.00     0.178 HD
HETATM    7  C2  UNL     1      39.319  -2.548  29.397  1.00  0.00     0.123 C 
HETATM    8  C3  UNL     1      39.075  -3.850  30.138  1.00  0.00     0.035 C 
HETATM    9  C4  UNL     1      39.966  -3.934  31.296  1.00  0.00     0.019 A 
HETATM   10  C5  UNL     1      39.978  -2.925  32.319  1.00  0.00     0.110 A 
HETATM   11  N3  UNL     1      38.874  -2.029  32.446  1.00  0.00    -0.221 N 
ATOM     12  H3  UNL     1      38.569  -1.797  33.392  1.00  0.00     0.178 HD
HETATM   13  C6  UNL     1      40.905  -2.780  31.247  1.00  0.00     0.040 A 
HETATM   14  C7  UNL     1      40.613  -2.088  30.010  1.00  0.00     0.114 C 
ENDROOT
BRANCH  14  15
HETATM   15  N4  UNL     1      41.664  -2.412  29.022  1.00  0.00    -0.354 N 
HETATM   16  C8  UNL     1      42.794  -1.590  28.858  1.00  0.00     0.222 C 
HETATM   17  O1  UNL     1      42.960  -0.555  29.536  1.00  0.00    -0.273 OA
ATOM     18  H4  UNL     1      41.567  -3.250  28.446  1.00  0.00     0.163 HD
BRANCH  16  19
HETATM   19  C9  UNL     1      43.812  -1.959  27.860  1.00  0.00     0.078 C 
HETATM   20  C10 UNL     1      43.588  -3.363  27.323  1.00  0.00     0.014 C 
HETATM   21  C11 UNL     1      43.614  -3.257  25.815  1.00  0.00     0.001 C 
HETATM   22  C12 UNL     1      44.416  -1.976  25.601  1.00  0.00     0.001 C 
HETATM   23  C13 UNL     1      43.780  -1.068  26.638  1.00  0.00     0.014 C 
ENDBRANCH  16  19
ENDBRANCH  14  15
TORSDOF 2
ENDMDL
MODEL 4
REMARK VINA RESULT: -5.947641021      2.183      6.274
REMARK  2 active torsions:
REMARK  status: ('A' for Active; 'I' for Inactive)
REMARK    1  A    between atoms: C7_14  and  N4_15 
REMARK       I    between atoms: N4_15  and  C8_17 
REMARK    2  A    between atoms: C8_17  and  C9_19 
ROOT
HETATM    1  N1  UNL     1      43.847  -0.870  26.707  1.00  0.00    -0.235 N 
ATOM      2  H11 UNL     1      44.012  -1.435  25.873  1.00  0.00     0.174 HD
ATOM      3  H12 UNL     1      44.082   0.107  26.881  1.00  0.00     0.174 HD
HETATM    4  C1  UNL     1      43.254  -1.506  27.670  1.00  0.00     0.668 C 
HETATM    5  N2  UNL     1      43.024  -0.714  28.840  1.00  0.00    -0.220 N 
ATOM      6  H2  UNL     1      43.347   0.253  28.856  1.00  0.00     0.178 HD
HETATM    7  C2  UNL     1      42.330  -1.259  30.025  1.00  0.00     0.123 C 
HETATM    8  C3  UNL     1      43.098  -2.528  30.345  1.00  0.00     0.035 C 
HETATM    9  C4  UNL     1      42.435  -3.677  29.723  1.00  0.00     0.019 A 
HETATM   10  C5  UNL     1      42.193  -3.739  28.308  1.00  0.00     0.110 A 
HETATM   11  N3  UNL     1      42.922  -2.887  27.425  1.00  0.00    -0.221 N 
ATOM     12  H3  UNL     1      43.236  -3.291  26.542  1.00  0.00     0.178 HD
HETATM   13  C6  UNL     1      41.154  -3.209  29.127  1.00  0.00     0.040 A 
HETATM   14  C7  UNL     1      41.038  -1.813  29.489  1.00  0.00     0.114 C 
ENDROOT
BRANCH  14  15
HETATM   15  N4  UNL     1      40.058  -1.684  30.588  1.00  0.00    -0.354 N 
HETATM   16  C8  UNL     1      39.452  -0.450  30.888  1.00  0.00     0.222 C 
HETATM   17  O1  UNL     1      39.712   0.587  30.242  1.00  0.00    -0.273 OA
ATOM     18  H4  UNL     1      39.816  -2.507  31.141  1.00  0.00     0.163 HD
BRANCH  16  19
HETATM   19  C9  UNL     1      38.481  -0.375  31.993  1.00  0.00     0.078 C 
HETATM   20  C10 UNL     1      38.598   0.936  32.753  1.00  0.00     0.014 C 
HETATM   21  C11 UNL     1      37.202   1.509  32.839  1.00  0.00     0.001 C 
HETATM   22  C12 UNL     1      36.336   0.265  32.668  1.00  0.00     0.001 C 
HETATM   23  C13 UNL     1      37.048  -0.418  31.513  1.00  0.00     0.014 C 
ENDBRANCH  16  19
ENDBRANCH  14  15
TORSDOF 2
ENDMDL
MODEL 5
REMARK VINA RESULT: -5.939594645      1.731      2.531
REMARK  2 active torsions:
REMARK  status: ('A' for Active; 'I' for Inactive)
REMARK    1  A    between atoms: C7_14  and  N4_15 
REMARK       I    between atoms: N4_15  and  C8_17 
REMARK    2  A    between atoms: C8_17  and  C9_19 
ROOT
HETATM    1  N1  UNL     1      42.624  -0.102  35.013  1.00  0.00    -0.235 N 
ATOM      2  H11 UNL     1      42.990  -0.530  35.865  1.00  0.00     0.174 HD
ATOM      3  H12 UNL     1      42.530   0.886  34.777  1.00  0.00     0.174 HD
HETATM    4  C1  UNL     1      42.228  -0.954  34.118  1.00  0.00     0.668 C 
HETATM    5  N2  UNL     1      41.715  -0.355  32.924  1.00  0.00    -0.220 N 
ATOM      6  H2  UNL     1      41.670   0.662  32.860  1.00  0.00     0.178 HD
HETATM    7  C2  UNL     1      41.250  -1.168  31.782  1.00  0.00     0.123 C 
HETATM    8  C3  UNL     1      40.255  -2.131  32.403  1.00  0.00     0.035 C 
HETATM    9  C4  UNL     1      40.923  -3.394  32.724  1.00  0.00     0.019 A 
HETATM   10  C5  UNL     1      42.073  -3.446  33.584  1.00  0.00     0.110 A 
HETATM   11  N3  UNL     1      42.361  -2.350  34.452  1.00  0.00    -0.221 N 
ATOM     12  H3  UNL     1      42.690  -2.575  35.392  1.00  0.00     0.178 HD
HETATM   13  C6  UNL     1      42.309  -3.338  32.183  1.00  0.00     0.040 A 
HETATM   14  C7  UNL     1      42.404  -2.082  31.471  1.00  0.00     0.114 C 
ENDROOT
BRANCH  14  15
HETATM   15  N4  UNL     1      42.325  -2.349  30.019  1.00  0.00    -0.354 N 
HETATM   16  C8  UNL     1      43.075  -1.599  29.094  1.00  0.00     0.222 C 
HETATM   17  O1  UNL     1      43.837  -0.679  29.457  1.00  0.00    -0.273 OA
ATOM     18  H4  UNL     1      41.714  -3.093  29.680  1.00  0.00     0.163 HD
BRANCH  16  19
HETATM   19  C9  UNL     1      42.961  -1.906  27.659  1.00  0.00     0.078 C 
HETATM   20  C10 UNL     1      43.750  -0.921  26.811  1.00  0.00     0.014 C 
HETATM   21  C11 UNL     1      44.608  -1.747  25.880  1.00  0.00     0.001 C 
HETATM   22  C12 UNL     1      43.847  -3.069  25.833  1.00  0.00     0.001 C 
HETATM   23  C13 UNL     1      43.528  -3.262  27.306  1.00  0.00     0.014 C 
ENDBRANCH  16  19
ENDBRANCH  14  15
TORSDOF 2
ENDMDL
