MODEL 1
REMARK VINA RESULT: -5.780037489      0.000      0.000
REMARK  5 active torsions:
REMARK  status: ('A' for Active; 'I' for Inactive)
REMARK    1  A    between atoms: O1_2  and  C2_3 
REMARK    2  A    between atoms: C2_3  and  N6_15 
REMARK    3  A    between atoms: N1_4  and  C3_6 
REMARK    4  A    between atoms: C3_6  and  N2_8 
REMARK    5  A    between atoms: N2_8  and  N3_10 
ROOT
HETATM    1  C2  UNL     1       7.989   5.068  24.215  1.00  0.00     0.223 C 
HETATM    2  N1  UNL     1       8.290   6.308  24.008  1.00  0.00    -0.298 N 
ATOM      3  H1  UNL     1       7.522   6.958  23.846  1.00  0.00     0.172 HD
ENDROOT
BRANCH   2   4
HETATM    4  C3  UNL     1       9.588   6.825  23.991  1.00  0.00     0.193 C 
HETATM    5  S1  UNL     1      10.129   7.657  25.286  1.00  0.00    -0.039 SA
BRANCH   4   6
HETATM    6  N2  UNL     1      10.460   6.660  22.893  1.00  0.00    -0.274 N 
ATOM      7  H2  UNL     1      10.053   6.653  21.958  1.00  0.00     0.189 HD
BRANCH   6   8
HETATM    8  N3  UNL     1      11.832   6.506  23.001  1.00  0.00    -0.274 N 
HETATM    9  C4  UNL     1      12.602   7.382  22.449  1.00  0.00     0.215 C 
HETATM   10  N4  UNL     1      14.012   7.237  22.554  1.00  0.00    -0.065 NA
HETATM   11  N5  UNL     1      12.073   8.510  21.728  1.00  0.00    -0.065 NA
ATOM     12  H3  UNL     1      12.226   5.714  23.508  1.00  0.00     0.189 HD
ENDBRANCH   6   8
ENDBRANCH   4   6
ENDBRANCH   2   4
BRANCH   1  13
HETATM   13  O1  UNL     1       6.638   4.748  24.193  1.00  0.00    -0.327 OA
HETATM   14  C1  UNL     1       5.634   5.771  24.284  1.00  0.00     0.213 C 
ENDBRANCH   1  13
BRANCH   1  15
HETATM   15  N6  UNL     1       8.965   4.059  24.455  1.00  0.00    -0.347 N 
HETATM   16  C5  UNL     1       9.361   3.671  25.814  1.00  0.00     0.126 C 
HETATM   17  C6  UNL     1       9.002   2.236  25.995  1.00  0.00     0.020 C 
HETATM   18  C7  UNL     1       9.391   1.334  24.891  1.00  0.00     0.003 C 
HETATM   19  C8  UNL     1       9.292   1.894  23.520  1.00  0.00     0.020 C 
HETATM   20  C9  UNL     1       9.642   3.338  23.397  1.00  0.00     0.126 C 
ENDBRANCH   1  15
TORSDOF 5
ENDMDL
MODEL 2
REMARK VINA RESULT: -5.681520835      2.650      5.488
REMARK  5 active torsions:
REMARK  status: ('A' for Active; 'I' for Inactive)
REMARK    1  A    between atoms: O1_2  and  C2_3 
REMARK    2  A    between atoms: C2_3  and  N6_15 
REMARK    3  A    between atoms: N1_4  and  C3_6 
REMARK    4  A    between atoms: C3_6  and  N2_8 
REMARK    5  A    between atoms: N2_8  and  N3_10 
ROOT
HETATM    1  C2  UNL     1       8.019   5.227  24.674  1.00  0.00     0.223 C 
HETATM    2  N1  UNL     1       7.635   4.189  25.341  1.00  0.00    -0.298 N 
ATOM      3  H1  UNL     1       6.704   3.822  25.147  1.00  0.00     0.172 HD
ENDROOT
BRANCH   2   4
HETATM    4  C3  UNL     1       8.399   3.531  26.309  1.00  0.00     0.193 C 
HETATM    5  S1  UNL     1       8.403   4.098  27.839  1.00  0.00    -0.039 SA
BRANCH   4   6
HETATM    6  N2  UNL     1       9.176   2.388  26.020  1.00  0.00    -0.274 N 
ATOM      7  H2  UNL     1      10.183   2.511  25.912  1.00  0.00     0.189 HD
BRANCH   6   8
HETATM    8  N3  UNL     1       8.663   1.111  25.875  1.00  0.00    -0.274 N 
HETATM    9  C4  UNL     1       9.122   0.359  24.931  1.00  0.00     0.215 C 
HETATM   10  N4  UNL     1       8.605  -0.955  24.771  1.00  0.00    -0.065 NA
HETATM   11  N5  UNL     1      10.149   0.813  24.031  1.00  0.00    -0.065 NA
ATOM     12  H3  UNL     1       7.935   0.770  26.502  1.00  0.00     0.189 HD
ENDBRANCH   6   8
ENDBRANCH   4   6
ENDBRANCH   2   4
BRANCH   1  13
HETATM   13  O1  UNL     1       7.115   5.740  23.753  1.00  0.00    -0.327 OA
HETATM   14  C1  UNL     1       5.753   6.006  24.125  1.00  0.00     0.213 C 
ENDBRANCH   1  13
BRANCH   1  15
HETATM   15  N6  UNL     1       9.294   5.838  24.849  1.00  0.00    -0.347 N 
HETATM   16  C5  UNL     1      10.436   5.510  23.986  1.00  0.00     0.126 C 
HETATM   17  C6  UNL     1      10.832   6.756  23.271  1.00  0.00     0.020 C 
HETATM   18  C7  UNL     1      10.941   7.969  24.109  1.00  0.00     0.003 C 
HETATM   19  C8  UNL     1       9.951   8.098  25.208  1.00  0.00     0.020 C 
HETATM   20  C9  UNL     1       9.573   6.819  25.876  1.00  0.00     0.126 C 
ENDBRANCH   1  15
TORSDOF 5
ENDMDL
MODEL 3
REMARK VINA RESULT: -5.626816341      2.690      5.419
REMARK  5 active torsions:
REMARK  status: ('A' for Active; 'I' for Inactive)
REMARK    1  A    between atoms: O1_2  and  C2_3 
REMARK    2  A    between atoms: C2_3  and  N6_15 
REMARK    3  A    between atoms: N1_4  and  C3_6 
REMARK    4  A    between atoms: C3_6  and  N2_8 
REMARK    5  A    between atoms: N2_8  and  N3_10 
ROOT
HETATM    1  C2  UNL     1       9.680   5.460  24.107  1.00  0.00     0.223 C 
HETATM    2  N1  UNL     1       9.966   4.465  24.880  1.00  0.00    -0.298 N 
ATOM      3  H1  UNL     1      10.873   4.017  24.755  1.00  0.00     0.172 HD
ENDROOT
BRANCH   2   4
HETATM    4  C3  UNL     1       9.126   3.955  25.874  1.00  0.00     0.193 C 
HETATM    5  S1  UNL     1       9.275   4.511  27.401  1.00  0.00    -0.039 SA
BRANCH   4   6
HETATM    6  N2  UNL     1       8.147   2.971  25.615  1.00  0.00    -0.274 N 
ATOM      7  H2  UNL     1       7.208   3.286  25.371  1.00  0.00     0.189 HD
BRANCH   6   8
HETATM    8  N3  UNL     1       8.376   1.607  25.672  1.00  0.00    -0.274 N 
HETATM    9  C4  UNL     1       8.889   1.019  24.644  1.00  0.00     0.215 C 
HETATM   10  N4  UNL     1       9.131  -0.381  24.689  1.00  0.00    -0.065 NA
HETATM   11  N5  UNL     1       9.227   1.742  23.447  1.00  0.00    -0.065 NA
ATOM     12  H3  UNL     1       8.143   1.077  26.511  1.00  0.00     0.189 HD
ENDBRANCH   6   8
ENDBRANCH   4   6
ENDBRANCH   2   4
BRANCH   1  13
HETATM   13  O1  UNL     1      10.647   5.819  23.177  1.00  0.00    -0.327 OA
HETATM   14  C1  UNL     1      11.593   6.863  23.461  1.00  0.00     0.213 C 
ENDBRANCH   1  13
BRANCH   1  15
HETATM   15  N6  UNL     1       8.449   6.173  24.178  1.00  0.00    -0.347 N 
HETATM   16  C5  UNL     1       7.281   5.784  23.377  1.00  0.00     0.126 C 
HETATM   17  C6  UNL     1       6.192   5.409  24.321  1.00  0.00     0.020 C 
HETATM   18  C7  UNL     1       5.965   6.345  25.443  1.00  0.00     0.003 C 
HETATM   19  C8  UNL     1       7.174   6.987  26.016  1.00  0.00     0.020 C 
HETATM   20  C9  UNL     1       8.242   7.324  25.032  1.00  0.00     0.126 C 
ENDBRANCH   1  15
TORSDOF 5
ENDMDL
MODEL 4
REMARK VINA RESULT: -5.583458242      2.511      5.570
REMARK  5 active torsions:
REMARK  status: ('A' for Active; 'I' for Inactive)
REMARK    1  A    between atoms: O1_2  and  C2_3 
REMARK    2  A    between atoms: C2_3  and  N6_15 
REMARK    3  A    between atoms: N1_4  and  C3_6 
REMARK    4  A    between atoms: C3_6  and  N2_8 
REMARK    5  A    between atoms: N2_8  and  N3_10 
ROOT
HETATM    1  C2  UNL     1       9.042   6.451  22.616  1.00  0.00     0.223 C 
HETATM    2  N1  UNL     1       8.502   5.277  22.666  1.00  0.00    -0.298 N 
ATOM      3  H1  UNL     1       7.765   5.069  21.993  1.00  0.00     0.172 HD
ENDROOT
BRANCH   2   4
HETATM    4  C3  UNL     1       8.851   4.272  23.572  1.00  0.00     0.193 C 
HETATM    5  S1  UNL     1       8.101   4.213  25.021  1.00  0.00    -0.039 SA
BRANCH   4   6
HETATM    6  N2  UNL     1       9.832   3.297  23.290  1.00  0.00    -0.274 N 
ATOM      7  H2  UNL     1      10.799   3.510  23.535  1.00  0.00     0.189 HD
BRANCH   6   8
HETATM    8  N3  UNL     1       9.570   2.072  22.702  1.00  0.00    -0.274 N 
HETATM    9  C4  UNL     1       9.454   1.031  23.456  1.00  0.00     0.215 C 
HETATM   10  N4  UNL     1       9.183  -0.233  22.866  1.00  0.00    -0.065 NA
HETATM   11  N5  UNL     1       9.590   1.113  24.887  1.00  0.00    -0.065 NA
ATOM     12  H3  UNL     1       9.470   1.993  21.690  1.00  0.00     0.189 HD
ENDBRANCH   6   8
ENDBRANCH   4   6
ENDBRANCH   2   4
BRANCH   1  13
HETATM   13  O1  UNL     1       8.557   7.314  21.642  1.00  0.00    -0.327 OA
HETATM   14  C1  UNL     1       8.507   8.731  21.870  1.00  0.00     0.213 C 
ENDBRANCH   1  13
BRANCH   1  15
HETATM   15  N6  UNL     1      10.080   6.868  23.498  1.00  0.00    -0.347 N 
HETATM   16  C5  UNL     1      11.496   6.795  23.119  1.00  0.00     0.126 C 
HETATM   17  C6  UNL     1      12.035   8.183  23.120  1.00  0.00     0.020 C 
HETATM   18  C7  UNL     1      11.690   9.004  24.300  1.00  0.00     0.003 C 
HETATM   19  C8  UNL     1      10.335   8.798  24.869  1.00  0.00     0.020 C 
HETATM   20  C9  UNL     1       9.834   7.394  24.825  1.00  0.00     0.126 C 
ENDBRANCH   1  15
TORSDOF 5
ENDMDL
MODEL 5
REMARK VINA RESULT: -5.559004523      1.137      1.486
REMARK  5 active torsions:
REMARK  status: ('A' for Active; 'I' for Inactive)
REMARK    1  A    between atoms: O1_2  and  C2_3 
REMARK    2  A    between atoms: C2_3  and  N6_15 
REMARK    3  A    between atoms: N1_4  and  C3_6 
REMARK    4  A    between atoms: C3_6  and  N2_8 
REMARK    5  A    between atoms: N2_8  and  N3_10 
ROOT
HETATM    1  C2  UNL     1       7.877   4.979  24.786  1.00  0.00     0.223 C 
HETATM    2  N1  UNL     1       8.098   6.182  25.206  1.00  0.00    -0.298 N 
ATOM      3  H1  UNL     1       7.340   6.858  25.118  1.00  0.00     0.172 HD
ENDROOT
BRANCH   2   4
HETATM    4  C3  UNL     1       9.297   6.626  25.770  1.00  0.00     0.193 C 
HETATM    5  S1  UNL     1       9.372   6.880  27.380  1.00  0.00    -0.039 SA
BRANCH   4   6
HETATM    6  N2  UNL     1      10.458   6.868  25.002  1.00  0.00    -0.274 N 
ATOM      7  H2  UNL     1      11.314   6.383  25.269  1.00  0.00     0.189 HD
BRANCH   6   8
HETATM    8  N3  UNL     1      10.510   7.719  23.912  1.00  0.00    -0.274 N 
HETATM    9  C4  UNL     1      11.422   7.531  23.018  1.00  0.00     0.215 C 
HETATM   10  N4  UNL     1      11.486   8.396  21.893  1.00  0.00    -0.065 NA
HETATM   11  N5  UNL     1      12.381   6.463  23.126  1.00  0.00    -0.065 NA
ATOM     12  H3  UNL     1       9.840   8.481  23.817  1.00  0.00     0.189 HD
ENDBRANCH   6   8
ENDBRANCH   4   6
ENDBRANCH   2   4
BRANCH   1  13
HETATM   13  O1  UNL     1       6.618   4.731  24.255  1.00  0.00    -0.327 OA
HETATM   14  C1  UNL     1       5.590   5.734  24.292  1.00  0.00     0.213 C 
ENDBRANCH   1  13
BRANCH   1  15
HETATM   15  N6  UNL     1       8.849   3.940  24.851  1.00  0.00    -0.347 N 
HETATM   16  C5  UNL     1       8.971   3.064  26.023  1.00  0.00     0.126 C 
HETATM   17  C6  UNL     1       8.687   1.672  25.575  1.00  0.00     0.020 C 
HETATM   18  C7  UNL     1       9.368   1.246  24.335  1.00  0.00     0.003 C 
HETATM   19  C8  UNL     1       9.526   2.282  23.283  1.00  0.00     0.020 C 
HETATM   20  C9  UNL     1       9.788   3.661  23.785  1.00  0.00     0.126 C 
ENDBRANCH   1  15
TORSDOF 5
ENDMDL
