MODEL 1
REMARK VINA RESULT: -6.043840690      0.000      0.000
REMARK  5 active torsions:
REMARK  status: ('A' for Active; 'I' for Inactive)
REMARK    1  A    between atoms: C2_2  and  C4_4 
REMARK       I    between atoms: C4_4  and  N1_6 
REMARK    2  A    between atoms: N1_6  and  C5_8 
REMARK    3  A    between atoms: C7_10  and  O2_11 
REMARK    4  A    between atoms: C11_16  and  C12_17 
REMARK    5  A    between atoms: N2_18  and  N3_20 
ROOT
HETATM    1  C5  UNL     1       9.566   5.349  23.580  1.00  0.00     0.095 C 
HETATM    2  C6  UNL     1       8.823   5.877  22.375  1.00  0.00     0.064 C 
HETATM    3  C7  UNL     1       8.870   7.209  23.017  1.00  0.00     0.066 C 
HETATM    4  C8  UNL     1       7.591   7.978  23.071  1.00  0.00     0.038 C 
HETATM    5  C9  UNL     1       6.542   7.146  23.712  1.00  0.00     0.004 C 
HETATM    6  C10 UNL     1       6.902   6.859  25.114  1.00  0.00     0.010 C 
HETATM    7  C11 UNL     1       8.363   6.673  25.429  1.00  0.00     0.034 C 
HETATM    8  C13 UNL     1       9.303   6.602  24.298  1.00  0.00     0.052 C 
ENDROOT
BRANCH   1   9
HETATM    9  N1  UNL     1       9.036   4.112  24.037  1.00  0.00    -0.356 N 
HETATM   10  C4  UNL     1       9.640   2.889  23.681  1.00  0.00     0.221 C 
HETATM   11  O1  UNL     1      10.667   2.835  22.949  1.00  0.00    -0.273 OA
ATOM     12  H1  UNL     1       8.207   4.109  24.631  1.00  0.00     0.162 HD
BRANCH  10  13
HETATM   13  C2  UNL     1       9.056   1.625  24.179  1.00  0.00     0.070 C 
HETATM   14  C1  UNL     1       8.936   1.607  25.686  1.00  0.00     0.019 C 
HETATM   15  C3  UNL     1       9.883   0.417  23.785  1.00  0.00     0.019 C 
ENDBRANCH  10  13
ENDBRANCH   1   9
BRANCH   3  16
HETATM   16  O2  UNL     1       9.843   8.006  22.363  1.00  0.00    -0.389 OA
ATOM     17  H2  UNL     1       9.450   8.834  22.114  1.00  0.00     0.210 HD
ENDBRANCH   3  16
BRANCH   7  18
HETATM   18  C12 UNL     1       8.520   5.621  26.448  1.00  0.00     0.084 C 
HETATM   19  N2  UNL     1       7.508   5.019  26.923  1.00  0.00    -0.322 N 
ATOM     20  H2  UNL     1       6.583   5.281  26.583  1.00  0.00     0.185 HD
BRANCH  19  21
HETATM   21  N3  UNL     1       7.602   4.009  27.895  1.00  0.00    -0.346 N 
ATOM     22  H32 UNL     1       8.523   3.605  28.064  1.00  0.00     0.176 HD
ATOM     23  H31 UNL     1       6.801   3.670  28.427  1.00  0.00     0.176 HD
ENDBRANCH  19  21
ENDBRANCH   7  18
TORSDOF 5
ENDMDL
MODEL 2
REMARK VINA RESULT: -5.804119614      2.883      4.433
REMARK  5 active torsions:
REMARK  status: ('A' for Active; 'I' for Inactive)
REMARK    1  A    between atoms: C2_2  and  C4_4 
REMARK       I    between atoms: C4_4  and  N1_6 
REMARK    2  A    between atoms: N1_6  and  C5_8 
REMARK    3  A    between atoms: C7_10  and  O2_11 
REMARK    4  A    between atoms: C11_16  and  C12_17 
REMARK    5  A    between atoms: N2_18  and  N3_20 
ROOT
HETATM    1  C5  UNL     1       7.396   5.372  25.763  1.00  0.00     0.095 C 
HETATM    2  C6  UNL     1       7.827   6.642  25.066  1.00  0.00     0.064 C 
HETATM    3  C7  UNL     1       7.692   5.903  23.791  1.00  0.00     0.066 C 
HETATM    4  C8  UNL     1       8.829   6.006  22.829  1.00  0.00     0.038 C 
HETATM    5  C9  UNL     1      10.089   5.612  23.509  1.00  0.00     0.004 C 
HETATM    6  C10 UNL     1      10.028   4.195  23.915  1.00  0.00     0.010 C 
HETATM    7  C11 UNL     1       8.691   3.656  24.349  1.00  0.00     0.034 C 
HETATM    8  C13 UNL     1       7.588   4.617  24.519  1.00  0.00     0.052 C 
ENDROOT
BRANCH   1   9
HETATM    9  N1  UNL     1       8.179   5.102  26.919  1.00  0.00    -0.356 N 
HETATM   10  C4  UNL     1       7.576   4.943  28.182  1.00  0.00     0.221 C 
HETATM   11  O1  UNL     1       6.327   5.032  28.346  1.00  0.00    -0.273 OA
ATOM     12  H1  UNL     1       9.192   5.022  26.832  1.00  0.00     0.162 HD
BRANCH  10  13
HETATM   13  C2  UNL     1       8.429   4.663  29.358  1.00  0.00     0.070 C 
HETATM   14  C1  UNL     1       7.910   5.334  30.609  1.00  0.00     0.019 C 
HETATM   15  C3  UNL     1       9.854   5.138  29.158  1.00  0.00     0.019 C 
ENDBRANCH  10  13
ENDBRANCH   1   9
BRANCH   3  16
HETATM   16  O2  UNL     1       6.510   6.327  23.133  1.00  0.00    -0.389 OA
ATOM     17  H2  UNL     1       6.197   5.625  22.575  1.00  0.00     0.210 HD
ENDBRANCH   3  16
BRANCH   7  18
HETATM   18  C12 UNL     1       8.877   2.706  25.460  1.00  0.00     0.084 C 
HETATM   19  N2  UNL     1       8.726   1.458  25.282  1.00  0.00    -0.322 N 
ATOM     20  H2  UNL     1       8.472   1.128  24.350  1.00  0.00     0.185 HD
BRANCH  19  21
HETATM   21  N3  UNL     1       8.891   0.511  26.306  1.00  0.00    -0.346 N 
ATOM     22  H32 UNL     1       9.074   0.862  27.245  1.00  0.00     0.176 HD
ATOM     23  H31 UNL     1       8.836  -0.496  26.148  1.00  0.00     0.176 HD
ENDBRANCH  19  21
ENDBRANCH   7  18
TORSDOF 5
ENDMDL
MODEL 3
REMARK VINA RESULT: -5.747116088      1.107      1.294
REMARK  5 active torsions:
REMARK  status: ('A' for Active; 'I' for Inactive)
REMARK    1  A    between atoms: C2_2  and  C4_4 
REMARK       I    between atoms: C4_4  and  N1_6 
REMARK    2  A    between atoms: N1_6  and  C5_8 
REMARK    3  A    between atoms: C7_10  and  O2_11 
REMARK    4  A    between atoms: C11_16  and  C12_17 
REMARK    5  A    between atoms: N2_18  and  N3_20 
ROOT
HETATM    1  C5  UNL     1       8.324   5.705  23.721  1.00  0.00     0.095 C 
HETATM    2  C6  UNL     1       7.269   5.948  22.667  1.00  0.00     0.064 C 
HETATM    3  C7  UNL     1       7.053   7.273  23.291  1.00  0.00     0.066 C 
HETATM    4  C8  UNL     1       5.640   7.664  23.571  1.00  0.00     0.038 C 
HETATM    5  C9  UNL     1       4.988   6.610  24.389  1.00  0.00     0.004 C 
HETATM    6  C10 UNL     1       5.648   6.503  25.704  1.00  0.00     0.010 C 
HETATM    7  C11 UNL     1       7.134   6.740  25.754  1.00  0.00     0.034 C 
HETATM    8  C13 UNL     1       7.849   6.872  24.474  1.00  0.00     0.052 C 
ENDROOT
BRANCH   1   9
HETATM    9  N1  UNL     1       8.245   4.394  24.266  1.00  0.00    -0.356 N 
HETATM   10  C4  UNL     1       9.093   3.366  23.806  1.00  0.00     0.221 C 
HETATM   11  O1  UNL     1       9.951   3.558  22.901  1.00  0.00    -0.273 OA
ATOM     12  H1  UNL     1       7.566   4.194  25.000  1.00  0.00     0.162 HD
BRANCH  10  13
HETATM   13  C2  UNL     1       8.977   2.016  24.401  1.00  0.00     0.070 C 
HETATM   14  C1  UNL     1       9.145   2.040  25.902  1.00  0.00     0.019 C 
HETATM   15  C3  UNL     1      10.016   1.058  23.853  1.00  0.00     0.019 C 
ENDBRANCH  10  13
ENDBRANCH   1   9
BRANCH   3  16
HETATM   16  O2  UNL     1       7.639   8.272  22.473  1.00  0.00    -0.389 OA
ATOM     17  H2  UNL     1       8.577   8.128  22.433  1.00  0.00     0.210 HD
ENDBRANCH   3  16
BRANCH   7  18
HETATM   18  C12 UNL     1       7.749   5.822  26.730  1.00  0.00     0.084 C 
HETATM   19  N2  UNL     1       7.059   4.927  27.306  1.00  0.00    -0.322 N 
ATOM     20  H2  UNL     1       6.067   4.857  27.079  1.00  0.00     0.185 HD
BRANCH  19  21
HETATM   21  N3  UNL     1       7.596   4.027  28.242  1.00  0.00    -0.346 N 
ATOM     22  H32 UNL     1       8.493   4.268  28.663  1.00  0.00     0.176 HD
ATOM     23  H31 UNL     1       7.131   3.160  28.513  1.00  0.00     0.176 HD
ENDBRANCH  19  21
ENDBRANCH   7  18
TORSDOF 5
ENDMDL
MODEL 4
REMARK VINA RESULT: -5.640739592      2.430      4.671
REMARK  5 active torsions:
REMARK  status: ('A' for Active; 'I' for Inactive)
REMARK    1  A    between atoms: C2_2  and  C4_4 
REMARK       I    between atoms: C4_4  and  N1_6 
REMARK    2  A    between atoms: N1_6  and  C5_8 
REMARK    3  A    between atoms: C7_10  and  O2_11 
REMARK    4  A    between atoms: C11_16  and  C12_17 
REMARK    5  A    between atoms: N2_18  and  N3_20 
ROOT
HETATM    1  C5  UNL     1       7.076   5.366  23.852  1.00  0.00     0.095 C 
HETATM    2  C6  UNL     1       8.021   5.850  22.777  1.00  0.00     0.064 C 
HETATM    3  C7  UNL     1       9.088   5.101  23.477  1.00  0.00     0.066 C 
HETATM    4  C8  UNL     1      10.368   5.827  23.729  1.00  0.00     0.038 C 
HETATM    5  C9  UNL     1      10.084   7.093  24.451  1.00  0.00     0.004 C 
HETATM    6  C10 UNL     1       9.513   6.806  25.780  1.00  0.00     0.010 C 
HETATM    7  C11 UNL     1       8.613   5.606  25.902  1.00  0.00     0.034 C 
HETATM    8  C13 UNL     1       8.216   4.919  24.661  1.00  0.00     0.052 C 
ENDROOT
BRANCH   1   9
HETATM    9  N1  UNL     1       6.208   6.397  24.307  1.00  0.00    -0.356 N 
HETATM   10  C4  UNL     1       4.845   6.139  24.554  1.00  0.00     0.221 C 
HETATM   11  O1  UNL     1       4.336   4.996  24.386  1.00  0.00    -0.273 OA
ATOM     12  H1  UNL     1       6.577   7.336  24.456  1.00  0.00     0.162 HD
BRANCH  10  13
HETATM   13  C2  UNL     1       3.977   7.241  25.026  1.00  0.00     0.070 C 
HETATM   14  C1  UNL     1       3.660   8.227  23.926  1.00  0.00     0.019 C 
HETATM   15  C3  UNL     1       4.612   8.026  26.156  1.00  0.00     0.019 C 
ENDBRANCH  10  13
ENDBRANCH   1   9
BRANCH   3  16
HETATM   16  O2  UNL     1       9.380   3.920  22.749  1.00  0.00    -0.389 OA
ATOM     17  H2  UNL     1       9.693   3.255  23.350  1.00  0.00     0.210 HD
ENDBRANCH   3  16
BRANCH   7  18
HETATM   18  C12 UNL     1       7.514   5.903  26.838  1.00  0.00     0.084 C 
HETATM   19  N2  UNL     1       6.871   4.968  27.406  1.00  0.00    -0.322 N 
ATOM     20  H2  UNL     1       7.133   4.004  27.199  1.00  0.00     0.185 HD
BRANCH  19  21
HETATM   21  N3  UNL     1       5.817   5.197  28.305  1.00  0.00    -0.346 N 
ATOM     22  H32 UNL     1       5.249   4.395  28.577  1.00  0.00     0.176 HD
ATOM     23  H31 UNL     1       5.602   6.117  28.690  1.00  0.00     0.176 HD
ENDBRANCH  19  21
ENDBRANCH   7  18
TORSDOF 5
ENDMDL
MODEL 5
REMARK VINA RESULT: -5.540773130      2.655      4.049
REMARK  5 active torsions:
REMARK  status: ('A' for Active; 'I' for Inactive)
REMARK    1  A    between atoms: C2_2  and  C4_4 
REMARK       I    between atoms: C4_4  and  N1_6 
REMARK    2  A    between atoms: N1_6  and  C5_8 
REMARK    3  A    between atoms: C7_10  and  O2_11 
REMARK    4  A    between atoms: C11_16  and  C12_17 
REMARK    5  A    between atoms: N2_18  and  N3_20 
ROOT
HETATM    1  C5  UNL     1       8.331   3.918  26.912  1.00  0.00     0.095 C 
HETATM    2  C6  UNL     1       9.151   4.470  28.055  1.00  0.00     0.064 C 
HETATM    3  C7  UNL     1       8.160   5.566  28.142  1.00  0.00     0.066 C 
HETATM    4  C8  UNL     1       8.698   6.957  28.214  1.00  0.00     0.038 C 
HETATM    5  C9  UNL     1       9.611   7.193  27.067  1.00  0.00     0.004 C 
HETATM    6  C10 UNL     1       8.867   7.110  25.796  1.00  0.00     0.010 C 
HETATM    7  C11 UNL     1       7.738   6.118  25.718  1.00  0.00     0.034 C 
HETATM    8  C13 UNL     1       7.578   5.175  26.837  1.00  0.00     0.052 C 
ENDROOT
BRANCH   1   9
HETATM    9  N1  UNL     1       9.146   3.480  25.831  1.00  0.00    -0.356 N 
HETATM   10  C4  UNL     1       8.986   2.193  25.279  1.00  0.00     0.221 C 
HETATM   11  O1  UNL     1       8.124   1.379  25.711  1.00  0.00    -0.273 OA
ATOM     12  H1  UNL     1       9.855   4.106  25.451  1.00  0.00     0.162 HD
BRANCH  10  13
HETATM   13  C2  UNL     1       9.854   1.779  24.155  1.00  0.00     0.070 C 
HETATM   14  C1  UNL     1       9.655   2.645  22.933  1.00  0.00     0.019 C 
HETATM   15  C3  UNL     1       9.597   0.346  23.731  1.00  0.00     0.019 C 
ENDBRANCH  10  13
ENDBRANCH   1   9
BRANCH   3  16
HETATM   16  O2  UNL     1       7.328   5.350  29.269  1.00  0.00    -0.389 OA
ATOM     17  H2  UNL     1       7.351   6.120  29.825  1.00  0.00     0.210 HD
ENDBRANCH   3  16
BRANCH   7  18
HETATM   18  C12 UNL     1       7.701   5.515  24.374  1.00  0.00     0.084 C 
HETATM   19  N2  UNL     1       8.114   6.158  23.360  1.00  0.00    -0.322 N 
ATOM     20  H2  UNL     1       8.473   7.103  23.498  1.00  0.00     0.185 HD
BRANCH  19  21
HETATM   21  N3  UNL     1       8.100   5.630  22.058  1.00  0.00    -0.346 N 
ATOM     22  H32 UNL     1       7.455   4.863  21.870  1.00  0.00     0.176 HD
ATOM     23  H31 UNL     1       8.699   5.978  21.309  1.00  0.00     0.176 HD
ENDBRANCH  19  21
ENDBRANCH   7  18
TORSDOF 5
ENDMDL
