MODEL 1
REMARK VINA RESULT: -6.513368188      0.000      0.000
REMARK  5 active torsions:
REMARK  status: ('A' for Active; 'I' for Inactive)
REMARK    1  A    between atoms: C2_2  and  N1_3 
REMARK    2  A    between atoms: N1_3  and  N2_4 
REMARK    3  A    between atoms: N3_12  and  C9_13 
REMARK    4  A    between atoms: C9_13  and  C10_17 
REMARK    5  A    between atoms: C10_17  and  O1_21 
ROOT
HETATM    1  N1  UNL     1       7.930   6.254  24.632  1.00  0.00     0.017 N 
HETATM    2  C4  UNL     1       9.000   7.263  24.713  1.00  0.00     0.268 C 
HETATM    3  C5  UNL     1       9.537   6.596  25.940  1.00  0.00     0.072 C 
HETATM    4  C6  UNL     1       8.835   5.362  25.355  1.00  0.00     0.156 C 
HETATM    5  C7  UNL     1       8.183   4.494  26.376  1.00  0.00     0.061 C 
HETATM    6  C8  UNL     1       8.845   3.151  26.551  1.00  0.00     0.127 C 
HETATM    7  N3  UNL     1       9.106   2.487  25.308  1.00  0.00    -0.364 N 
HETATM    8  C11 UNL     1       9.331   3.233  24.114  1.00  0.00     0.127 C 
HETATM    9  C12 UNL     1       9.801   4.617  24.497  1.00  0.00     0.061 C 
ENDROOT
BRANCH   7  10
HETATM   10  C9  UNL     1       9.137   1.075  25.285  1.00  0.00     0.148 C 
HETATM   11  N4  UNL     1       8.769   0.396  26.307  1.00  0.00    -0.382 N 
ATOM     12  H42 UNL     1       8.451   0.879  27.147  1.00  0.00     0.157 HD
ATOM     13  H41 UNL     1       8.790  -0.624  26.290  1.00  0.00     0.157 HD
BRANCH  10  14
HETATM   14  C10 UNL     1       9.587   0.391  24.096  1.00  0.00     0.178 C 
HETATM   15  N5  UNL     1       8.800  -0.409  23.476  1.00  0.00    -0.377 N 
ATOM     16  H52 UNL     1       7.852  -0.570  23.817  1.00  0.00     0.158 HD
ATOM     17  H51 UNL     1       9.118  -0.892  22.636  1.00  0.00     0.158 HD
BRANCH  14  18
HETATM   18  O1  UNL     1      10.864   0.608  23.637  1.00  0.00    -0.344 OA
ATOM     19  H1  UNL     1      11.192   0.093  22.909  1.00  0.00     0.219 HD
ENDBRANCH  14  18
ENDBRANCH  10  14
ENDBRANCH   7  10
BRANCH   1  20
HETATM   20  C2  UNL     1       6.805   6.708  25.378  1.00  0.00     0.261 C 
HETATM   21  C1  UNL     1       5.530   6.277  24.683  1.00  0.00     0.037 C 
ENDBRANCH   1  20
BRANCH   1  22
HETATM   22  N2  UNL     1       7.760   5.827  23.354  1.00  0.00    -0.256 N 
HETATM   23  C3  UNL     1       8.278   6.620  22.313  1.00  0.00     0.175 C 
ATOM     24  H2  UNL     1       7.270   4.955  23.154  1.00  0.00     0.186 HD
ENDBRANCH   1  22
TORSDOF 5
ENDMDL
MODEL 2
REMARK VINA RESULT: -6.397091141      1.006      1.074
REMARK  5 active torsions:
REMARK  status: ('A' for Active; 'I' for Inactive)
REMARK    1  A    between atoms: C2_2  and  N1_3 
REMARK    2  A    between atoms: N1_3  and  N2_4 
REMARK    3  A    between atoms: N3_12  and  C9_13 
REMARK    4  A    between atoms: C9_13  and  C10_17 
REMARK    5  A    between atoms: C10_17  and  O1_21 
ROOT
HETATM    1  N1  UNL     1       7.192   5.989  25.658  1.00  0.00     0.017 N 
HETATM    2  C4  UNL     1       8.063   7.114  25.277  1.00  0.00     0.268 C 
HETATM    3  C5  UNL     1       9.183   6.518  26.070  1.00  0.00     0.072 C 
HETATM    4  C6  UNL     1       8.418   5.209  25.824  1.00  0.00     0.156 C 
HETATM    5  C7  UNL     1       8.420   4.277  26.987  1.00  0.00     0.061 C 
HETATM    6  C8  UNL     1       9.220   3.019  26.762  1.00  0.00     0.127 C 
HETATM    7  N3  UNL     1       8.928   2.384  25.512  1.00  0.00    -0.364 N 
HETATM    8  C11 UNL     1       8.482   3.145  24.392  1.00  0.00     0.127 C 
HETATM    9  C12 UNL     1       8.933   4.576  24.577  1.00  0.00     0.061 C 
ENDROOT
BRANCH   7  10
HETATM   10  C9  UNL     1       9.089   0.984  25.406  1.00  0.00     0.148 C 
HETATM   11  N4  UNL     1       8.827   0.219  26.400  1.00  0.00    -0.382 N 
ATOM     12  H42 UNL     1       8.500   0.624  27.277  1.00  0.00     0.157 HD
ATOM     13  H41 UNL     1       8.942  -0.791  26.324  1.00  0.00     0.157 HD
BRANCH  10  14
HETATM   14  C10 UNL     1       9.552   0.412  24.166  1.00  0.00     0.178 C 
HETATM   15  N5  UNL     1       8.807  -0.405  23.514  1.00  0.00    -0.377 N 
ATOM     16  H52 UNL     1       7.884  -0.657  23.868  1.00  0.00     0.158 HD
ATOM     17  H51 UNL     1       9.135  -0.810  22.638  1.00  0.00     0.158 HD
BRANCH  14  18
HETATM   18  O1  UNL     1      10.796   0.751  23.689  1.00  0.00    -0.344 OA
ATOM     19  H1  UNL     1      11.126   0.329  22.905  1.00  0.00     0.219 HD
ENDBRANCH  14  18
ENDBRANCH  10  14
ENDBRANCH   7  10
BRANCH   1  20
HETATM   20  C2  UNL     1       6.515   6.316  26.868  1.00  0.00     0.261 C 
HETATM   21  C1  UNL     1       5.037   6.489  26.589  1.00  0.00     0.037 C 
ENDBRANCH   1  20
BRANCH   1  22
HETATM   22  N2  UNL     1       6.482   5.539  24.592  1.00  0.00    -0.256 N 
HETATM   23  C3  UNL     1       6.324   6.398  23.487  1.00  0.00     0.175 C 
ATOM     24  H2  UNL     1       6.074   4.604  24.591  1.00  0.00     0.186 HD
ENDBRANCH   1  22
TORSDOF 5
ENDMDL
MODEL 3
REMARK VINA RESULT: -6.385050461      1.251      1.421
REMARK  5 active torsions:
REMARK  status: ('A' for Active; 'I' for Inactive)
REMARK    1  A    between atoms: C2_2  and  N1_3 
REMARK    2  A    between atoms: N1_3  and  N2_4 
REMARK    3  A    between atoms: N3_12  and  C9_13 
REMARK    4  A    between atoms: C9_13  and  C10_17 
REMARK    5  A    between atoms: C10_17  and  O1_21 
ROOT
HETATM    1  N1  UNL     1       8.050   5.819  24.476  1.00  0.00     0.017 N 
HETATM    2  C4  UNL     1       9.105   6.814  24.736  1.00  0.00     0.268 C 
HETATM    3  C5  UNL     1       9.568   6.016  25.914  1.00  0.00     0.072 C 
HETATM    4  C6  UNL     1       8.913   4.854  25.153  1.00  0.00     0.156 C 
HETATM    5  C7  UNL     1       8.204   3.879  26.029  1.00  0.00     0.061 C 
HETATM    6  C8  UNL     1       8.863   2.524  26.098  1.00  0.00     0.127 C 
HETATM    7  N3  UNL     1       9.207   2.001  24.809  1.00  0.00    -0.364 N 
HETATM    8  C11 UNL     1       9.502   2.874  23.721  1.00  0.00     0.127 C 
HETATM    9  C12 UNL     1       9.937   4.207  24.283  1.00  0.00     0.061 C 
ENDROOT
BRANCH   7  10
HETATM   10  C9  UNL     1       9.249   0.600  24.633  1.00  0.00     0.148 C 
HETATM   11  N4  UNL     1       9.981   0.077  23.721  1.00  0.00    -0.382 N 
ATOM     12  H42 UNL     1      10.539   0.678  23.115  1.00  0.00     0.157 HD
ATOM     13  H41 UNL     1      10.012  -0.934  23.594  1.00  0.00     0.157 HD
BRANCH  10  14
HETATM   14  C10 UNL     1       8.459  -0.250  25.491  1.00  0.00     0.178 C 
HETATM   15  N5  UNL     1       7.414  -0.835  25.033  1.00  0.00    -0.377 N 
ATOM     16  H52 UNL     1       7.132  -0.705  24.061  1.00  0.00     0.158 HD
ATOM     17  H51 UNL     1       6.856  -1.436  25.639  1.00  0.00     0.158 HD
BRANCH  14  18
HETATM   18  O1  UNL     1       8.839  -0.426  26.800  1.00  0.00    -0.344 OA
ATOM     19  H1  UNL     1       9.673  -0.838  26.993  1.00  0.00     0.219 HD
ENDBRANCH  14  18
ENDBRANCH  10  14
ENDBRANCH   7  10
BRANCH   1  20
HETATM   20  C2  UNL     1       6.877   6.189  25.194  1.00  0.00     0.261 C 
HETATM   21  C1  UNL     1       5.651   5.782  24.403  1.00  0.00     0.037 C 
ENDBRANCH   1  20
BRANCH   1  22
HETATM   22  N2  UNL     1       7.964   5.535  23.151  1.00  0.00    -0.256 N 
HETATM   23  C3  UNL     1       8.401   6.509  22.232  1.00  0.00     0.175 C 
ATOM     24  H2  UNL     1       7.594   4.641  22.830  1.00  0.00     0.186 HD
ENDBRANCH   1  22
TORSDOF 5
ENDMDL
MODEL 4
REMARK VINA RESULT: -6.196075209      1.594      2.779
REMARK  5 active torsions:
REMARK  status: ('A' for Active; 'I' for Inactive)
REMARK    1  A    between atoms: C2_2  and  N1_3 
REMARK    2  A    between atoms: N1_3  and  N2_4 
REMARK    3  A    between atoms: N3_12  and  C9_13 
REMARK    4  A    between atoms: C9_13  and  C10_17 
REMARK    5  A    between atoms: C10_17  and  O1_21 
ROOT
HETATM    1  N1  UNL     1       9.695   6.047  24.369  1.00  0.00     0.017 N 
HETATM    2  C4  UNL     1       8.703   6.782  23.567  1.00  0.00     0.268 C 
HETATM    3  C5  UNL     1       8.668   5.659  22.579  1.00  0.00     0.072 C 
HETATM    4  C6  UNL     1       9.141   4.829  23.782  1.00  0.00     0.156 C 
HETATM    5  C7  UNL     1      10.144   3.781  23.440  1.00  0.00     0.061 C 
HETATM    6  C8  UNL     1       9.627   2.371  23.577  1.00  0.00     0.127 C 
HETATM    7  N3  UNL     1       8.949   2.140  24.817  1.00  0.00    -0.364 N 
HETATM    8  C11 UNL     1       8.284   3.203  25.495  1.00  0.00     0.127 C 
HETATM    9  C12 UNL     1       7.949   4.277  24.488  1.00  0.00     0.061 C 
ENDROOT
BRANCH   7  10
HETATM   10  C9  UNL     1       8.949   0.835  25.359  1.00  0.00     0.148 C 
HETATM   11  N4  UNL     1       9.079   0.651  26.620  1.00  0.00    -0.382 N 
ATOM     12  H42 UNL     1       9.184   1.455  27.239  1.00  0.00     0.157 HD
ATOM     13  H41 UNL     1       9.079  -0.290  27.012  1.00  0.00     0.157 HD
BRANCH  10  14
HETATM   14  C10 UNL     1       8.802  -0.301  24.483  1.00  0.00     0.178 C 
HETATM   15  N5  UNL     1       8.774  -1.489  24.966  1.00  0.00    -0.377 N 
ATOM     16  H52 UNL     1       8.856  -1.640  25.972  1.00  0.00     0.158 HD
ATOM     17  H51 UNL     1       8.669  -2.292  24.346  1.00  0.00     0.158 HD
BRANCH  14  18
HETATM   18  O1  UNL     1       8.690  -0.098  23.128  1.00  0.00    -0.344 OA
ATOM     19  H1  UNL     1       8.601   0.788  22.795  1.00  0.00     0.219 HD
ENDBRANCH  14  18
ENDBRANCH  10  14
ENDBRANCH   7  10
BRANCH   1  20
HETATM   20  C2  UNL     1      11.003   6.394  23.922  1.00  0.00     0.261 C 
HETATM   21  C1  UNL     1      11.129   7.902  23.849  1.00  0.00     0.037 C 
ENDBRANCH   1  20
BRANCH   1  22
HETATM   22  N2  UNL     1       9.399   6.116  25.692  1.00  0.00    -0.256 N 
HETATM   23  C3  UNL     1       8.640   7.211  26.148  1.00  0.00     0.175 C 
ATOM     24  H2  UNL     1       9.717   5.394  26.339  1.00  0.00     0.186 HD
ENDBRANCH   1  22
TORSDOF 5
ENDMDL
MODEL 5
REMARK VINA RESULT: -6.135042496      1.230      2.640
REMARK  5 active torsions:
REMARK  status: ('A' for Active; 'I' for Inactive)
REMARK    1  A    between atoms: C2_2  and  N1_3 
REMARK    2  A    between atoms: N1_3  and  N2_4 
REMARK    3  A    between atoms: N3_12  and  C9_13 
REMARK    4  A    between atoms: C9_13  and  C10_17 
REMARK    5  A    between atoms: C10_17  and  O1_21 
ROOT
HETATM    1  N1  UNL     1       9.384   6.540  25.399  1.00  0.00     0.017 N 
HETATM    2  C4  UNL     1       8.147   7.332  25.288  1.00  0.00     0.268 C 
HETATM    3  C5  UNL     1       7.704   6.483  24.139  1.00  0.00     0.072 C 
HETATM    4  C6  UNL     1       8.635   5.446  24.783  1.00  0.00     0.156 C 
HETATM    5  C7  UNL     1       9.404   4.628  23.803  1.00  0.00     0.061 C 
HETATM    6  C8  UNL     1       8.991   3.178  23.757  1.00  0.00     0.127 C 
HETATM    7  N3  UNL     1       8.890   2.582  25.055  1.00  0.00    -0.364 N 
HETATM    8  C11 UNL     1       8.568   3.370  26.198  1.00  0.00     0.127 C 
HETATM    9  C12 UNL     1       7.845   4.612  25.734  1.00  0.00     0.061 C 
ENDROOT
BRANCH   7  10
HETATM   10  C9  UNL     1       9.116   1.193  25.184  1.00  0.00     0.148 C 
HETATM   11  N4  UNL     1       8.893   0.595  26.295  1.00  0.00    -0.382 N 
ATOM     12  H42 UNL     1       8.550   1.126  27.095  1.00  0.00     0.157 HD
ATOM     13  H41 UNL     1       9.056  -0.407  26.389  1.00  0.00     0.157 HD
BRANCH  10  14
HETATM   14  C10 UNL     1       9.603   0.442  24.053  1.00  0.00     0.178 C 
HETATM   15  N5  UNL     1       8.837  -0.399  23.459  1.00  0.00    -0.377 N 
ATOM     16  H52 UNL     1       7.879  -0.543  23.782  1.00  0.00     0.158 HD
ATOM     17  H51 UNL     1       9.181  -0.930  22.660  1.00  0.00     0.158 HD
BRANCH  14  18
HETATM   18  O1  UNL     1      10.892   0.637  23.618  1.00  0.00    -0.344 OA
ATOM     19  H1  UNL     1      11.328   1.459  23.806  1.00  0.00     0.219 HD
ENDBRANCH  14  18
ENDBRANCH  10  14
ENDBRANCH   7  10
BRANCH   1  20
HETATM   20  C2  UNL     1      10.386   7.126  24.574  1.00  0.00     0.261 C 
HETATM   21  C1  UNL     1      10.413   8.624  24.798  1.00  0.00     0.037 C 
ENDBRANCH   1  20
BRANCH   1  22
HETATM   22  N2  UNL     1       9.665   6.254  26.696  1.00  0.00    -0.256 N 
HETATM   23  C3  UNL     1       9.308   7.198  27.678  1.00  0.00     0.175 C 
ATOM     24  H2  UNL     1      10.122   5.379  26.953  1.00  0.00     0.186 HD
ENDBRANCH   1  22
TORSDOF 5
ENDMDL
