MODEL 1
REMARK VINA RESULT: -7.293493136      0.000      0.000
REMARK  3 active torsions:
REMARK  status: ('A' for Active; 'I' for Inactive)
REMARK       I    between atoms: C1_4  and  N2_5 
REMARK       I    between atoms: C1_4  and  N3_12 
REMARK    1  A    between atoms: N2_5  and  C2_7 
REMARK    2  A    between atoms: C2_7  and  C3_8 
REMARK    3  A    between atoms: N3_12  and  N4_14 
REMARK       I    between atoms: N4_14  and  C5_16 
REMARK       I    between atoms: C5_16  and  N5_18 
ROOT
HETATM    1  C3  UNL     1       8.695  -0.166  24.678  1.00  0.00    -0.056 C 
HETATM    2  C4  UNL     1       8.110  -0.562  25.656  1.00  0.00     0.053 C 
HETATM    3  O1  UNL     1       7.421  -1.003  26.769  1.00  0.00    -0.314 OA
ATOM      4  H1  UNL     1       6.960  -1.315  27.539  1.00  0.00     0.230 HD
ENDROOT
BRANCH   1   5
HETATM    5  C2  UNL     1       9.376   0.317  23.475  1.00  0.00     0.235 C 
BRANCH   5   6
HETATM    6  N2  UNL     1      10.373   1.348  23.780  1.00  0.00    -0.215 N 
HETATM    7  C1  UNL     1      10.200   2.654  23.261  1.00  0.00     0.687 C 
HETATM    8  N1  UNL     1       9.942   2.747  21.984  1.00  0.00    -0.234 N 
HETATM    9  N3  UNL     1      10.286   3.830  24.020  1.00  0.00    -0.129 N 
ATOM     10  H12 UNL     1       9.880   1.891  21.432  1.00  0.00     0.174 HD
ATOM     11  H11 UNL     1       9.817   3.687  21.610  1.00  0.00     0.174 HD
ATOM     12  H3  UNL     1      11.029   3.917  24.713  1.00  0.00     0.205 HD
ATOM     13  H2  UNL     1      11.182   1.126  24.359  1.00  0.00     0.178 HD
BRANCH   9  14
HETATM   14  N4  UNL     1       9.391   4.881  23.856  1.00  0.00    -0.237 N 
HETATM   15  C5  UNL     1       8.043   4.751  24.301  1.00  0.00     0.337 C 
HETATM   16  O2  UNL     1       7.622   3.695  24.842  1.00  0.00    -0.245 OA
HETATM   17  N5  UNL     1       7.105   5.826  24.153  1.00  0.00    -0.333 N 
HETATM   18  C6  UNL     1       7.643   6.982  23.485  1.00  0.00     0.127 C 
HETATM   19  C11 UNL     1       5.804   5.534  24.720  1.00  0.00     0.127 C 
HETATM   20  C7  UNL     1       6.694   8.135  23.388  1.00  0.00     0.020 C 
HETATM   21  C8  UNL     1       5.258   7.754  23.262  1.00  0.00     0.002 C 
HETATM   22  C9  UNL     1       4.590   7.648  24.638  1.00  0.00     0.002 C 
HETATM   23  C10 UNL     1       5.381   6.744  25.537  1.00  0.00     0.020 C 
ATOM     24  H4  UNL     1       9.701   5.748  23.416  1.00  0.00     0.192 HD
ENDBRANCH   9  14
ENDBRANCH   5   6
ENDBRANCH   1   5
TORSDOF 3
ENDMDL
MODEL 2
REMARK VINA RESULT: -7.047975519      1.678      2.485
REMARK  3 active torsions:
REMARK  status: ('A' for Active; 'I' for Inactive)
REMARK       I    between atoms: C1_4  and  N2_5 
REMARK       I    between atoms: C1_4  and  N3_12 
REMARK    1  A    between atoms: N2_5  and  C2_7 
REMARK    2  A    between atoms: C2_7  and  C3_8 
REMARK    3  A    between atoms: N3_12  and  N4_14 
REMARK       I    between atoms: N4_14  and  C5_16 
REMARK       I    between atoms: C5_16  and  N5_18 
ROOT
HETATM    1  C3  UNL     1       8.700  -0.242  24.709  1.00  0.00    -0.056 C 
HETATM    2  C4  UNL     1       8.117  -0.623  25.694  1.00  0.00     0.053 C 
HETATM    3  O1  UNL     1       7.441  -1.038  26.824  1.00  0.00    -0.314 OA
ATOM      4  H1  UNL     1       6.982  -1.339  27.600  1.00  0.00     0.230 HD
ENDROOT
BRANCH   1   5
HETATM    5  C2  UNL     1       9.382   0.243  23.507  1.00  0.00     0.235 C 
BRANCH   5   6
HETATM    6  N2  UNL     1      10.368   1.285  23.812  1.00  0.00    -0.215 N 
HETATM    7  C1  UNL     1      10.167   2.596  23.316  1.00  0.00     0.687 C 
HETATM    8  N1  UNL     1       9.888   2.704  22.045  1.00  0.00    -0.234 N 
HETATM    9  N3  UNL     1      10.246   3.762  24.091  1.00  0.00    -0.129 N 
ATOM     10  H12 UNL     1       9.830   1.856  21.481  1.00  0.00     0.174 HD
ATOM     11  H11 UNL     1       9.743   3.648  21.687  1.00  0.00     0.174 HD
ATOM     12  H3  UNL     1      10.998   3.850  24.775  1.00  0.00     0.205 HD
ATOM     13  H2  UNL     1      11.189   1.067  24.376  1.00  0.00     0.178 HD
BRANCH   9  14
HETATM   14  N4  UNL     1       9.333   4.801  23.957  1.00  0.00    -0.237 N 
HETATM   15  C5  UNL     1       9.757   6.068  23.459  1.00  0.00     0.337 C 
HETATM   16  O2  UNL     1      10.954   6.288  23.135  1.00  0.00    -0.245 OA
HETATM   17  N5  UNL     1       8.830   7.152  23.301  1.00  0.00    -0.333 N 
HETATM   18  C6  UNL     1       7.492   6.844  23.734  1.00  0.00     0.127 C 
HETATM   19  C11 UNL     1       9.428   8.338  22.723  1.00  0.00     0.127 C 
HETATM   20  C7  UNL     1       6.503   7.943  23.509  1.00  0.00     0.020 C 
HETATM   21  C8  UNL     1       7.064   9.321  23.616  1.00  0.00     0.002 C 
HETATM   22  C9  UNL     1       7.554   9.826  22.254  1.00  0.00     0.002 C 
HETATM   23  C10 UNL     1       8.493   8.835  21.633  1.00  0.00     0.020 C 
ATOM     24  H4  UNL     1       8.357   4.656  24.216  1.00  0.00     0.192 HD
ENDBRANCH   9  14
ENDBRANCH   5   6
ENDBRANCH   1   5
TORSDOF 3
ENDMDL
MODEL 3
REMARK VINA RESULT: -6.998889658      0.998      1.160
REMARK  3 active torsions:
REMARK  status: ('A' for Active; 'I' for Inactive)
REMARK       I    between atoms: C1_4  and  N2_5 
REMARK       I    between atoms: C1_4  and  N3_12 
REMARK    1  A    between atoms: N2_5  and  C2_7 
REMARK    2  A    between atoms: C2_7  and  C3_8 
REMARK    3  A    between atoms: N3_12  and  N4_14 
REMARK       I    between atoms: N4_14  and  C5_16 
REMARK       I    between atoms: C5_16  and  N5_18 
ROOT
HETATM    1  C3  UNL     1       8.758  -0.218  24.710  1.00  0.00    -0.056 C 
HETATM    2  C4  UNL     1       8.065  -0.652  25.598  1.00  0.00     0.053 C 
HETATM    3  O1  UNL     1       7.286  -1.136  26.630  1.00  0.00    -0.314 OA
ATOM      4  H1  UNL     1       6.741  -1.477  27.329  1.00  0.00     0.230 HD
ENDROOT
BRANCH   1   5
HETATM    5  C2  UNL     1       9.604   0.335  23.650  1.00  0.00     0.235 C 
BRANCH   5   6
HETATM    6  N2  UNL     1      10.297   1.555  24.075  1.00  0.00    -0.215 N 
HETATM    7  C1  UNL     1       9.856   2.809  23.586  1.00  0.00     0.687 C 
HETATM    8  N1  UNL     1       9.683   2.905  22.295  1.00  0.00    -0.234 N 
HETATM    9  N3  UNL     1       9.597   3.930  24.388  1.00  0.00    -0.129 N 
ATOM     10  H12 UNL     1       9.872   2.090  21.712  1.00  0.00     0.174 HD
ATOM     11  H11 UNL     1       9.365   3.808  21.943  1.00  0.00     0.174 HD
ATOM     12  H3  UNL     1      10.241   4.153  25.147  1.00  0.00     0.205 HD
ATOM     13  H2  UNL     1      11.088   1.501  24.716  1.00  0.00     0.178 HD
BRANCH   9  14
HETATM   14  N4  UNL     1       8.492   4.746  24.181  1.00  0.00    -0.237 N 
HETATM   15  C5  UNL     1       7.688   5.158  25.284  1.00  0.00     0.337 C 
HETATM   16  O2  UNL     1       7.944   4.798  26.463  1.00  0.00    -0.245 OA
HETATM   17  N5  UNL     1       6.549   6.010  25.096  1.00  0.00    -0.333 N 
HETATM   18  C6  UNL     1       6.290   6.343  23.720  1.00  0.00     0.127 C 
HETATM   19  C11 UNL     1       5.895   6.375  26.336  1.00  0.00     0.127 C 
HETATM   20  C7  UNL     1       5.147   7.287  23.518  1.00  0.00     0.020 C 
HETATM   21  C8  UNL     1       4.045   7.155  24.514  1.00  0.00     0.002 C 
HETATM   22  C9  UNL     1       4.269   8.083  25.714  1.00  0.00     0.002 C 
HETATM   23  C10 UNL     1       5.636   7.871  26.292  1.00  0.00     0.020 C 
ATOM     24  H4  UNL     1       8.255   5.050  23.237  1.00  0.00     0.192 HD
ENDBRANCH   9  14
ENDBRANCH   5   6
ENDBRANCH   1   5
TORSDOF 3
ENDMDL
MODEL 4
REMARK VINA RESULT: -6.811113661      1.598      2.188
REMARK  3 active torsions:
REMARK  status: ('A' for Active; 'I' for Inactive)
REMARK       I    between atoms: C1_4  and  N2_5 
REMARK       I    between atoms: C1_4  and  N3_12 
REMARK    1  A    between atoms: N2_5  and  C2_7 
REMARK    2  A    between atoms: C2_7  and  C3_8 
REMARK    3  A    between atoms: N3_12  and  N4_14 
REMARK       I    between atoms: N4_14  and  C5_16 
REMARK       I    between atoms: C5_16  and  N5_18 
ROOT
HETATM    1  C3  UNL     1       7.398  -1.009  25.932  1.00  0.00    -0.056 C 
HETATM    2  C4  UNL     1       6.481  -1.233  26.683  1.00  0.00     0.053 C 
HETATM    3  O1  UNL     1       5.437  -1.470  27.555  1.00  0.00    -0.314 OA
ATOM      4  H1  UNL     1       4.715  -1.647  28.147  1.00  0.00     0.230 HD
ENDROOT
BRANCH   1   5
HETATM    5  C2  UNL     1       8.508  -0.704  25.026  1.00  0.00     0.235 C 
BRANCH   5   6
HETATM    6  N2  UNL     1       9.298   0.443  25.484  1.00  0.00    -0.215 N 
HETATM    7  C1  UNL     1       9.140   1.695  24.841  1.00  0.00     0.687 C 
HETATM    8  N1  UNL     1       9.200   1.695  23.537  1.00  0.00    -0.234 N 
HETATM    9  N3  UNL     1       8.925   2.910  25.507  1.00  0.00    -0.129 N 
ATOM     10  H12 UNL     1       9.357   0.811  23.052  1.00  0.00     0.174 HD
ATOM     11  H11 UNL     1       9.085   2.596  23.073  1.00  0.00     0.174 HD
ATOM     12  H3  UNL     1       9.460   3.112  26.352  1.00  0.00     0.205 HD
ATOM     13  H2  UNL     1       9.955   0.340  26.258  1.00  0.00     0.178 HD
BRANCH   9  14
HETATM   14  N4  UNL     1       8.006   3.848  25.053  1.00  0.00    -0.237 N 
HETATM   15  C5  UNL     1       8.353   5.230  25.010  1.00  0.00     0.337 C 
HETATM   16  O2  UNL     1       9.484   5.643  25.382  1.00  0.00    -0.245 OA
HETATM   17  N5  UNL     1       7.426   6.215  24.533  1.00  0.00    -0.333 N 
HETATM   18  C6  UNL     1       6.140   5.679  24.170  1.00  0.00     0.127 C 
HETATM   19  C11 UNL     1       7.976   7.555  24.503  1.00  0.00     0.127 C 
HETATM   20  C7  UNL     1       5.188   6.686  23.607  1.00  0.00     0.020 C 
HETATM   21  C8  UNL     1       5.335   8.063  24.160  1.00  0.00     0.002 C 
HETATM   22  C9  UNL     1       6.315   8.896  23.324  1.00  0.00     0.002 C 
HETATM   23  C10 UNL     1       7.615   8.166  23.160  1.00  0.00     0.020 C 
ATOM     24  H4  UNL     1       7.080   3.547  24.749  1.00  0.00     0.192 HD
ENDBRANCH   9  14
ENDBRANCH   5   6
ENDBRANCH   1   5
TORSDOF 3
ENDMDL
MODEL 5
REMARK VINA RESULT: -6.755613055      3.095      4.016
REMARK  3 active torsions:
REMARK  status: ('A' for Active; 'I' for Inactive)
REMARK       I    between atoms: C1_4  and  N2_5 
REMARK       I    between atoms: C1_4  and  N3_12 
REMARK    1  A    between atoms: N2_5  and  C2_7 
REMARK    2  A    between atoms: C2_7  and  C3_8 
REMARK    3  A    between atoms: N3_12  and  N4_14 
REMARK       I    between atoms: N4_14  and  C5_16 
REMARK       I    between atoms: C5_16  and  N5_18 
ROOT
HETATM    1  C3  UNL     1       9.168   0.420  24.766  1.00  0.00    -0.056 C 
HETATM    2  C4  UNL     1       8.463  -0.252  25.478  1.00  0.00     0.053 C 
HETATM    3  O1  UNL     1       7.662  -1.006  26.313  1.00  0.00    -0.314 OA
ATOM      4  H1  UNL     1       7.107  -1.535  26.874  1.00  0.00     0.230 HD
ENDROOT
BRANCH   1   5
HETATM    5  C2  UNL     1      10.019   1.260  23.920  1.00  0.00     0.235 C 
BRANCH   5   6
HETATM    6  N2  UNL     1       9.235   2.141  23.049  1.00  0.00    -0.215 N 
HETATM    7  C1  UNL     1       9.095   3.509  23.391  1.00  0.00     0.687 C 
HETATM    8  N1  UNL     1       8.729   3.770  24.618  1.00  0.00    -0.234 N 
HETATM    9  N3  UNL     1       9.322   4.577  22.512  1.00  0.00    -0.129 N 
ATOM     10  H12 UNL     1       8.563   2.993  25.257  1.00  0.00     0.174 HD
ATOM     11  H11 UNL     1       8.628   4.754  24.865  1.00  0.00     0.174 HD
ATOM     12  H3  UNL     1       8.982   4.508  21.553  1.00  0.00     0.205 HD
ATOM     13  H2  UNL     1       8.796   1.773  22.205  1.00  0.00     0.178 HD
BRANCH   9  14
HETATM   14  N4  UNL     1       9.996   5.727  22.906  1.00  0.00    -0.237 N 
HETATM   15  C5  UNL     1       9.545   7.007  22.471  1.00  0.00     0.337 C 
HETATM   16  O2  UNL     1       8.542   7.138  21.721  1.00  0.00    -0.245 OA
HETATM   17  N5  UNL     1      10.217   8.209  22.875  1.00  0.00    -0.333 N 
HETATM   18  C6  UNL     1      11.381   7.980  23.690  1.00  0.00     0.127 C 
HETATM   19  C11 UNL     1       9.579   9.414  22.387  1.00  0.00     0.127 C 
HETATM   20  C7  UNL     1      12.049   9.228  24.174  1.00  0.00     0.020 C 
HETATM   21  C8  UNL     1      11.962  10.387  23.240  1.00  0.00     0.002 C 
HETATM   22  C9  UNL     1      10.722  11.241  23.530  1.00  0.00     0.002 C 
HETATM   23  C10 UNL     1       9.490  10.386  23.552  1.00  0.00     0.020 C 
ATOM     24  H4  UNL     1      10.816   5.654  23.509  1.00  0.00     0.192 HD
ENDBRANCH   9  14
ENDBRANCH   5   6
ENDBRANCH   1   5
TORSDOF 3
ENDMDL
