MODEL 1
REMARK VINA RESULT: -6.342674655      0.000      0.000
REMARK  2 active torsions:
REMARK  status: ('A' for Active; 'I' for Inactive)
REMARK    1  A    between atoms: C2_2  and  N1_3 
REMARK       I    between atoms: N4_13  and  C7_15 
REMARK       I    between atoms: C7_15  and  N6_19 
REMARK    2  A    between atoms: N6_19  and  C8_21 
ROOT
HETATM    1  N1  UNL     1      39.833  -4.383  31.164  1.00  0.00    -0.364 N 
HETATM    2  C3  UNL     1      38.621  -4.243  31.731  1.00  0.00     0.112 A 
HETATM    3  C4  UNL     1      38.085  -3.010  32.033  1.00  0.00     0.055 A 
HETATM    4 BR1  UNL     1      36.364  -2.864  32.837  1.00  0.00    -0.047 Br
HETATM    5  C5  UNL     1      38.792  -1.858  31.755  1.00  0.00     0.082 A 
HETATM    6  N2  UNL     1      38.561  -0.545  31.919  1.00  0.00    -0.297 N 
ATOM      7  H2  UNL     1      37.713  -0.154  32.330  1.00  0.00     0.187 HD
HETATM    8  N3  UNL     1      39.572   0.169  31.480  1.00  0.00    -0.284 N 
ATOM      9  H3  UNL     1      39.645   1.186  31.489  1.00  0.00     0.188 HD
HETATM   10  C6  UNL     1      40.510  -0.712  31.008  1.00  0.00     0.149 A 
HETATM   11  N4  UNL     1      41.592  -0.323  30.524  1.00  0.00    -0.175 N 
ATOM     12  H4  UNL     1      41.690   0.693  30.522  1.00  0.00     0.186 HD
HETATM   13  C7  UNL     1      42.692  -0.981  29.985  1.00  0.00     0.673 C 
HETATM   14  N5  UNL     1      43.722  -1.331  30.694  1.00  0.00    -0.235 N 
ATOM     15  H51 UNL     1      44.529  -1.814  30.298  1.00  0.00     0.174 HD
ATOM     16  H52 UNL     1      43.719  -1.125  31.692  1.00  0.00     0.174 HD
HETATM   17  N6  UNL     1      42.696  -1.268  28.590  1.00  0.00    -0.222 N 
ATOM     18  H6  UNL     1      41.841  -1.064  28.072  1.00  0.00     0.178 HD
HETATM   19  C14 UNL     1      40.035  -1.989  31.174  1.00  0.00     0.055 A 
HETATM   20  C15 UNL     1      40.521  -3.260  30.893  1.00  0.00     0.108 A 
ENDROOT
BRANCH  17  21
HETATM   21  C8  UNL     1      43.790  -1.818  27.848  1.00  0.00     0.099 C 
HETATM   22  C9  UNL     1      43.722  -1.331  26.389  1.00  0.00     0.026 C 
HETATM   23  C10 UNL     1      44.850  -1.956  25.634  1.00  0.00     0.002 C 
HETATM   24  C11 UNL     1      44.472  -3.422  25.400  1.00  0.00     0.000 C 
HETATM   25  C12 UNL     1      43.447  -3.863  26.414  1.00  0.00     0.002 C 
HETATM   26  C13 UNL     1      43.716  -3.335  27.788  1.00  0.00     0.026 C 
ENDBRANCH  17  21
BRANCH   1  27
HETATM   27  C2  UNL     1      40.359  -5.709  30.863  1.00  0.00     0.123 C 
HETATM   28  C1  UNL     1      41.466  -5.658  29.840  1.00  0.00     0.027 C 
ENDBRANCH   1  27
TORSDOF 2
ENDMDL
MODEL 2
REMARK VINA RESULT: -6.079971532      2.013      2.262
REMARK  2 active torsions:
REMARK  status: ('A' for Active; 'I' for Inactive)
REMARK    1  A    between atoms: C2_2  and  N1_3 
REMARK       I    between atoms: N4_13  and  C7_15 
REMARK       I    between atoms: C7_15  and  N6_19 
REMARK    2  A    between atoms: N6_19  and  C8_21 
ROOT
HETATM    1  N1  UNL     1      42.893  -4.500  31.434  1.00  0.00    -0.364 N 
HETATM    2  C3  UNL     1      42.001  -4.586  32.438  1.00  0.00     0.112 A 
HETATM    3  C4  UNL     1      41.187  -3.532  32.795  1.00  0.00     0.055 A 
HETATM    4 BR1  UNL     1      39.940  -3.702  34.225  1.00  0.00    -0.047 Br
HETATM    5  C5  UNL     1      41.265  -2.334  32.116  1.00  0.00     0.082 A 
HETATM    6  N2  UNL     1      40.634  -1.151  32.211  1.00  0.00    -0.297 N 
ATOM      7  H2  UNL     1      39.906  -0.938  32.893  1.00  0.00     0.187 HD
HETATM    8  N3  UNL     1      41.080  -0.307  31.310  1.00  0.00    -0.284 N 
ATOM      9  H3  UNL     1      40.766   0.654  31.172  1.00  0.00     0.188 HD
HETATM   10  C6  UNL     1      42.046  -0.960  30.592  1.00  0.00     0.149 A 
HETATM   11  N4  UNL     1      42.658  -0.404  29.656  1.00  0.00    -0.175 N 
ATOM     12  H4  UNL     1      42.363   0.559  29.498  1.00  0.00     0.186 HD
HETATM   13  C7  UNL     1      43.658  -0.821  28.784  1.00  0.00     0.673 C 
HETATM   14  N5  UNL     1      44.922  -0.659  29.029  1.00  0.00    -0.235 N 
ATOM     15  H51 UNL     1      45.655  -0.965  28.389  1.00  0.00     0.174 HD
ATOM     16  H52 UNL     1      45.196  -0.216  29.906  1.00  0.00     0.174 HD
HETATM   17  N6  UNL     1      43.276  -1.441  27.559  1.00  0.00    -0.222 N 
ATOM     18  H6  UNL     1      42.283  -1.638  27.429  1.00  0.00     0.178 HD
HETATM   19  C14 UNL     1      42.175  -2.234  31.085  1.00  0.00     0.055 A 
HETATM   20  C15 UNL     1      42.968  -3.332  30.774  1.00  0.00     0.108 A 
ENDROOT
BRANCH  17  21
HETATM   21  C8  UNL     1      44.158  -1.812  26.495  1.00  0.00     0.099 C 
HETATM   22  C9  UNL     1      43.614  -1.271  25.160  1.00  0.00     0.026 C 
HETATM   23  C10 UNL     1      44.532  -1.711  24.067  1.00  0.00     0.002 C 
HETATM   24  C11 UNL     1      44.263  -3.200  23.831  1.00  0.00     0.000 C 
HETATM   25  C12 UNL     1      43.634  -3.815  25.056  1.00  0.00     0.002 C 
HETATM   26  C13 UNL     1      44.235  -3.321  26.335  1.00  0.00     0.026 C 
ENDBRANCH  17  21
BRANCH   1  27
HETATM   27  C2  UNL     1      43.733  -5.642  31.094  1.00  0.00     0.123 C 
HETATM   28  C1  UNL     1      43.043  -6.584  30.139  1.00  0.00     0.027 C 
ENDBRANCH   1  27
TORSDOF 2
ENDMDL
MODEL 3
REMARK VINA RESULT: -6.048211772      2.792      4.246
REMARK  2 active torsions:
REMARK  status: ('A' for Active; 'I' for Inactive)
REMARK    1  A    between atoms: C2_2  and  N1_3 
REMARK       I    between atoms: N4_13  and  C7_15 
REMARK       I    between atoms: C7_15  and  N6_19 
REMARK    2  A    between atoms: N6_19  and  C8_21 
ROOT
HETATM    1  N1  UNL     1      40.228  -3.268  32.604  1.00  0.00    -0.364 N 
HETATM    2  C3  UNL     1      40.327  -3.513  33.923  1.00  0.00     0.112 A 
HETATM    3  C4  UNL     1      41.248  -4.396  34.443  1.00  0.00     0.055 A 
HETATM    4 BR1  UNL     1      41.348  -4.711  36.320  1.00  0.00    -0.047 Br
HETATM    5  C5  UNL     1      42.116  -5.068  33.607  1.00  0.00     0.082 A 
HETATM    6  N2  UNL     1      43.098  -5.966  33.788  1.00  0.00    -0.297 N 
ATOM      7  H2  UNL     1      43.386  -6.332  34.695  1.00  0.00     0.187 HD
HETATM    8  N3  UNL     1      43.639  -6.309  32.642  1.00  0.00    -0.284 N 
ATOM      9  H3  UNL     1      44.403  -6.972  32.506  1.00  0.00     0.188 HD
HETATM   10  C6  UNL     1      42.984  -5.609  31.664  1.00  0.00     0.149 A 
HETATM   11  N4  UNL     1      43.282  -5.730  30.457  1.00  0.00    -0.175 N 
ATOM     12  H4  UNL     1      44.043  -6.389  30.295  1.00  0.00     0.186 HD
HETATM   13  C7  UNL     1      42.794  -5.155  29.288  1.00  0.00     0.673 C 
HETATM   14  N5  UNL     1      41.846  -5.689  28.582  1.00  0.00    -0.235 N 
ATOM     15  H51 UNL     1      41.488  -5.267  27.724  1.00  0.00     0.174 HD
ATOM     16  H52 UNL     1      41.431  -6.563  28.904  1.00  0.00     0.174 HD
HETATM   17  N6  UNL     1      43.374  -3.935  28.838  1.00  0.00    -0.222 N 
ATOM     18  H6  UNL     1      44.055  -3.489  29.455  1.00  0.00     0.178 HD
HETATM   19  C14 UNL     1      42.024  -4.825  32.252  1.00  0.00     0.055 A 
HETATM   20  C15 UNL     1      41.074  -3.923  31.790  1.00  0.00     0.108 A 
ENDROOT
BRANCH  17  21
HETATM   21  C8  UNL     1      43.090  -3.275  27.600  1.00  0.00     0.099 C 
HETATM   22  C9  UNL     1      44.171  -3.632  26.564  1.00  0.00     0.026 C 
HETATM   23  C10 UNL     1      43.869  -2.896  25.299  1.00  0.00     0.002 C 
HETATM   24  C11 UNL     1      44.256  -1.433  25.532  1.00  0.00     0.000 C 
HETATM   25  C12 UNL     1      44.269  -1.127  27.008  1.00  0.00     0.002 C 
HETATM   26  C13 UNL     1      43.136  -1.764  27.749  1.00  0.00     0.026 C 
ENDBRANCH  17  21
BRANCH   1  27
HETATM   27  C2  UNL     1      39.237  -2.325  32.100  1.00  0.00     0.123 C 
HETATM   28  C1  UNL     1      39.590  -1.818  30.724  1.00  0.00     0.027 C 
ENDBRANCH   1  27
TORSDOF 2
ENDMDL
MODEL 4
REMARK VINA RESULT: -6.008568194      3.732      5.474
REMARK  2 active torsions:
REMARK  status: ('A' for Active; 'I' for Inactive)
REMARK    1  A    between atoms: C2_2  and  N1_3 
REMARK       I    between atoms: N4_13  and  C7_15 
REMARK       I    between atoms: C7_15  and  N6_19 
REMARK    2  A    between atoms: N6_19  and  C8_21 
ROOT
HETATM    1  N1  UNL     1      44.123  -8.202  31.094  1.00  0.00    -0.364 N 
HETATM    2  C3  UNL     1      43.537  -9.358  31.455  1.00  0.00     0.112 A 
HETATM    3  C4  UNL     1      42.182  -9.572  31.326  1.00  0.00     0.055 A 
HETATM    4 BR1  UNL     1      41.399 -11.227  31.853  1.00  0.00    -0.047 Br
HETATM    5  C5  UNL     1      41.369  -8.583  30.810  1.00  0.00     0.082 A 
HETATM    6  N2  UNL     1      40.053  -8.476  30.561  1.00  0.00    -0.297 N 
ATOM      7  H2  UNL     1      39.369  -9.210  30.743  1.00  0.00     0.187 HD
HETATM    8  N3  UNL     1      39.765  -7.300  30.053  1.00  0.00    -0.284 N 
ATOM      9  H3  UNL     1      38.840  -6.969  29.777  1.00  0.00     0.188 HD
HETATM   10  C6  UNL     1      40.941  -6.603  29.965  1.00  0.00     0.149 A 
HETATM   11  N4  UNL     1      40.982  -5.439  29.515  1.00  0.00    -0.175 N 
ATOM     12  H4  UNL     1      40.068  -5.084  29.232  1.00  0.00     0.186 HD
HETATM   13  C7  UNL     1      42.011  -4.524  29.317  1.00  0.00     0.673 C 
HETATM   14  N5  UNL     1      42.357  -3.647  30.208  1.00  0.00    -0.235 N 
ATOM     15  H51 UNL     1      43.112  -2.976  30.063  1.00  0.00     0.174 HD
ATOM     16  H52 UNL     1      41.859  -3.634  31.098  1.00  0.00     0.174 HD
HETATM   17  N6  UNL     1      42.707  -4.542  28.074  1.00  0.00    -0.222 N 
ATOM     18  H6  UNL     1      42.478  -5.296  27.425  1.00  0.00     0.178 HD
HETATM   19  C14 UNL     1      41.957  -7.394  30.436  1.00  0.00     0.055 A 
HETATM   20  C15 UNL     1      43.330  -7.241  30.591  1.00  0.00     0.108 A 
ENDROOT
BRANCH  17  21
HETATM   21  C8  UNL     1      43.697  -3.598  27.651  1.00  0.00     0.099 C 
HETATM   22  C9  UNL     1      43.087  -2.184  27.630  1.00  0.00     0.026 C 
HETATM   23  C10 UNL     1      44.131  -1.232  27.145  1.00  0.00     0.002 C 
HETATM   24  C11 UNL     1      44.259  -1.443  25.633  1.00  0.00     0.000 C 
HETATM   25  C12 UNL     1      43.758  -2.814  25.256  1.00  0.00     0.002 C 
HETATM   26  C13 UNL     1      44.160  -3.875  26.231  1.00  0.00     0.026 C 
ENDBRANCH  17  21
BRANCH   1  27
HETATM   27  C2  UNL     1      45.561  -8.023  31.249  1.00  0.00     0.123 C 
HETATM   28  C1  UNL     1      46.328  -9.265  30.867  1.00  0.00     0.027 C 
ENDBRANCH   1  27
TORSDOF 2
ENDMDL
MODEL 5
REMARK VINA RESULT: -6.002307331      9.576     11.930
REMARK  2 active torsions:
REMARK  status: ('A' for Active; 'I' for Inactive)
REMARK    1  A    between atoms: C2_2  and  N1_3 
REMARK       I    between atoms: N4_13  and  C7_15 
REMARK       I    between atoms: C7_15  and  N6_19 
REMARK    2  A    between atoms: N6_19  and  C8_21 
ROOT
HETATM    1  N1  UNL     1      47.438  -0.504  39.787  1.00  0.00    -0.364 N 
HETATM    2  C3  UNL     1      48.693  -0.988  39.753  1.00  0.00     0.112 A 
HETATM    3  C4  UNL     1      49.449  -1.002  38.601  1.00  0.00     0.055 A 
HETATM    4 BR1  UNL     1      51.222  -1.699  38.604  1.00  0.00    -0.047 Br
HETATM    5  C5  UNL     1      48.928  -0.507  37.423  1.00  0.00     0.082 A 
HETATM    6  N2  UNL     1      49.387  -0.380  36.167  1.00  0.00    -0.297 N 
ATOM      7  H2  UNL     1      50.315  -0.670  35.858  1.00  0.00     0.187 HD
HETATM    8  N3  UNL     1      48.482   0.167  35.389  1.00  0.00    -0.284 N 
ATOM      9  H3  UNL     1      48.582   0.374  34.395  1.00  0.00     0.188 HD
HETATM   10  C6  UNL     1      47.379   0.409  36.165  1.00  0.00     0.149 A 
HETATM   11  N4  UNL     1      46.347   0.930  35.695  1.00  0.00    -0.175 N 
ATOM     12  H4  UNL     1      46.421   1.145  34.700  1.00  0.00     0.186 HD
HETATM   13  C7  UNL     1      45.116   1.279  36.241  1.00  0.00     0.673 C 
HETATM   14  N5  UNL     1      44.095   0.478  36.250  1.00  0.00    -0.235 N 
ATOM     15  H51 UNL     1      43.192   0.735  36.651  1.00  0.00     0.174 HD
ATOM     16  H52 UNL     1      44.202  -0.453  35.847  1.00  0.00     0.174 HD
HETATM   17  N6  UNL     1      44.966   2.580  36.803  1.00  0.00    -0.222 N 
ATOM     18  H6  UNL     1      45.806   3.157  36.865  1.00  0.00     0.178 HD
HETATM   19  C14 UNL     1      47.643  -0.009  37.444  1.00  0.00     0.055 A 
HETATM   20  C15 UNL     1      46.932  -0.023  38.639  1.00  0.00     0.108 A 
ENDROOT
BRANCH  17  21
HETATM   21  C8  UNL     1      43.746   3.150  37.288  1.00  0.00     0.099 C 
HETATM   22  C9  UNL     1      43.922   4.669  37.467  1.00  0.00     0.026 C 
HETATM   23  C10 UNL     1      42.648   5.226  38.014  1.00  0.00     0.002 C 
HETATM   24  C11 UNL     1      42.586   4.831  39.492  1.00  0.00     0.000 C 
HETATM   25  C12 UNL     1      43.462   3.630  39.746  1.00  0.00     0.002 C 
HETATM   26  C13 UNL     1      43.382   2.606  38.659  1.00  0.00     0.026 C 
ENDBRANCH  17  21
BRANCH   1  27
HETATM   27  C2  UNL     1      46.677  -0.511  41.030  1.00  0.00     0.123 C 
HETATM   28  C1  UNL     1      45.824   0.725  41.176  1.00  0.00     0.027 C 
ENDBRANCH   1  27
TORSDOF 2
ENDMDL
