MODEL 1
REMARK VINA RESULT: -7.139308900      0.000      0.000
REMARK  5 active torsions:
REMARK  status: ('A' for Active; 'I' for Inactive)
REMARK    1  A    between atoms: C3_3  and  N1_4 
REMARK       I    between atoms: N1_4  and  C4_6 
REMARK       I    between atoms: C4_6  and  N2_8 
REMARK    2  A    between atoms: N2_8  and  C5_10 
REMARK    3  A    between atoms: C5_10  and  C7_13 
REMARK    4  A    between atoms: C7_13  and  C8_14 
REMARK    5  A    between atoms: N4_23  and  C15_25 
ROOT
HETATM    1  C1  UNL     1      42.821  -2.610  32.032  1.00  0.00     0.054 C 
HETATM    2  C2  UNL     1      42.733  -2.931  30.585  1.00  0.00     0.011 A 
HETATM    3  C3  UNL     1      42.195  -4.113  30.156  1.00  0.00     0.117 A 
HETATM    4  N3  UNL     1      42.154  -4.325  28.832  1.00  0.00    -0.351 N 
ATOM      5  H3  UNL     1      41.757  -5.198  28.482  1.00  0.00     0.166 HD
HETATM    6  C12 UNL     1      42.620  -3.419  27.949  1.00  0.00     0.107 A 
HETATM    7  C13 UNL     1      43.166  -2.223  28.358  1.00  0.00     0.053 A 
HETATM    8  C14 UNL     1      43.710  -1.131  27.719  1.00  0.00     0.130 A 
HETATM    9  N4  UNL     1      43.882  -0.878  26.511  1.00  0.00    -0.371 N 
ATOM     10  H4  UNL     1      44.318   0.033  26.366  1.00  0.00     0.161 HD
HETATM   11  N5  UNL     1      44.085  -0.246  28.702  1.00  0.00    -0.284 N 
ATOM     12  H5  UNL     1      44.521   0.664  28.550  1.00  0.00     0.188 HD
HETATM   13  N6  UNL     1      43.788  -0.765  29.859  1.00  0.00    -0.298 N 
ATOM     14  H6  UNL     1      43.959  -0.317  30.759  1.00  0.00     0.187 HD
HETATM   15  C18 UNL     1      43.226  -1.969  29.700  1.00  0.00     0.073 A 
ENDROOT
BRANCH   3  16
HETATM   16  N1  UNL     1      41.762  -4.950  31.014  1.00  0.00    -0.294 N 
HETATM   17  C4  UNL     1      42.298  -6.260  31.184  1.00  0.00     0.324 C 
HETATM   18  O1  UNL     1      42.152  -7.092  30.231  1.00  0.00    -0.247 OA
HETATM   19  N2  UNL     1      42.971  -6.607  32.384  1.00  0.00    -0.307 N 
ATOM     20  H2  UNL     1      43.065  -5.903  33.116  1.00  0.00     0.167 HD
ATOM     21  H1  UNL     1      40.987  -4.666  31.614  1.00  0.00     0.172 HD
BRANCH  19  22
HETATM   22  C5  UNL     1      43.539  -7.950  32.614  1.00  0.00     0.176 C 
HETATM   23  C6  UNL     1      43.830  -8.012  34.078  1.00  0.00     0.076 C 
HETATM   24  F1  UNL     1      42.550  -8.828  32.223  1.00  0.00    -0.220 F 
BRANCH  22  25
HETATM   25  C7  UNL     1      44.771  -8.040  31.809  1.00  0.00     0.074 C 
BRANCH  25  26
HETATM   26  C8  UNL     1      45.217  -9.362  31.323  1.00  0.00    -0.047 C 
HETATM   27  C9  UNL     1      45.071 -10.534  32.218  1.00  0.00     0.014 C 
HETATM   28  C10 UNL     1      46.731  -9.226  31.056  1.00  0.00     0.014 C 
HETATM   29  C11 UNL     1      44.604  -9.659  29.955  1.00  0.00     0.014 C 
ENDBRANCH  25  26
ENDBRANCH  22  25
ENDBRANCH  19  22
ENDBRANCH   3  16
BRANCH   9  30
HETATM   30  C15 UNL     1      43.623  -1.540  25.307  1.00  0.00     0.075 C 
HETATM   31  C16 UNL     1      44.645  -2.674  25.123  1.00  0.00     0.031 C 
HETATM   32  C17 UNL     1      43.814  -0.578  24.144  1.00  0.00     0.031 C 
ENDBRANCH   9  30
TORSDOF 5
ENDMDL
MODEL 2
REMARK VINA RESULT: -7.107393776      0.825      1.007
REMARK  5 active torsions:
REMARK  status: ('A' for Active; 'I' for Inactive)
REMARK    1  A    between atoms: C3_3  and  N1_4 
REMARK       I    between atoms: N1_4  and  C4_6 
REMARK       I    between atoms: C4_6  and  N2_8 
REMARK    2  A    between atoms: N2_8  and  C5_10 
REMARK    3  A    between atoms: C5_10  and  C7_13 
REMARK    4  A    between atoms: C7_13  and  C8_14 
REMARK    5  A    between atoms: N4_23  and  C15_25 
ROOT
HETATM    1  C1  UNL     1      42.880  -2.695  31.980  1.00  0.00     0.054 C 
HETATM    2  C2  UNL     1      42.808  -3.002  30.529  1.00  0.00     0.011 A 
HETATM    3  C3  UNL     1      42.331  -4.205  30.084  1.00  0.00     0.117 A 
HETATM    4  N3  UNL     1      42.301  -4.400  28.757  1.00  0.00    -0.351 N 
ATOM      5  H3  UNL     1      41.949  -5.288  28.395  1.00  0.00     0.166 HD
HETATM    6  C12 UNL     1      42.720  -3.461  27.886  1.00  0.00     0.107 A 
HETATM    7  C13 UNL     1      43.205  -2.244  28.311  1.00  0.00     0.053 A 
HETATM    8  C14 UNL     1      43.692  -1.117  27.686  1.00  0.00     0.130 A 
HETATM    9  N4  UNL     1      43.851  -0.841  26.482  1.00  0.00    -0.371 N 
ATOM     10  H4  UNL     1      44.240   0.093  26.349  1.00  0.00     0.161 HD
HETATM   11  N5  UNL     1      44.021  -0.227  28.680  1.00  0.00    -0.284 N 
ATOM     12  H5  UNL     1      44.410   0.706  28.541  1.00  0.00     0.188 HD
HETATM   13  N6  UNL     1      43.751  -0.776  29.831  1.00  0.00    -0.298 N 
ATOM     14  H6  UNL     1      43.899  -0.332  30.737  1.00  0.00     0.187 HD
HETATM   15  C18 UNL     1      43.252  -2.005  29.656  1.00  0.00     0.073 A 
ENDROOT
BRANCH   3  16
HETATM   16  N1  UNL     1      41.941  -5.073  30.931  1.00  0.00    -0.294 N 
HETATM   17  C4  UNL     1      42.219  -6.467  30.821  1.00  0.00     0.324 C 
HETATM   18  O1  UNL     1      41.690  -7.105  29.853  1.00  0.00    -0.247 OA
HETATM   19  N2  UNL     1      43.060  -7.106  31.768  1.00  0.00    -0.307 N 
ATOM     20  H2  UNL     1      43.463  -6.549  32.522  1.00  0.00     0.167 HD
ATOM     21  H1  UNL     1      41.400  -4.752  31.734  1.00  0.00     0.172 HD
BRANCH  19  22
HETATM   22  C5  UNL     1      43.375  -8.547  31.703  1.00  0.00     0.176 C 
HETATM   23  C6  UNL     1      42.202  -9.236  32.322  1.00  0.00     0.076 C 
HETATM   24  F1  UNL     1      43.513  -8.822  30.358  1.00  0.00    -0.220 F 
BRANCH  22  25
HETATM   25  C7  UNL     1      44.606  -8.756  32.486  1.00  0.00     0.074 C 
BRANCH  25  26
HETATM   26  C8  UNL     1      45.581  -9.769  32.036  1.00  0.00    -0.047 C 
HETATM   27  C9  UNL     1      45.089 -11.124  31.692  1.00  0.00     0.014 C 
HETATM   28  C10 UNL     1      46.560  -9.968  33.213  1.00  0.00     0.014 C 
HETATM   29  C11 UNL     1      46.441  -9.212  30.902  1.00  0.00     0.014 C 
ENDBRANCH  25  26
ENDBRANCH  22  25
ENDBRANCH  19  22
ENDBRANCH   3  16
BRANCH   9  30
HETATM   30  C15 UNL     1      43.626  -1.499  25.269  1.00  0.00     0.075 C 
HETATM   31  C16 UNL     1      44.681  -2.604  25.090  1.00  0.00     0.031 C 
HETATM   32  C17 UNL     1      43.806  -0.523  24.117  1.00  0.00     0.031 C 
ENDBRANCH   9  30
TORSDOF 5
ENDMDL
MODEL 3
REMARK VINA RESULT: -6.636168135      1.117      1.608
REMARK  5 active torsions:
REMARK  status: ('A' for Active; 'I' for Inactive)
REMARK    1  A    between atoms: C3_3  and  N1_4 
REMARK       I    between atoms: N1_4  and  C4_6 
REMARK       I    between atoms: C4_6  and  N2_8 
REMARK    2  A    between atoms: N2_8  and  C5_10 
REMARK    3  A    between atoms: C5_10  and  C7_13 
REMARK    4  A    between atoms: C7_13  and  C8_14 
REMARK    5  A    between atoms: N4_23  and  C15_25 
ROOT
HETATM    1  C1  UNL     1      42.946  -3.168  31.865  1.00  0.00     0.054 C 
HETATM    2  C2  UNL     1      42.803  -3.351  30.398  1.00  0.00     0.011 A 
HETATM    3  C3  UNL     1      42.192  -4.461  29.882  1.00  0.00     0.117 A 
HETATM    4  N3  UNL     1      42.105  -4.548  28.545  1.00  0.00    -0.351 N 
ATOM      5  H3  UNL     1      41.653  -5.365  28.131  1.00  0.00     0.166 HD
HETATM    6  C12 UNL     1      42.595  -3.590  27.733  1.00  0.00     0.107 A 
HETATM    7  C13 UNL     1      43.214  -2.466  28.231  1.00  0.00     0.053 A 
HETATM    8  C14 UNL     1      43.797  -1.348  27.675  1.00  0.00     0.130 A 
HETATM    9  N4  UNL     1      43.951  -0.996  26.490  1.00  0.00    -0.371 N 
ATOM     10  H4  UNL     1      44.430  -0.099  26.414  1.00  0.00     0.161 HD
HETATM   11  N5  UNL     1      44.244  -0.576  28.721  1.00  0.00    -0.284 N 
ATOM     12  H5  UNL     1      44.723   0.320  28.638  1.00  0.00     0.188 HD
HETATM   13  N6  UNL     1      43.951  -1.184  29.836  1.00  0.00    -0.298 N 
ATOM     14  H6  UNL     1      44.169  -0.829  30.767  1.00  0.00     0.187 HD
HETATM   15  C18 UNL     1      43.323  -2.338  29.587  1.00  0.00     0.073 A 
ENDROOT
BRANCH   3  16
HETATM   16  N1  UNL     1      41.738  -5.349  30.674  1.00  0.00    -0.294 N 
HETATM   17  C4  UNL     1      42.348  -6.623  30.869  1.00  0.00     0.324 C 
HETATM   18  O1  UNL     1      42.355  -7.436  29.889  1.00  0.00    -0.247 OA
HETATM   19  N2  UNL     1      42.923  -6.956  32.123  1.00  0.00    -0.307 N 
ATOM     20  H2  UNL     1      42.895  -6.268  32.875  1.00  0.00     0.167 HD
ATOM     21  H1  UNL     1      40.890  -5.136  31.200  1.00  0.00     0.172 HD
BRANCH  19  22
HETATM   22  C5  UNL     1      43.561  -8.263  32.379  1.00  0.00     0.176 C 
HETATM   23  C6  UNL     1      42.457  -9.266  32.290  1.00  0.00     0.076 C 
HETATM   24  F1  UNL     1      44.499  -8.405  31.378  1.00  0.00    -0.220 F 
BRANCH  22  25
HETATM   25  C7  UNL     1      44.136  -8.204  33.735  1.00  0.00     0.074 C 
BRANCH  25  26
HETATM   26  C8  UNL     1      45.397  -8.920  34.013  1.00  0.00    -0.047 C 
HETATM   27  C9  UNL     1      45.464 -10.374  33.732  1.00  0.00     0.014 C 
HETATM   28  C10 UNL     1      45.641  -8.777  35.530  1.00  0.00     0.014 C 
HETATM   29  C11 UNL     1      46.574  -8.198  33.358  1.00  0.00     0.014 C 
ENDBRANCH  25  26
ENDBRANCH  22  25
ENDBRANCH  19  22
ENDBRANCH   3  16
BRANCH   9  30
HETATM   30  C15 UNL     1      43.625  -1.532  25.240  1.00  0.00     0.075 C 
HETATM   31  C16 UNL     1      44.557  -2.718  24.940  1.00  0.00     0.031 C 
HETATM   32  C17 UNL     1      43.870  -0.491  24.159  1.00  0.00     0.031 C 
ENDBRANCH   9  30
TORSDOF 5
ENDMDL
MODEL 4
REMARK VINA RESULT: -6.520950638      1.105      1.493
REMARK  5 active torsions:
REMARK  status: ('A' for Active; 'I' for Inactive)
REMARK    1  A    between atoms: C3_3  and  N1_4 
REMARK       I    between atoms: N1_4  and  C4_6 
REMARK       I    between atoms: C4_6  and  N2_8 
REMARK    2  A    between atoms: N2_8  and  C5_10 
REMARK    3  A    between atoms: C5_10  and  C7_13 
REMARK    4  A    between atoms: C7_13  and  C8_14 
REMARK    5  A    between atoms: N4_23  and  C15_25 
ROOT
HETATM    1  C1  UNL     1      42.967  -2.827  32.078  1.00  0.00     0.054 C 
HETATM    2  C2  UNL     1      42.990  -3.106  30.620  1.00  0.00     0.011 A 
HETATM    3  C3  UNL     1      42.737  -4.361  30.137  1.00  0.00     0.117 A 
HETATM    4  N3  UNL     1      42.778  -4.527  28.806  1.00  0.00    -0.351 N 
ATOM      5  H3  UNL     1      42.593  -5.453  28.417  1.00  0.00     0.166 HD
HETATM    6  C12 UNL     1      43.056  -3.509  27.967  1.00  0.00     0.107 A 
HETATM    7  C13 UNL     1      43.314  -2.239  28.431  1.00  0.00     0.053 A 
HETATM    8  C14 UNL     1      43.620  -1.031  27.842  1.00  0.00     0.130 A 
HETATM    9  N4  UNL     1      43.764  -0.703  26.650  1.00  0.00    -0.371 N 
ATOM     10  H4  UNL     1      43.992   0.286  26.546  1.00  0.00     0.161 HD
HETATM   11  N5  UNL     1      43.765  -0.122  28.863  1.00  0.00    -0.284 N 
ATOM     12  H5  UNL     1      43.993   0.866  28.754  1.00  0.00     0.188 HD
HETATM   13  N6  UNL     1      43.560  -0.736  29.994  1.00  0.00    -0.298 N 
ATOM     14  H6  UNL     1      43.605  -0.295  30.913  1.00  0.00     0.187 HD
HETATM   15  C18 UNL     1      43.282  -2.027  29.780  1.00  0.00     0.073 A 
ENDROOT
BRANCH   3  16
HETATM   16  N1  UNL     1      42.477  -5.303  30.955  1.00  0.00    -0.294 N 
HETATM   17  C4  UNL     1      43.309  -6.446  31.137  1.00  0.00     0.324 C 
HETATM   18  O1  UNL     1      43.425  -7.260  30.164  1.00  0.00    -0.247 OA
HETATM   19  N2  UNL     1      43.979  -6.653  32.371  1.00  0.00    -0.307 N 
ATOM     20  H2  UNL     1      43.857  -5.969  33.118  1.00  0.00     0.167 HD
ATOM     21  H1  UNL     1      41.624  -5.235  31.511  1.00  0.00     0.172 HD
BRANCH  19  22
HETATM   22  C5  UNL     1      44.847  -7.822  32.614  1.00  0.00     0.176 C 
HETATM   23  C6  UNL     1      46.176  -7.455  32.037  1.00  0.00     0.076 C 
HETATM   24  F1  UNL     1      44.876  -7.967  33.985  1.00  0.00    -0.220 F 
BRANCH  22  25
HETATM   25  C7  UNL     1      44.241  -8.964  31.904  1.00  0.00     0.074 C 
BRANCH  25  26
HETATM   26  C8  UNL     1      44.503 -10.333  32.391  1.00  0.00    -0.047 C 
HETATM   27  C9  UNL     1      45.891 -10.704  32.754  1.00  0.00     0.014 C 
HETATM   28  C10 UNL     1      44.108 -11.277  31.235  1.00  0.00     0.014 C 
HETATM   29  C11 UNL     1      43.545 -10.685  33.528  1.00  0.00     0.014 C 
ENDBRANCH  25  26
ENDBRANCH  22  25
ENDBRANCH  19  22
ENDBRANCH   3  16
BRANCH   9  30
HETATM   30  C15 UNL     1      43.688  -1.361  25.418  1.00  0.00     0.075 C 
HETATM   31  C16 UNL     1      44.878  -2.328  25.288  1.00  0.00     0.031 C 
HETATM   32  C17 UNL     1      43.814  -0.349  24.290  1.00  0.00     0.031 C 
ENDBRANCH   9  30
TORSDOF 5
ENDMDL
MODEL 5
REMARK VINA RESULT: -6.504394940      4.367      7.712
REMARK  5 active torsions:
REMARK  status: ('A' for Active; 'I' for Inactive)
REMARK    1  A    between atoms: C3_3  and  N1_4 
REMARK       I    between atoms: N1_4  and  C4_6 
REMARK       I    between atoms: C4_6  and  N2_8 
REMARK    2  A    between atoms: N2_8  and  C5_10 
REMARK    3  A    between atoms: C5_10  and  C7_13 
REMARK    4  A    between atoms: C7_13  and  C8_14 
REMARK    5  A    between atoms: N4_23  and  C15_25 
ROOT
HETATM    1  C1  UNL     1      43.715  -1.011  28.653  1.00  0.00     0.054 C 
HETATM    2  C2  UNL     1      43.340  -2.042  29.653  1.00  0.00     0.011 A 
HETATM    3  C3  UNL     1      43.321  -1.755  30.990  1.00  0.00     0.117 A 
HETATM    4  N3  UNL     1      42.971  -2.744  31.827  1.00  0.00    -0.351 N 
ATOM      5  H3  UNL     1      42.948  -2.559  32.830  1.00  0.00     0.166 HD
HETATM    6  C12 UNL     1      42.648  -3.975  31.382  1.00  0.00     0.107 A 
HETATM    7  C13 UNL     1      42.661  -4.287  30.041  1.00  0.00     0.053 A 
HETATM    8  C14 UNL     1      42.391  -5.417  29.301  1.00  0.00     0.130 A 
HETATM    9  N4  UNL     1      42.033  -6.562  29.637  1.00  0.00    -0.371 N 
ATOM     10  H4  UNL     1      41.916  -7.180  28.835  1.00  0.00     0.161 HD
HETATM   11  N5  UNL     1      42.589  -5.081  27.983  1.00  0.00    -0.284 N 
ATOM     12  H5  UNL     1      42.470  -5.704  27.184  1.00  0.00     0.188 HD
HETATM   13  N6  UNL     1      42.954  -3.831  27.926  1.00  0.00    -0.298 N 
ATOM     14  H6  UNL     1      43.167  -3.325  27.067  1.00  0.00     0.187 HD
HETATM   15  C18 UNL     1      43.012  -3.306  29.156  1.00  0.00     0.073 A 
ENDROOT
BRANCH   3  16
HETATM   16  N1  UNL     1      43.630  -0.582  31.381  1.00  0.00    -0.294 N 
HETATM   17  C4  UNL     1      43.467  -0.125  32.721  1.00  0.00     0.324 C 
HETATM   18  O1  UNL     1      42.281  -0.013  33.173  1.00  0.00    -0.247 OA
HETATM   19  N2  UNL     1      44.603   0.190  33.513  1.00  0.00    -0.307 N 
ATOM     20  H2  UNL     1      45.531   0.079  33.105  1.00  0.00     0.167 HD
ATOM     21  H1  UNL     1      44.017   0.067  30.695  1.00  0.00     0.172 HD
BRANCH  19  22
HETATM   22  C5  UNL     1      44.489   0.672  34.903  1.00  0.00     0.176 C 
HETATM   23  C6  UNL     1      44.068   2.102  34.793  1.00  0.00     0.076 C 
HETATM   24  F1  UNL     1      43.528  -0.130  35.483  1.00  0.00    -0.220 F 
BRANCH  22  25
HETATM   25  C7  UNL     1      45.825   0.543  35.515  1.00  0.00     0.074 C 
BRANCH  25  26
HETATM   26  C8  UNL     1      45.968   0.727  36.973  1.00  0.00    -0.047 C 
HETATM   27  C9  UNL     1      45.596   2.035  37.563  1.00  0.00     0.014 C 
HETATM   28  C10 UNL     1      47.470   0.545  37.277  1.00  0.00     0.014 C 
HETATM   29  C11 UNL     1      45.276  -0.410  37.723  1.00  0.00     0.014 C 
ENDBRANCH  25  26
ENDBRANCH  22  25
ENDBRANCH  19  22
ENDBRANCH   3  16
BRANCH   9  30
HETATM   30  C15 UNL     1      41.755  -7.205  30.847  1.00  0.00     0.075 C 
HETATM   31  C16 UNL     1      43.029  -7.899  31.356  1.00  0.00     0.031 C 
HETATM   32  C17 UNL     1      40.717  -8.293  30.621  1.00  0.00     0.031 C 
ENDBRANCH   9  30
TORSDOF 5
ENDMDL
