MODEL 1
REMARK VINA RESULT: -8.310172686      0.000      0.000
REMARK  3 active torsions:
REMARK  status: ('A' for Active; 'I' for Inactive)
REMARK    1  A    between atoms: C2_2  and  N1_3 
REMARK       I    between atoms: N1_3  and  C3_5 
REMARK       I    between atoms: C3_5  and  N2_7 
REMARK    2  A    between atoms: N2_7  and  C4_9 
REMARK    3  A    between atoms: C4_9  and  C5_10 
ROOT
HETATM    1  C5  UNL     1      42.278  -4.352  29.599  1.00  0.00     0.087 C 
HETATM    2  C6  UNL     1      42.848  -4.105  28.267  1.00  0.00    -0.100 C 
HETATM    3  C7  UNL     1      43.289  -3.864  27.306  1.00  0.00    -0.106 C 
HETATM    4  C8  UNL     1      43.859  -3.492  26.110  1.00  0.00     0.094 C 
HETATM    5  C9  UNL     1      44.485  -2.132  25.997  1.00  0.00     0.014 C 
HETATM    6  C10 UNL     1      43.934  -0.977  26.715  1.00  0.00     0.020 C 
HETATM    7  C11 UNL     1      44.483  -0.524  27.994  1.00  0.00     0.114 C 
HETATM    8  N3  UNL     1      43.535  -0.152  29.058  1.00  0.00    -0.417 N 
ATOM      9  H3  UNL     1      43.053   0.745  29.120  1.00  0.00     0.153 HD
HETATM   10  C12 UNL     1      43.392  -1.163  29.937  1.00  0.00     0.081 C 
HETATM   11  C13 UNL     1      43.164  -1.204  31.390  1.00  0.00     0.030 C 
HETATM   12  C14 UNL     1      42.678  -2.678  31.649  1.00  0.00    -0.002 C 
HETATM   13  C15 UNL     1      41.335  -2.800  32.138  1.00  0.00    -0.003 C 
HETATM   14  C16 UNL     1      40.921  -2.681  33.524  1.00  0.00     0.042 C 
HETATM   15  C17 UNL     1      39.396  -2.527  33.356  1.00  0.00     0.171 C 
HETATM   16  F1  UNL     1      38.934  -1.437  34.035  1.00  0.00    -0.249 F 
HETATM   17  C18 UNL     1      39.173  -2.239  31.858  1.00  0.00     0.042 C 
HETATM   18  C19 UNL     1      40.549  -1.623  31.546  1.00  0.00    -0.007 C 
HETATM   19  C20 UNL     1      40.923  -1.458  30.175  1.00  0.00     0.012 C 
HETATM   20  C21 UNL     1      42.167  -2.008  29.587  1.00  0.00     0.014 C 
HETATM   21  C22 UNL     1      42.769  -3.221  30.324  1.00  0.00     0.013 C 
ENDROOT
BRANCH   1  22
HETATM   22  C4  UNL     1      42.621  -5.728  30.053  1.00  0.00     0.142 C 
BRANCH  22  23
HETATM   23  N2  UNL     1      43.831  -5.746  30.847  1.00  0.00    -0.342 N 
HETATM   24  C3  UNL     1      44.442  -6.993  31.140  1.00  0.00     0.316 C 
HETATM   25  N1  UNL     1      45.632  -6.977  31.922  1.00  0.00    -0.344 N 
HETATM   26  O1  UNL     1      43.946  -8.066  30.720  1.00  0.00    -0.247 OA
ATOM     27  H1  UNL     1      46.014  -6.089  32.250  1.00  0.00     0.164 HD
ATOM     28  H2  UNL     1      44.238  -4.876  31.190  1.00  0.00     0.164 HD
BRANCH  25  29
HETATM   29  C2  UNL     1      46.300  -8.214  32.254  1.00  0.00     0.120 C 
HETATM   30  C1  UNL     1      46.367  -8.418  33.762  1.00  0.00     0.026 C 
ENDBRANCH  25  29
ENDBRANCH  22  23
ENDBRANCH   1  22
TORSDOF 3
ENDMDL
MODEL 2
REMARK VINA RESULT: -7.704993359      1.359      1.464
REMARK  3 active torsions:
REMARK  status: ('A' for Active; 'I' for Inactive)
REMARK    1  A    between atoms: C2_2  and  N1_3 
REMARK       I    between atoms: N1_3  and  C3_5 
REMARK       I    between atoms: C3_5  and  N2_7 
REMARK    2  A    between atoms: N2_7  and  C4_9 
REMARK    3  A    between atoms: C4_9  and  C5_10 
ROOT
HETATM    1  C5  UNL     1      42.226  -4.465  29.209  1.00  0.00     0.087 C 
HETATM    2  C6  UNL     1      42.828  -4.098  27.920  1.00  0.00    -0.100 C 
HETATM    3  C7  UNL     1      43.293  -3.771  26.996  1.00  0.00    -0.106 C 
HETATM    4  C8  UNL     1      43.894  -3.293  25.854  1.00  0.00     0.094 C 
HETATM    5  C9  UNL     1      44.548  -1.942  25.890  1.00  0.00     0.014 C 
HETATM    6  C10 UNL     1      44.003  -0.854  26.709  1.00  0.00     0.020 C 
HETATM    7  C11 UNL     1      44.534  -0.541  28.037  1.00  0.00     0.114 C 
HETATM    8  N3  UNL     1      43.570  -0.258  29.115  1.00  0.00    -0.417 N 
ATOM      9  H3  UNL     1      43.104   0.638  29.257  1.00  0.00     0.153 HD
HETATM   10  C12 UNL     1      43.391  -1.348  29.886  1.00  0.00     0.081 C 
HETATM   11  C13 UNL     1      43.132  -1.529  31.322  1.00  0.00     0.030 C 
HETATM   12  C14 UNL     1      42.614  -3.011  31.423  1.00  0.00    -0.002 C 
HETATM   13  C15 UNL     1      41.259  -3.155  31.872  1.00  0.00    -0.003 C 
HETATM   14  C16 UNL     1      40.819  -3.166  33.256  1.00  0.00     0.042 C 
HETATM   15  C17 UNL     1      39.300  -2.965  33.075  1.00  0.00     0.171 C 
HETATM   16  F1  UNL     1      38.845  -1.939  33.851  1.00  0.00    -0.249 F 
HETATM   17  C18 UNL     1      39.114  -2.525  31.610  1.00  0.00     0.042 C 
HETATM   18  C19 UNL     1      40.507  -1.909  31.387  1.00  0.00    -0.007 C 
HETATM   19  C20 UNL     1      40.913  -1.616  30.046  1.00  0.00     0.012 C 
HETATM   20  C21 UNL     1      42.158  -2.130  29.430  1.00  0.00     0.014 C 
HETATM   21  C22 UNL     1      42.722  -3.422  30.053  1.00  0.00     0.013 C 
ENDROOT
BRANCH   1  22
HETATM   22  C4  UNL     1      42.535  -5.886  29.530  1.00  0.00     0.142 C 
BRANCH  22  23
HETATM   23  N2  UNL     1      43.337  -6.005  30.729  1.00  0.00    -0.342 N 
HETATM   24  C3  UNL     1      42.757  -6.581  31.889  1.00  0.00     0.316 C 
HETATM   25  N1  UNL     1      43.573  -6.685  33.052  1.00  0.00    -0.344 N 
HETATM   26  O1  UNL     1      41.569  -6.983  31.881  1.00  0.00    -0.247 OA
ATOM     27  H1  UNL     1      44.536  -6.350  33.029  1.00  0.00     0.164 HD
ATOM     28  H2  UNL     1      44.303  -5.679  30.739  1.00  0.00     0.164 HD
BRANCH  25  29
HETATM   29  C2  UNL     1      43.040  -7.262  34.264  1.00  0.00     0.120 C 
HETATM   30  C1  UNL     1      42.524  -6.184  35.208  1.00  0.00     0.026 C 
ENDBRANCH  25  29
ENDBRANCH  22  23
ENDBRANCH   1  22
TORSDOF 3
ENDMDL
MODEL 3
REMARK VINA RESULT: -7.666318113      1.927      2.197
REMARK  3 active torsions:
REMARK  status: ('A' for Active; 'I' for Inactive)
REMARK    1  A    between atoms: C2_2  and  N1_3 
REMARK       I    between atoms: N1_3  and  C3_5 
REMARK       I    between atoms: C3_5  and  N2_7 
REMARK    2  A    between atoms: N2_7  and  C4_9 
REMARK    3  A    between atoms: C4_9  and  C5_10 
ROOT
HETATM    1  C5  UNL     1      42.284  -4.426  29.062  1.00  0.00     0.087 C 
HETATM    2  C6  UNL     1      42.918  -4.050  27.791  1.00  0.00    -0.100 C 
HETATM    3  C7  UNL     1      43.405  -3.717  26.880  1.00  0.00    -0.106 C 
HETATM    4  C8  UNL     1      44.033  -3.231  25.756  1.00  0.00     0.094 C 
HETATM    5  C9  UNL     1      44.673  -1.874  25.813  1.00  0.00     0.014 C 
HETATM    6  C10 UNL     1      44.097  -0.793  26.619  1.00  0.00     0.020 C 
HETATM    7  C11 UNL     1      44.588  -0.479  27.962  1.00  0.00     0.114 C 
HETATM    8  N3  UNL     1      43.592  -0.207  29.013  1.00  0.00    -0.417 N 
ATOM      9  H3  UNL     1      43.115   0.685  29.145  1.00  0.00     0.153 HD
HETATM   10  C12 UNL     1      43.402  -1.300  29.777  1.00  0.00     0.081 C 
HETATM   11  C13 UNL     1      43.105  -1.487  31.205  1.00  0.00     0.030 C 
HETATM   12  C14 UNL     1      42.598  -2.974  31.289  1.00  0.00    -0.002 C 
HETATM   13  C15 UNL     1      41.233  -3.131  31.700  1.00  0.00    -0.003 C 
HETATM   14  C16 UNL     1      40.755  -3.149  33.071  1.00  0.00     0.042 C 
HETATM   15  C17 UNL     1      39.240  -2.962  32.849  1.00  0.00     0.171 C 
HETATM   16  F1  UNL     1      38.754  -1.942  33.614  1.00  0.00    -0.249 F 
HETATM   17  C18 UNL     1      39.090  -2.519  31.380  1.00  0.00     0.042 C 
HETATM   18  C19 UNL     1      40.483  -1.891  31.197  1.00  0.00    -0.007 C 
HETATM   19  C20 UNL     1      40.923  -1.590  29.868  1.00  0.00     0.012 C 
HETATM   20  C21 UNL     1      42.190  -2.092  29.286  1.00  0.00     0.014 C 
HETATM   21  C22 UNL     1      42.748  -3.380  29.921  1.00  0.00     0.013 C 
ENDROOT
BRANCH   1  22
HETATM   22  C4  UNL     1      42.597  -5.845  29.388  1.00  0.00     0.142 C 
BRANCH  22  23
HETATM   23  N2  UNL     1      41.510  -6.486  30.098  1.00  0.00    -0.342 N 
HETATM   24  C3  UNL     1      41.651  -6.737  31.487  1.00  0.00     0.316 C 
HETATM   25  N1  UNL     1      40.564  -7.368  32.157  1.00  0.00    -0.344 N 
HETATM   26  O1  UNL     1      42.698  -6.410  32.096  1.00  0.00    -0.247 OA
ATOM     27  H1  UNL     1      39.724  -7.622  31.636  1.00  0.00     0.164 HD
ATOM     28  H2  UNL     1      40.657  -6.753  29.606  1.00  0.00     0.164 HD
BRANCH  25  29
HETATM   29  C2  UNL     1      40.647  -7.650  33.571  1.00  0.00     0.120 C 
HETATM   30  C1  UNL     1      39.935  -6.581  34.389  1.00  0.00     0.026 C 
ENDBRANCH  25  29
ENDBRANCH  22  23
ENDBRANCH   1  22
TORSDOF 3
ENDMDL
MODEL 4
REMARK VINA RESULT: -7.545269454      1.983      2.856
REMARK  3 active torsions:
REMARK  status: ('A' for Active; 'I' for Inactive)
REMARK    1  A    between atoms: C2_2  and  N1_3 
REMARK       I    between atoms: N1_3  and  C3_5 
REMARK       I    between atoms: C3_5  and  N2_7 
REMARK    2  A    between atoms: N2_7  and  C4_9 
REMARK    3  A    between atoms: C4_9  and  C5_10 
ROOT
HETATM    1  C5  UNL     1      42.285  -4.425  29.432  1.00  0.00     0.087 C 
HETATM    2  C6  UNL     1      42.826  -4.122  28.099  1.00  0.00    -0.100 C 
HETATM    3  C7  UNL     1      43.247  -3.842  27.140  1.00  0.00    -0.106 C 
HETATM    4  C8  UNL     1      43.794  -3.421  25.949  1.00  0.00     0.094 C 
HETATM    5  C9  UNL     1      44.443  -2.069  25.887  1.00  0.00     0.014 C 
HETATM    6  C10 UNL     1      43.933  -0.941  26.674  1.00  0.00     0.020 C 
HETATM    7  C11 UNL     1      44.522  -0.562  27.959  1.00  0.00     0.114 C 
HETATM    8  N3  UNL     1      43.608  -0.226  29.064  1.00  0.00    -0.417 N 
ATOM      9  H3  UNL     1      43.145   0.675  29.183  1.00  0.00     0.153 HD
HETATM   10  C12 UNL     1      43.468  -1.276  29.897  1.00  0.00     0.081 C 
HETATM   11  C13 UNL     1      43.276  -1.385  31.351  1.00  0.00     0.030 C 
HETATM   12  C14 UNL     1      42.768  -2.861  31.550  1.00  0.00    -0.002 C 
HETATM   13  C15 UNL     1      41.436  -2.984  32.067  1.00  0.00    -0.003 C 
HETATM   14  C16 UNL     1      41.060  -2.925  33.469  1.00  0.00     0.042 C 
HETATM   15  C17 UNL     1      39.534  -2.737  33.347  1.00  0.00     0.171 C 
HETATM   16  F1  UNL     1      39.111  -1.674  34.091  1.00  0.00    -0.249 F 
HETATM   17  C18 UNL     1      39.279  -2.371  31.872  1.00  0.00     0.042 C 
HETATM   18  C19 UNL     1      40.658  -1.765  31.555  1.00  0.00    -0.007 C 
HETATM   19  C20 UNL     1      41.001  -1.539  30.184  1.00  0.00     0.012 C 
HETATM   20  C21 UNL     1      42.219  -2.082  29.538  1.00  0.00     0.014 C 
HETATM   21  C22 UNL     1      42.816  -3.340  30.198  1.00  0.00     0.013 C 
ENDROOT
BRANCH   1  22
HETATM   22  C4  UNL     1      42.614  -5.828  29.809  1.00  0.00     0.142 C 
BRANCH  22  23
HETATM   23  N2  UNL     1      41.788  -6.298  30.901  1.00  0.00    -0.342 N 
HETATM   24  C3  UNL     1      40.573  -6.968  30.604  1.00  0.00     0.316 C 
HETATM   25  N1  UNL     1      39.784  -7.419  31.700  1.00  0.00    -0.344 N 
HETATM   26  O1  UNL     1      40.215  -7.150  29.415  1.00  0.00    -0.247 OA
ATOM     27  H1  UNL     1      40.100  -7.257  32.656  1.00  0.00     0.164 HD
ATOM     28  H2  UNL     1      42.076  -6.152  31.868  1.00  0.00     0.164 HD
BRANCH  25  29
HETATM   29  C2  UNL     1      38.536  -8.107  31.461  1.00  0.00     0.120 C 
HETATM   30  C1  UNL     1      37.360  -7.139  31.483  1.00  0.00     0.026 C 
ENDBRANCH  25  29
ENDBRANCH  22  23
ENDBRANCH   1  22
TORSDOF 3
ENDMDL
MODEL 5
REMARK VINA RESULT: -7.438702091      1.821      2.226
REMARK  3 active torsions:
REMARK  status: ('A' for Active; 'I' for Inactive)
REMARK    1  A    between atoms: C2_2  and  N1_3 
REMARK       I    between atoms: N1_3  and  C3_5 
REMARK       I    between atoms: C3_5  and  N2_7 
REMARK    2  A    between atoms: N2_7  and  C4_9 
REMARK    3  A    between atoms: C4_9  and  C5_10 
ROOT
HETATM    1  C5  UNL     1      42.398  -4.461  29.462  1.00  0.00     0.087 C 
HETATM    2  C6  UNL     1      42.944  -4.142  28.136  1.00  0.00    -0.100 C 
HETATM    3  C7  UNL     1      43.366  -3.848  27.181  1.00  0.00    -0.106 C 
HETATM    4  C8  UNL     1      43.911  -3.410  25.995  1.00  0.00     0.094 C 
HETATM    5  C9  UNL     1      44.507  -2.033  25.937  1.00  0.00     0.014 C 
HETATM    6  C10 UNL     1      43.943  -0.924  26.713  1.00  0.00     0.020 C 
HETATM    7  C11 UNL     1      44.500  -0.518  28.004  1.00  0.00     0.114 C 
HETATM    8  N3  UNL     1      43.559  -0.214  29.096  1.00  0.00    -0.417 N 
ATOM      9  H3  UNL     1      43.060   0.668  29.206  1.00  0.00     0.153 HD
HETATM   10  C12 UNL     1      43.450  -1.267  29.931  1.00  0.00     0.081 C 
HETATM   11  C13 UNL     1      43.244  -1.379  31.383  1.00  0.00     0.030 C 
HETATM   12  C14 UNL     1      42.792  -2.873  31.581  1.00  0.00    -0.002 C 
HETATM   13  C15 UNL     1      41.459  -3.046  32.081  1.00  0.00    -0.003 C 
HETATM   14  C16 UNL     1      41.063  -2.998  33.478  1.00  0.00     0.042 C 
HETATM   15  C17 UNL     1      39.532  -2.871  33.336  1.00  0.00     0.171 C 
HETATM   16  F1  UNL     1      39.058  -1.823  34.070  1.00  0.00    -0.249 F 
HETATM   17  C18 UNL     1      39.282  -2.519  31.856  1.00  0.00     0.042 C 
HETATM   18  C19 UNL     1      40.640  -1.861  31.555  1.00  0.00    -0.007 C 
HETATM   19  C20 UNL     1      40.992  -1.626  30.187  1.00  0.00     0.012 C 
HETATM   20  C21 UNL     1      42.239  -2.122  29.559  1.00  0.00     0.014 C 
HETATM   21  C22 UNL     1      42.876  -3.354  30.232  1.00  0.00     0.013 C 
ENDROOT
BRANCH   1  22
HETATM   22  C4  UNL     1      42.777  -5.849  29.849  1.00  0.00     0.142 C 
BRANCH  22  23
HETATM   23  N2  UNL     1      41.615  -6.667  30.122  1.00  0.00    -0.342 N 
HETATM   24  C3  UNL     1      41.805  -7.995  30.587  1.00  0.00     0.316 C 
HETATM   25  N1  UNL     1      40.641  -8.775  30.846  1.00  0.00    -0.344 N 
HETATM   26  O1  UNL     1      42.958  -8.456  30.760  1.00  0.00    -0.247 OA
ATOM     27  H1  UNL     1      39.716  -8.373  30.697  1.00  0.00     0.164 HD
ATOM     28  H2  UNL     1      40.676  -6.296  29.982  1.00  0.00     0.164 HD
BRANCH  25  29
HETATM   29  C2  UNL     1      40.769 -10.133  31.321  1.00  0.00     0.120 C 
HETATM   30  C1  UNL     1      40.682 -11.129  30.171  1.00  0.00     0.026 C 
ENDBRANCH  25  29
ENDBRANCH  22  23
ENDBRANCH   1  22
TORSDOF 3
ENDMDL
