MODEL 1
REMARK VINA RESULT: -6.967072243      0.000      0.000
REMARK  2 active torsions:
REMARK  status: ('A' for Active; 'I' for Inactive)
REMARK       I    between atoms: N1_2  and  C2_4 
REMARK       I    between atoms: C2_4  and  N3_8 
REMARK       I    between atoms: C3_10  and  N4_11 
REMARK       I    between atoms: C3_10  and  N5_20 
REMARK    1  A    between atoms: N4_11  and  C4_13 
REMARK    2  A    between atoms: N5_20  and  C10_22 
ROOT
HETATM    1  C1  UNL     1      39.970  -1.603  31.383  1.00  0.00     0.165 C 
HETATM    2  N1  UNL     1      41.057  -2.460  30.893  1.00  0.00    -0.230 N 
ATOM      3  H1  UNL     1      42.016  -2.259  31.176  1.00  0.00     0.177 HD
HETATM    4  C2  UNL     1      40.803  -3.562  30.035  1.00  0.00     0.685 C 
HETATM    5  N2  UNL     1      39.845  -3.394  29.165  1.00  0.00    -0.234 N 
ATOM      6  H21 UNL     1      39.663  -4.186  28.549  1.00  0.00     0.174 HD
ATOM      7  H22 UNL     1      39.307  -2.531  29.085  1.00  0.00     0.174 HD
HETATM    8  N3  UNL     1      41.536  -4.738  30.145  1.00  0.00    -0.023 N 
ATOM      9  H3  UNL     1      41.017  -5.510  30.565  1.00  0.00     0.203 HD
HETATM   10  C3  UNL     1      42.714  -5.032  29.825  1.00  0.00     0.689 C 
HETATM   11  N4  UNL     1      43.590  -4.096  29.233  1.00  0.00    -0.221 N 
ATOM     12  H4  UNL     1      44.515  -3.989  29.653  1.00  0.00     0.178 HD
HETATM   13  N5  UNL     1      43.199  -6.353  30.060  1.00  0.00    -0.216 N 
ATOM     14  H5  UNL     1      43.633  -6.832  29.270  1.00  0.00     0.178 HD
ENDROOT
BRANCH  11  15
HETATM   15  C4  UNL     1      43.284  -3.278  28.080  1.00  0.00     0.102 C 
HETATM   16  C5  UNL     1      43.617  -4.006  26.810  1.00  0.00     0.026 C 
HETATM   17  C6  UNL     1      44.402  -3.246  25.808  1.00  0.00     0.005 C 
HETATM   18  C7  UNL     1      44.039  -1.800  25.662  1.00  0.00     0.037 C 
HETATM   19  C8  UNL     1      43.635  -1.154  26.960  1.00  0.00     0.172 C 
HETATM   20  F1  UNL     1      44.028   0.156  27.049  1.00  0.00    -0.249 F 
HETATM   21  C9  UNL     1      44.179  -2.020  28.080  1.00  0.00     0.062 C 
ENDBRANCH  11  15
BRANCH  13  22
HETATM   22  C10 UNL     1      43.136  -7.071  31.294  1.00  0.00     0.055 C 
HETATM   23  C11 UNL     1      41.876  -7.951  31.206  1.00  0.00     0.037 C 
HETATM   24  C12 UNL     1      41.694  -8.830  32.394  1.00  0.00    -0.012 C 
HETATM   25  C13 UNL     1      41.555  -7.949  33.616  1.00  0.00     0.009 C 
HETATM   26  C17 UNL     1      42.852  -9.765  32.544  1.00  0.00     0.010 C 
HETATM   27  C14 UNL     1      42.811  -7.112  33.731  1.00  0.00    -0.012 C 
HETATM   28  C15 UNL     1      43.967  -8.059  33.878  1.00  0.00     0.010 C 
HETATM   29  C21 UNL     1      42.938  -6.221  32.518  1.00  0.00     0.037 C 
HETATM   30  C16 UNL     1      44.096  -8.936  32.653  1.00  0.00    -0.004 C 
HETATM   31  C18 UNL     1      44.299  -8.035  31.459  1.00  0.00    -0.018 C 
HETATM   32  C19 UNL     1      45.613  -7.324  31.698  1.00  0.00     0.018 C 
HETATM   33  C20 UNL     1      44.441  -8.833  30.179  1.00  0.00     0.018 C 
ENDBRANCH  13  22
TORSDOF 2
ENDMDL
MODEL 2
REMARK VINA RESULT: -6.475746002      0.698      1.510
REMARK  2 active torsions:
REMARK  status: ('A' for Active; 'I' for Inactive)
REMARK       I    between atoms: N1_2  and  C2_4 
REMARK       I    between atoms: C2_4  and  N3_8 
REMARK       I    between atoms: C3_10  and  N4_11 
REMARK       I    between atoms: C3_10  and  N5_20 
REMARK    1  A    between atoms: N4_11  and  C4_13 
REMARK    2  A    between atoms: N5_20  and  C10_22 
ROOT
HETATM    1  C1  UNL     1      39.526  -2.114  31.495  1.00  0.00     0.165 C 
HETATM    2  N1  UNL     1      40.673  -2.871  30.978  1.00  0.00    -0.230 N 
ATOM      3  H1  UNL     1      41.597  -2.711  31.379  1.00  0.00     0.177 HD
HETATM    4  C2  UNL     1      40.524  -3.821  29.934  1.00  0.00     0.685 C 
HETATM    5  N2  UNL     1      39.646  -3.521  29.016  1.00  0.00    -0.234 N 
ATOM      6  H21 UNL     1      39.540  -4.203  28.265  1.00  0.00     0.174 HD
ATOM      7  H22 UNL     1      39.098  -2.661  29.025  1.00  0.00     0.174 HD
HETATM    8  N3  UNL     1      41.271  -4.994  29.921  1.00  0.00    -0.023 N 
ATOM      9  H3  UNL     1      40.734  -5.827  30.161  1.00  0.00     0.203 HD
HETATM   10  C3  UNL     1      42.480  -5.222  29.671  1.00  0.00     0.689 C 
HETATM   11  N4  UNL     1      43.385  -4.196  29.323  1.00  0.00    -0.221 N 
ATOM     12  H4  UNL     1      44.264  -4.151  29.839  1.00  0.00     0.178 HD
HETATM   13  N5  UNL     1      42.972  -6.560  29.734  1.00  0.00    -0.216 N 
ATOM     14  H5  UNL     1      43.487  -6.900  28.923  1.00  0.00     0.178 HD
ENDROOT
BRANCH  11  15
HETATM   15  C4  UNL     1      43.167  -3.203  28.293  1.00  0.00     0.102 C 
HETATM   16  C5  UNL     1      43.531  -3.752  26.943  1.00  0.00     0.026 C 
HETATM   17  C6  UNL     1      44.393  -2.890  26.099  1.00  0.00     0.005 C 
HETATM   18  C7  UNL     1      44.095  -1.422  26.156  1.00  0.00     0.037 C 
HETATM   19  C8  UNL     1      43.656  -0.956  27.518  1.00  0.00     0.172 C 
HETATM   20  F1  UNL     1      44.097   0.306  27.817  1.00  0.00    -0.249 F 
HETATM   21  C9  UNL     1      44.111  -2.002  28.517  1.00  0.00     0.062 C 
ENDBRANCH  11  15
BRANCH  13  22
HETATM   22  C10 UNL     1      42.812  -7.470  30.825  1.00  0.00     0.055 C 
HETATM   23  C11 UNL     1      43.470  -8.786  30.376  1.00  0.00     0.037 C 
HETATM   24  C12 UNL     1      43.457  -9.836  31.432  1.00  0.00    -0.012 C 
HETATM   25  C13 UNL     1      42.015 -10.137  31.780  1.00  0.00     0.009 C 
HETATM   26  C17 UNL     1      44.209  -9.379  32.642  1.00  0.00     0.010 C 
HETATM   27  C14 UNL     1      41.375  -8.853  32.263  1.00  0.00    -0.012 C 
HETATM   28  C15 UNL     1      42.140  -8.403  33.475  1.00  0.00     0.010 C 
HETATM   29  C21 UNL     1      41.390  -7.831  31.151  1.00  0.00     0.037 C 
HETATM   30  C16 UNL     1      43.579  -8.106  33.117  1.00  0.00    -0.004 C 
HETATM   31  C18 UNL     1      43.579  -7.027  32.060  1.00  0.00    -0.018 C 
HETATM   32  C19 UNL     1      42.972  -5.807  32.716  1.00  0.00     0.018 C 
HETATM   33  C20 UNL     1      44.989  -6.664  31.639  1.00  0.00     0.018 C 
ENDBRANCH  13  22
TORSDOF 2
ENDMDL
MODEL 3
REMARK VINA RESULT: -6.309910990      8.873     10.900
REMARK  2 active torsions:
REMARK  status: ('A' for Active; 'I' for Inactive)
REMARK       I    between atoms: N1_2  and  C2_4 
REMARK       I    between atoms: C2_4  and  N3_8 
REMARK       I    between atoms: C3_10  and  N4_11 
REMARK       I    between atoms: C3_10  and  N5_20 
REMARK    1  A    between atoms: N4_11  and  C4_13 
REMARK    2  A    between atoms: N5_20  and  C10_22 
ROOT
HETATM    1  C1  UNL     1      43.071  -0.387  33.533  1.00  0.00     0.165 C 
HETATM    2  N1  UNL     1      43.542   0.037  34.858  1.00  0.00    -0.230 N 
ATOM      3  H1  UNL     1      43.140  -0.394  35.691  1.00  0.00     0.177 HD
HETATM    4  C2  UNL     1      44.543   1.032  35.005  1.00  0.00     0.685 C 
HETATM    5  N2  UNL     1      44.510   2.003  34.133  1.00  0.00    -0.234 N 
ATOM      6  H21 UNL     1      45.230   2.718  34.239  1.00  0.00     0.174 HD
ATOM      7  H22 UNL     1      43.814   2.065  33.391  1.00  0.00     0.174 HD
HETATM    8  N3  UNL     1      45.493   0.947  36.016  1.00  0.00    -0.023 N 
ATOM      9  H3  UNL     1      46.422   0.685  35.689  1.00  0.00     0.203 HD
HETATM   10  C3  UNL     1      45.424   1.132  37.257  1.00  0.00     0.689 C 
HETATM   11  N4  UNL     1      44.222   1.498  37.900  1.00  0.00    -0.221 N 
ATOM     12  H4  UNL     1      43.938   0.947  38.711  1.00  0.00     0.178 HD
HETATM   13  N5  UNL     1      46.595   0.973  38.058  1.00  0.00    -0.216 N 
ATOM     14  H5  UNL     1      46.832   1.742  38.686  1.00  0.00     0.178 HD
ENDROOT
BRANCH  11  15
HETATM   15  C4  UNL     1      43.360   2.589  37.502  1.00  0.00     0.102 C 
HETATM   16  C5  UNL     1      44.150   3.858  37.350  1.00  0.00     0.026 C 
HETATM   17  C6  UNL     1      43.586   5.061  38.009  1.00  0.00     0.005 C 
HETATM   18  C7  UNL     1      42.095   5.199  37.938  1.00  0.00     0.037 C 
HETATM   19  C8  UNL     1      41.371   3.882  38.013  1.00  0.00     0.172 C 
HETATM   20  F1  UNL     1      40.181   3.965  38.687  1.00  0.00    -0.249 F 
HETATM   21  C9  UNL     1      42.332   2.876  38.617  1.00  0.00     0.062 C 
ENDBRANCH  11  15
BRANCH  13  22
HETATM   22  C10 UNL     1      47.468  -0.159  38.066  1.00  0.00     0.055 C 
HETATM   23  C11 UNL     1      48.880   0.400  38.312  1.00  0.00     0.037 C 
HETATM   24  C12 UNL     1      49.918  -0.663  38.422  1.00  0.00    -0.012 C 
HETATM   25  C13 UNL     1      49.947  -1.431  37.119  1.00  0.00     0.009 C 
HETATM   26  C17 UNL     1      49.620  -1.577  39.569  1.00  0.00     0.010 C 
HETATM   27  C14 UNL     1      48.570  -2.018  36.894  1.00  0.00    -0.012 C 
HETATM   28  C15 UNL     1      48.280  -2.931  38.051  1.00  0.00     0.010 C 
HETATM   29  C21 UNL     1      47.559  -0.903  36.764  1.00  0.00     0.037 C 
HETATM   30  C16 UNL     1      48.254  -2.154  39.349  1.00  0.00    -0.004 C 
HETATM   31  C18 UNL     1      47.187  -1.093  39.231  1.00  0.00    -0.018 C 
HETATM   32  C19 UNL     1      45.880  -1.839  39.076  1.00  0.00     0.018 C 
HETATM   33  C20 UNL     1      47.090  -0.262  40.495  1.00  0.00     0.018 C 
ENDBRANCH  13  22
TORSDOF 2
ENDMDL
MODEL 4
REMARK VINA RESULT: -6.283737221      4.103      6.613
REMARK  2 active torsions:
REMARK  status: ('A' for Active; 'I' for Inactive)
REMARK       I    between atoms: N1_2  and  C2_4 
REMARK       I    between atoms: C2_4  and  N3_8 
REMARK       I    between atoms: C3_10  and  N4_11 
REMARK       I    between atoms: C3_10  and  N5_20 
REMARK    1  A    between atoms: N4_11  and  C4_13 
REMARK    2  A    between atoms: N5_20  and  C10_22 
ROOT
HETATM    1  C1  UNL     1      40.456  -4.904  31.045  1.00  0.00     0.165 C 
HETATM    2  N1  UNL     1      41.193  -3.634  31.071  1.00  0.00    -0.230 N 
ATOM      3  H1  UNL     1      40.741  -2.787  30.725  1.00  0.00     0.177 HD
HETATM    4  C2  UNL     1      42.521  -3.559  31.566  1.00  0.00     0.685 C 
HETATM    5  N2  UNL     1      43.279  -4.591  31.317  1.00  0.00    -0.234 N 
ATOM      6  H21 UNL     1      44.233  -4.537  31.673  1.00  0.00     0.174 HD
ATOM      7  H22 UNL     1      42.959  -5.407  30.795  1.00  0.00     0.174 HD
HETATM    8  N3  UNL     1      42.957  -2.447  32.279  1.00  0.00    -0.023 N 
ATOM      9  H3  UNL     1      43.061  -2.613  33.279  1.00  0.00     0.203 HD
HETATM   10  C3  UNL     1      43.247  -1.277  31.924  1.00  0.00     0.689 C 
HETATM   11  N4  UNL     1      43.163  -0.854  30.580  1.00  0.00    -0.221 N 
ATOM     12  H4  UNL     1      42.648   0.007  30.391  1.00  0.00     0.178 HD
HETATM   13  N5  UNL     1      43.680  -0.333  32.902  1.00  0.00    -0.216 N 
ATOM     14  H5  UNL     1      44.549   0.166  32.707  1.00  0.00     0.178 HD
ENDROOT
BRANCH  11  15
HETATM   15  C4  UNL     1      43.748  -1.541  29.449  1.00  0.00     0.102 C 
HETATM   16  C5  UNL     1      44.413  -0.563  28.522  1.00  0.00     0.026 C 
HETATM   17  C6  UNL     1      44.089  -0.706  27.082  1.00  0.00     0.005 C 
HETATM   18  C7  UNL     1      43.970  -2.113  26.581  1.00  0.00     0.037 C 
HETATM   19  C8  UNL     1      43.372  -3.055  27.591  1.00  0.00     0.172 C 
HETATM   20  F1  UNL     1      42.585  -4.020  27.019  1.00  0.00    -0.249 F 
HETATM   21  C9  UNL     1      42.637  -2.210  28.613  1.00  0.00     0.062 C 
ENDBRANCH  11  15
BRANCH  13  22
HETATM   22  C10 UNL     1      43.016  -0.017  34.127  1.00  0.00     0.055 C 
HETATM   23  C11 UNL     1      42.939  -1.336  34.917  1.00  0.00     0.037 C 
HETATM   24  C12 UNL     1      42.332  -1.174  36.267  1.00  0.00    -0.012 C 
HETATM   25  C13 UNL     1      40.920  -0.660  36.090  1.00  0.00     0.009 C 
HETATM   26  C17 UNL     1      43.138  -0.229  37.100  1.00  0.00     0.010 C 
HETATM   27  C14 UNL     1      40.993   0.659  35.351  1.00  0.00    -0.012 C 
HETATM   28  C15 UNL     1      41.807   1.598  36.194  1.00  0.00     0.010 C 
HETATM   29  C21 UNL     1      41.591   0.439  33.982  1.00  0.00     0.037 C 
HETATM   30  C16 UNL     1      43.216   1.075  36.366  1.00  0.00    -0.004 C 
HETATM   31  C18 UNL     1      43.827   0.933  34.992  1.00  0.00    -0.018 C 
HETATM   32  C19 UNL     1      43.885   2.332  34.421  1.00  0.00     0.018 C 
HETATM   33  C20 UNL     1      45.247   0.413  35.069  1.00  0.00     0.018 C 
ENDBRANCH  13  22
TORSDOF 2
ENDMDL
MODEL 5
REMARK VINA RESULT: -6.244816087      2.905      6.680
REMARK  2 active torsions:
REMARK  status: ('A' for Active; 'I' for Inactive)
REMARK       I    between atoms: N1_2  and  C2_4 
REMARK       I    between atoms: C2_4  and  N3_8 
REMARK       I    between atoms: C3_10  and  N4_11 
REMARK       I    between atoms: C3_10  and  N5_20 
REMARK    1  A    between atoms: N4_11  and  C4_13 
REMARK    2  A    between atoms: N5_20  and  C10_22 
ROOT
HETATM    1  C1  UNL     1      43.969  -2.022  27.811  1.00  0.00     0.165 C 
HETATM    2  N1  UNL     1      43.247  -2.809  28.820  1.00  0.00    -0.230 N 
ATOM      3  H1  UNL     1      43.382  -2.595  29.809  1.00  0.00     0.177 HD
HETATM    4  C2  UNL     1      42.368  -3.859  28.450  1.00  0.00     0.685 C 
HETATM    5  N2  UNL     1      42.726  -4.559  27.409  1.00  0.00    -0.234 N 
ATOM      6  H21 UNL     1      42.093  -5.314  27.144  1.00  0.00     0.174 HD
ATOM      7  H22 UNL     1      43.583  -4.384  26.885  1.00  0.00     0.174 HD
HETATM    8  N3  UNL     1      41.199  -4.098  29.165  1.00  0.00    -0.023 N 
ATOM      9  H3  UNL     1      40.351  -3.808  28.677  1.00  0.00     0.203 HD
HETATM   10  C3  UNL     1      40.989  -4.603  30.295  1.00  0.00     0.689 C 
HETATM   11  N4  UNL     1      42.035  -5.062  31.123  1.00  0.00    -0.221 N 
ATOM     12  H4  UNL     1      42.047  -4.733  32.089  1.00  0.00     0.178 HD
HETATM   13  N5  UNL     1      39.650  -4.726  30.773  1.00  0.00    -0.216 N 
ATOM     14  H5  UNL     1      39.363  -5.646  31.108  1.00  0.00     0.178 HD
ENDROOT
BRANCH  11  15
HETATM   15  C4  UNL     1      43.093  -5.960  30.713  1.00  0.00     0.102 C 
HETATM   16  C5  UNL     1      42.530  -7.296  30.319  1.00  0.00     0.026 C 
HETATM   17  C6  UNL     1      43.199  -8.484  30.900  1.00  0.00     0.005 C 
HETATM   18  C7  UNL     1      44.692  -8.402  31.000  1.00  0.00     0.037 C 
HETATM   19  C8  UNL     1      45.192  -7.018  31.315  1.00  0.00     0.172 C 
HETATM   20  F1  UNL     1      46.303  -7.021  32.118  1.00  0.00    -0.249 F 
HETATM   21  C9  UNL     1      44.029  -6.245  31.907  1.00  0.00     0.062 C 
ENDBRANCH  11  15
BRANCH  13  22
HETATM   22  C10 UNL     1      38.671  -3.686  30.827  1.00  0.00     0.055 C 
HETATM   23  C11 UNL     1      37.433  -4.233  30.092  1.00  0.00     0.037 C 
HETATM   24  C12 UNL     1      36.278  -3.294  30.116  1.00  0.00    -0.012 C 
HETATM   25  C13 UNL     1      36.696  -2.015  29.424  1.00  0.00     0.009 C 
HETATM   26  C17 UNL     1      35.847  -3.018  31.522  1.00  0.00     0.010 C 
HETATM   27  C14 UNL     1      37.887  -1.451  30.168  1.00  0.00    -0.012 C 
HETATM   28  C15 UNL     1      37.445  -1.181  31.577  1.00  0.00     0.010 C 
HETATM   29  C21 UNL     1      39.038  -2.426  30.095  1.00  0.00     0.037 C 
HETATM   30  C16 UNL     1      37.028  -2.465  32.260  1.00  0.00    -0.004 C 
HETATM   31  C18 UNL     1      38.213  -3.401  32.247  1.00  0.00    -0.018 C 
HETATM   32  C19 UNL     1      39.281  -2.724  33.077  1.00  0.00     0.018 C 
HETATM   33  C20 UNL     1      37.884  -4.720  32.915  1.00  0.00     0.018 C 
ENDBRANCH  13  22
TORSDOF 2
ENDMDL
