MODEL 1
REMARK VINA RESULT: -6.523869323      0.000      0.000
REMARK  4 active torsions:
REMARK  status: ('A' for Active; 'I' for Inactive)
REMARK       I    between atoms: C1_4  and  N3_6 
REMARK    1  A    between atoms: C4_9  and  N4_10 
REMARK       I    between atoms: N4_10  and  C5_12 
REMARK    2  A    between atoms: C5_12  and  C6_14 
REMARK    3  A    between atoms: C15_23  and  C16_24 
REMARK    4  A    between atoms: C16_24  and  N5_25 
ROOT
HETATM    1  C6  UNL     1      13.989  12.844  20.536  1.00  0.00     0.083 C 
HETATM    2  C7  UNL     1      15.133  11.897  20.150  1.00  0.00     0.014 C 
HETATM    3  C8  UNL     1      16.475  12.466  20.354  1.00  0.00     0.001 C 
HETATM    4  C9  UNL     1      16.746  13.803  19.720  1.00  0.00     0.000 C 
HETATM    5  C10 UNL     1      16.274  13.921  18.326  1.00  0.00     0.000 C 
HETATM    6  C11 UNL     1      15.559  15.131  17.915  1.00  0.00     0.000 C 
HETATM    7  C12 UNL     1      14.651  15.829  18.814  1.00  0.00     0.000 C 
HETATM    8  C13 UNL     1      13.302  15.292  19.079  1.00  0.00     0.000 C 
HETATM    9  C14 UNL     1      12.936  13.977  18.522  1.00  0.00     0.007 C 
HETATM   10  C15 UNL     1      12.893  12.840  19.538  1.00  0.00     0.024 C 
ENDROOT
BRANCH   1  11
HETATM   11  C5  UNL     1      13.546  12.572  21.934  1.00  0.00     0.222 C 
HETATM   12  N4  UNL     1      13.370  11.260  22.436  1.00  0.00    -0.356 N 
ATOM     13  H4  UNL     1      13.557  10.479  21.809  1.00  0.00     0.162 HD
HETATM   14  O1  UNL     1      13.297  13.484  22.765  1.00  0.00    -0.273 OA
BRANCH  12  15
HETATM   15  C4  UNL     1      12.947  10.966  23.762  1.00  0.00     0.087 C 
HETATM   16  C3  UNL     1      13.589   9.738  24.350  1.00  0.00     0.045 C 
HETATM   17  C2  UNL     1      13.157   8.484  23.656  1.00  0.00     0.127 C 
HETATM   18  N3  UNL     1      11.757   8.481  23.309  1.00  0.00    -0.356 N 
HETATM   19  C1  UNL     1      11.173   7.205  23.009  1.00  0.00     0.183 C 
HETATM   20  C18 UNL     1      10.917   9.630  23.240  1.00  0.00     0.127 C 
HETATM   21  N1  UNL     1      10.000   7.114  22.439  1.00  0.00    -0.374 N 
HETATM   22  N2  UNL     1      11.817   5.981  23.307  1.00  0.00    -0.064 NA
ATOM     23  H12 UNL     1       9.586   6.206  22.226  1.00  0.00     0.158 HD
ATOM     24  H11 UNL     1       9.536   7.996  22.225  1.00  0.00     0.158 HD
HETATM   25  C17 UNL     1      11.456  10.844  23.917  1.00  0.00     0.045 C 
ENDBRANCH  12  15
ENDBRANCH   1  11
BRANCH  10  26
HETATM   26  C16 UNL     1      11.506  12.698  20.114  1.00  0.00     0.235 C 
BRANCH  26  27
HETATM   27  N5  UNL     1      10.457  12.997  19.178  1.00  0.00    -0.079 N 
ATOM     28  H53 UNL     1      10.316  14.004  19.105  1.00  0.00     0.274 HD
ATOM     29  H52 UNL     1      10.758  12.797  18.224  1.00  0.00     0.274 HD
ATOM     30  H51 UNL     1       9.576  12.524  19.383  1.00  0.00     0.274 HD
ENDBRANCH  26  27
ENDBRANCH  10  26
TORSDOF 4
ENDMDL
MODEL 2
REMARK VINA RESULT: -6.238488230      1.953      3.552
REMARK  4 active torsions:
REMARK  status: ('A' for Active; 'I' for Inactive)
REMARK       I    between atoms: C1_4  and  N3_6 
REMARK    1  A    between atoms: C4_9  and  N4_10 
REMARK       I    between atoms: N4_10  and  C5_12 
REMARK    2  A    between atoms: C5_12  and  C6_14 
REMARK    3  A    between atoms: C15_23  and  C16_24 
REMARK    4  A    between atoms: C16_24  and  N5_25 
ROOT
HETATM    1  C6  UNL     1      14.397  12.400  20.301  1.00  0.00     0.083 C 
HETATM    2  C7  UNL     1      13.085  13.083  20.711  1.00  0.00     0.014 C 
HETATM    3  C8  UNL     1      12.229  13.465  19.577  1.00  0.00     0.001 C 
HETATM    4  C9  UNL     1      12.867  14.298  18.499  1.00  0.00     0.000 C 
HETATM    5  C10 UNL     1      13.693  15.414  19.001  1.00  0.00     0.000 C 
HETATM    6  C11 UNL     1      15.008  15.654  18.402  1.00  0.00     0.000 C 
HETATM    7  C12 UNL     1      15.859  14.561  17.955  1.00  0.00     0.000 C 
HETATM    8  C13 UNL     1      16.609  13.748  18.932  1.00  0.00     0.000 C 
HETATM    9  C14 UNL     1      16.384  13.977  20.371  1.00  0.00     0.007 C 
HETATM   10  C15 UNL     1      15.559  12.902  21.071  1.00  0.00     0.024 C 
ENDROOT
BRANCH   1  11
HETATM   11  C5  UNL     1      14.234  10.917  20.332  1.00  0.00     0.222 C 
HETATM   12  N4  UNL     1      13.792  10.223  21.483  1.00  0.00    -0.356 N 
ATOM     13  H4  UNL     1      13.577  10.768  22.317  1.00  0.00     0.162 HD
HETATM   14  O1  UNL     1      14.479  10.179  19.342  1.00  0.00    -0.273 OA
BRANCH  12  15
HETATM   15  C4  UNL     1      13.629   8.811  21.547  1.00  0.00     0.087 C 
HETATM   16  C3  UNL     1      12.224   8.345  21.276  1.00  0.00     0.045 C 
HETATM   17  C2  UNL     1      11.269   8.764  22.350  1.00  0.00     0.127 C 
HETATM   18  N3  UNL     1      11.828   8.667  23.676  1.00  0.00    -0.356 N 
HETATM   19  C1  UNL     1      10.896   8.664  24.767  1.00  0.00     0.183 C 
HETATM   20  C18 UNL     1      13.216   8.574  23.986  1.00  0.00     0.127 C 
HETATM   21  N1  UNL     1      11.294   8.840  25.999  1.00  0.00    -0.374 N 
HETATM   22  N2  UNL     1       9.507   8.474  24.583  1.00  0.00    -0.064 NA
ATOM     23  H12 UNL     1      10.631   8.838  26.775  1.00  0.00     0.158 HD
ATOM     24  H11 UNL     1      12.296   8.977  26.131  1.00  0.00     0.158 HD
HETATM   25  C17 UNL     1      14.093   8.199  22.840  1.00  0.00     0.045 C 
ENDBRANCH  12  15
ENDBRANCH   1  11
BRANCH  10  26
HETATM   26  C16 UNL     1      16.457  11.833  21.640  1.00  0.00     0.235 C 
BRANCH  26  27
HETATM   27  N5  UNL     1      17.670  12.343  22.220  1.00  0.00    -0.079 N 
ATOM     28  H53 UNL     1      17.565  13.328  22.462  1.00  0.00     0.274 HD
ATOM     29  H52 UNL     1      17.816  11.953  23.151  1.00  0.00     0.274 HD
ATOM     30  H51 UNL     1      18.495  12.202  21.637  1.00  0.00     0.274 HD
ENDBRANCH  26  27
ENDBRANCH  10  26
TORSDOF 4
ENDMDL
MODEL 3
REMARK VINA RESULT: -6.226203220      3.779      9.102
REMARK  4 active torsions:
REMARK  status: ('A' for Active; 'I' for Inactive)
REMARK       I    between atoms: C1_4  and  N3_6 
REMARK    1  A    between atoms: C4_9  and  N4_10 
REMARK       I    between atoms: N4_10  and  C5_12 
REMARK    2  A    between atoms: C5_12  and  C6_14 
REMARK    3  A    between atoms: C15_23  and  C16_24 
REMARK    4  A    between atoms: C16_24  and  N5_25 
ROOT
HETATM    1  C6  UNL     1       8.696   6.432  23.507  1.00  0.00     0.083 C 
HETATM    2  C7  UNL     1       8.055   7.064  22.265  1.00  0.00     0.014 C 
HETATM    3  C8  UNL     1       7.214   8.236  22.556  1.00  0.00     0.001 C 
HETATM    4  C9  UNL     1       6.138   8.056  23.592  1.00  0.00     0.000 C 
HETATM    5  C10 UNL     1       5.361   6.807  23.451  1.00  0.00     0.000 C 
HETATM    6  C11 UNL     1       5.078   6.005  24.643  1.00  0.00     0.000 C 
HETATM    7  C12 UNL     1       6.038   5.879  25.730  1.00  0.00     0.000 C 
HETATM    8  C13 UNL     1       7.215   4.999  25.590  1.00  0.00     0.000 C 
HETATM    9  C14 UNL     1       7.470   4.352  24.290  1.00  0.00     0.007 C 
HETATM   10  C15 UNL     1       8.621   4.952  23.489  1.00  0.00     0.024 C 
ENDROOT
BRANCH   1  11
HETATM   11  C5  UNL     1      10.072   6.974  23.706  1.00  0.00     0.222 C 
HETATM   12  N4  UNL     1      10.983   7.154  22.638  1.00  0.00    -0.356 N 
ATOM     13  H4  UNL     1      10.675   6.902  21.699  1.00  0.00     0.162 HD
HETATM   14  O1  UNL     1      10.522   7.308  24.833  1.00  0.00    -0.273 OA
BRANCH  12  15
HETATM   15  C4  UNL     1      12.301   7.666  22.793  1.00  0.00     0.087 C 
HETATM   16  C3  UNL     1      12.364   8.984  23.516  1.00  0.00     0.045 C 
HETATM   17  C2  UNL     1      11.748  10.095  22.724  1.00  0.00     0.127 C 
HETATM   18  N3  UNL     1      12.042  10.020  21.315  1.00  0.00    -0.356 N 
HETATM   19  C1  UNL     1      11.839  11.218  20.552  1.00  0.00     0.183 C 
HETATM   20  C18 UNL     1      12.514   8.864  20.627  1.00  0.00     0.127 C 
HETATM   21  N1  UNL     1      11.824  11.195  19.245  1.00  0.00    -0.374 N 
HETATM   22  N2  UNL     1      11.644  12.483  21.153  1.00  0.00    -0.064 NA
ATOM     23  H12 UNL     1      11.679  12.047  18.703  1.00  0.00     0.158 HD
ATOM     24  H11 UNL     1      11.965  10.283  18.811  1.00  0.00     0.158 HD
HETATM   25  C17 UNL     1      13.065   7.791  21.504  1.00  0.00     0.045 C 
ENDBRANCH  12  15
ENDBRANCH   1  11
BRANCH  10  26
HETATM   26  C16 UNL     1       9.914   4.244  23.809  1.00  0.00     0.235 C 
BRANCH  26  27
HETATM   27  N5  UNL     1      10.254   3.208  22.872  1.00  0.00    -0.079 N 
ATOM     28  H53 UNL     1       9.414   2.815  22.449  1.00  0.00     0.274 HD
ATOM     29  H52 UNL     1      10.694   3.605  22.041  1.00  0.00     0.274 HD
ATOM     30  H51 UNL     1      10.836   2.469  23.269  1.00  0.00     0.274 HD
ENDBRANCH  26  27
ENDBRANCH  10  26
TORSDOF 4
ENDMDL
MODEL 4
REMARK VINA RESULT: -6.204815859      3.598      5.388
REMARK  4 active torsions:
REMARK  status: ('A' for Active; 'I' for Inactive)
REMARK       I    between atoms: C1_4  and  N3_6 
REMARK    1  A    between atoms: C4_9  and  N4_10 
REMARK       I    between atoms: N4_10  and  C5_12 
REMARK    2  A    between atoms: C5_12  and  C6_14 
REMARK    3  A    between atoms: C15_23  and  C16_24 
REMARK    4  A    between atoms: C16_24  and  N5_25 
ROOT
HETATM    1  C6  UNL     1      15.740  13.557  19.692  1.00  0.00     0.083 C 
HETATM    2  C7  UNL     1      16.052  13.994  18.255  1.00  0.00     0.014 C 
HETATM    3  C8  UNL     1      15.442  15.279  17.874  1.00  0.00     0.001 C 
HETATM    4  C9  UNL     1      13.959  15.412  18.087  1.00  0.00     0.000 C 
HETATM    5  C10 UNL     1      13.173  14.244  17.642  1.00  0.00     0.000 C 
HETATM    6  C11 UNL     1      12.115  13.724  18.510  1.00  0.00     0.000 C 
HETATM    7  C12 UNL     1      12.245  13.717  19.960  1.00  0.00     0.000 C 
HETATM    8  C13 UNL     1      13.095  12.714  20.631  1.00  0.00     0.000 C 
HETATM    9  C14 UNL     1      13.909  11.803  19.805  1.00  0.00     0.007 C 
HETATM   10  C15 UNL     1      15.401  12.117  19.782  1.00  0.00     0.024 C 
ENDROOT
BRANCH   1  11
HETATM   11  C5  UNL     1      16.836  13.988  20.609  1.00  0.00     0.222 C 
HETATM   12  N4  UNL     1      16.679  14.039  22.014  1.00  0.00    -0.356 N 
ATOM     13  H4  UNL     1      15.777  13.766  22.404  1.00  0.00     0.162 HD
HETATM   14  O1  UNL     1      17.974  14.336  20.201  1.00  0.00    -0.273 OA
BRANCH  12  15
HETATM   15  C4  UNL     1      17.701  14.446  22.916  1.00  0.00     0.087 C 
HETATM   16  C3  UNL     1      18.651  13.344  23.301  1.00  0.00     0.045 C 
HETATM   17  C2  UNL     1      17.987  12.285  24.125  1.00  0.00     0.127 C 
HETATM   18  N3  UNL     1      17.054  12.817  25.089  1.00  0.00    -0.356 N 
HETATM   19  C1  UNL     1      16.676  11.945  26.163  1.00  0.00     0.183 C 
HETATM   20  C18 UNL     1      16.486  14.124  25.059  1.00  0.00     0.127 C 
HETATM   21  N1  UNL     1      15.657  12.223  26.934  1.00  0.00    -0.374 N 
HETATM   22  N2  UNL     1      17.368  10.747  26.456  1.00  0.00    -0.064 NA
ATOM     23  H12 UNL     1      15.387  11.602  27.698  1.00  0.00     0.158 HD
ATOM     24  H11 UNL     1      15.158  13.086  26.723  1.00  0.00     0.158 HD
HETATM   25  C17 UNL     1      17.187  15.094  24.171  1.00  0.00     0.045 C 
ENDBRANCH  12  15
ENDBRANCH   1  11
BRANCH  10  26
HETATM   26  C16 UNL     1      16.117  11.360  20.873  1.00  0.00     0.235 C 
BRANCH  26  27
HETATM   27  N5  UNL     1      15.388  10.222  21.362  1.00  0.00    -0.079 N 
ATOM     28  H53 UNL     1      16.010   9.583  21.857  1.00  0.00     0.274 HD
ATOM     29  H52 UNL     1      14.773  10.491  22.130  1.00  0.00     0.274 HD
ATOM     30  H51 UNL     1      14.865   9.727  20.639  1.00  0.00     0.274 HD
ENDBRANCH  26  27
ENDBRANCH  10  26
TORSDOF 4
ENDMDL
MODEL 5
REMARK VINA RESULT: -6.195170884      1.614      2.131
REMARK  4 active torsions:
REMARK  status: ('A' for Active; 'I' for Inactive)
REMARK       I    between atoms: C1_4  and  N3_6 
REMARK    1  A    between atoms: C4_9  and  N4_10 
REMARK       I    between atoms: N4_10  and  C5_12 
REMARK    2  A    between atoms: C5_12  and  C6_14 
REMARK    3  A    between atoms: C15_23  and  C16_24 
REMARK    4  A    between atoms: C16_24  and  N5_25 
ROOT
HETATM    1  C6  UNL     1      12.740  11.461  21.082  1.00  0.00     0.083 C 
HETATM    2  C7  UNL     1      13.822  10.489  20.596  1.00  0.00     0.014 C 
HETATM    3  C8  UNL     1      15.197  10.931  20.883  1.00  0.00     0.001 C 
HETATM    4  C9  UNL     1      15.573  12.312  20.418  1.00  0.00     0.000 C 
HETATM    5  C10 UNL     1      15.137  12.630  19.044  1.00  0.00     0.000 C 
HETATM    6  C11 UNL     1      14.517  13.929  18.775  1.00  0.00     0.000 C 
HETATM    7  C12 UNL     1      13.641  14.577  19.743  1.00  0.00     0.000 C 
HETATM    8  C13 UNL     1      12.253  14.110  19.925  1.00  0.00     0.000 C 
HETATM    9  C14 UNL     1      11.808  12.900  19.209  1.00  0.00     0.007 C 
HETATM   10  C15 UNL     1      11.666  11.655  20.079  1.00  0.00     0.024 C 
ENDROOT
BRANCH   1  11
HETATM   11  C5  UNL     1      12.252  11.055  22.432  1.00  0.00     0.222 C 
HETATM   12  N4  UNL     1      11.753   9.759  22.704  1.00  0.00    -0.356 N 
ATOM     13  H4  UNL     1      11.732   9.084  21.940  1.00  0.00     0.162 HD
HETATM   14  O1  UNL     1      12.248  11.831  23.422  1.00  0.00    -0.273 OA
BRANCH  12  15
HETATM   15  C4  UNL     1      11.278   9.339  23.978  1.00  0.00     0.087 C 
HETATM   16  C3  UNL     1      11.730   7.960  24.374  1.00  0.00     0.045 C 
HETATM   17  C2  UNL     1      11.129   6.895  23.511  1.00  0.00     0.127 C 
HETATM   18  N3  UNL     1       9.747   7.144  23.182  1.00  0.00    -0.356 N 
HETATM   19  C1  UNL     1       8.988   6.023  22.708  1.00  0.00     0.183 C 
HETATM   20  C18 UNL     1       9.082   8.401  23.289  1.00  0.00     0.127 C 
HETATM   21  N1  UNL     1       7.820   6.186  22.143  1.00  0.00    -0.374 N 
HETATM   22  N2  UNL     1       9.445   4.690  22.818  1.00  0.00    -0.064 NA
ATOM     23  H12 UNL     1       7.280   5.388  21.805  1.00  0.00     0.158 HD
ATOM     24  H11 UNL     1       7.491   7.147  22.064  1.00  0.00     0.158 HD
HETATM   25  C17 UNL     1       9.784   9.413  24.130  1.00  0.00     0.045 C 
ENDBRANCH  12  15
ENDBRANCH   1  11
BRANCH  10  26
HETATM   26  C16 UNL     1      10.261  11.545  20.619  1.00  0.00     0.235 C 
BRANCH  26  27
HETATM   27  N5  UNL     1       9.243  11.828  19.644  1.00  0.00    -0.079 N 
ATOM     28  H53 UNL     1       8.500  12.394  20.054  1.00  0.00     0.274 HD
ATOM     29  H52 UNL     1       9.589  12.483  18.942  1.00  0.00     0.274 HD
ATOM     30  H51 UNL     1       8.857  10.995  19.200  1.00  0.00     0.274 HD
ENDBRANCH  26  27
ENDBRANCH  10  26
TORSDOF 4
ENDMDL
