MODEL 1
REMARK VINA RESULT: -6.094198447      0.000      0.000
REMARK  6 active torsions:
REMARK  status: ('A' for Active; 'I' for Inactive)
REMARK    1  A    between atoms: C2_2  and  C4_4 
REMARK    2  A    between atoms: C4_4  and  N1_5 
REMARK       I    between atoms: N1_5  and  C5_7 
REMARK       I    between atoms: C5_7  and  N2_9 
REMARK    3  A    between atoms: N2_9  and  N3_11 
REMARK    4  A    between atoms: N3_11  and  C6_13 
REMARK    5  A    between atoms: C6_13  and  N4_15 
REMARK    6  A    between atoms: N4_15  and  C7_17 
ROOT
HETATM    1  C6  UNL     1      17.430  11.700  23.520  1.00  0.00     0.186 C 
HETATM    2  S1  UNL     1      17.093  12.368  24.953  1.00  0.00    -0.040 SA
ENDROOT
BRANCH   1   3
HETATM    3  N3  UNL     1      17.323  10.268  23.461  1.00  0.00    -0.272 N 
ATOM      4  H3  UNL     1      17.874   9.728  24.127  1.00  0.00     0.189 HD
BRANCH   3   5
HETATM    5  N2  UNL     1      16.534   9.567  22.573  1.00  0.00    -0.249 N 
HETATM    6  C5  UNL     1      15.130   9.410  22.711  1.00  0.00     0.334 C 
HETATM    7  N1  UNL     1      14.353   8.700  21.784  1.00  0.00    -0.341 N 
HETATM    8  O1  UNL     1      14.561   9.932  23.709  1.00  0.00    -0.246 OA
ATOM      9  H1  UNL     1      14.825   8.280  20.983  1.00  0.00     0.164 HD
ATOM     10  H2  UNL     1      16.987   9.135  21.768  1.00  0.00     0.192 HD
BRANCH   7  11
HETATM   11  C4  UNL     1      12.937   8.529  21.894  1.00  0.00     0.128 C 
BRANCH  11  12
HETATM   12  C2  UNL     1      12.101   9.420  21.039  1.00  0.00    -0.005 C 
HETATM   13  C1  UNL     1      12.855   9.637  19.739  1.00  0.00     0.011 C 
HETATM   14  C3  UNL     1      11.924  10.782  21.687  1.00  0.00     0.011 C 
ENDBRANCH  11  12
ENDBRANCH   7  11
ENDBRANCH   3   5
ENDBRANCH   1   3
BRANCH   1  15
HETATM   15  N4  UNL     1      17.782  12.453  22.389  1.00  0.00    -0.361 N 
ATOM     16  H4  UNL     1      18.727  12.353  22.020  1.00  0.00     0.162 HD
BRANCH  15  17
HETATM   17  C7  UNL     1      16.891  13.353  21.723  1.00  0.00     0.088 C 
HETATM   18  C8  UNL     1      17.529  13.947  20.528  1.00  0.00     0.030 C 
HETATM   19  C9  UNL     1      16.603  14.723  19.622  1.00  0.00    -0.012 C 
HETATM   20  C10 UNL     1      15.493  15.430  20.311  1.00  0.00     0.009 C 
HETATM   21  C14 UNL     1      16.179  13.844  18.491  1.00  0.00     0.009 C 
HETATM   22  C11 UNL     1      14.254  14.590  20.490  1.00  0.00    -0.013 C 
HETATM   23  C12 UNL     1      13.901  13.764  19.299  1.00  0.00     0.009 C 
HETATM   24  C17 UNL     1      14.449  13.647  21.669  1.00  0.00     0.011 C 
HETATM   25  C13 UNL     1      15.103  12.895  18.961  1.00  0.00    -0.013 C 
HETATM   26  C15 UNL     1      15.533  12.028  20.086  1.00  0.00     0.011 C 
HETATM   27  C16 UNL     1      15.558  12.690  21.416  1.00  0.00     0.009 C 
ENDBRANCH  15  17
ENDBRANCH   1  15
TORSDOF 6
ENDMDL
MODEL 2
REMARK VINA RESULT: -6.037642198      1.347      2.098
REMARK  6 active torsions:
REMARK  status: ('A' for Active; 'I' for Inactive)
REMARK    1  A    between atoms: C2_2  and  C4_4 
REMARK    2  A    between atoms: C4_4  and  N1_5 
REMARK       I    between atoms: N1_5  and  C5_7 
REMARK       I    between atoms: C5_7  and  N2_9 
REMARK    3  A    between atoms: N2_9  and  N3_11 
REMARK    4  A    between atoms: N3_11  and  C6_13 
REMARK    5  A    between atoms: C6_13  and  N4_15 
REMARK    6  A    between atoms: N4_15  and  C7_17 
ROOT
HETATM    1  C6  UNL     1      17.679  12.802  22.411  1.00  0.00     0.186 C 
HETATM    2  S1  UNL     1      18.407  13.675  23.560  1.00  0.00    -0.040 SA
ENDROOT
BRANCH   1   3
HETATM    3  N3  UNL     1      17.269  11.481  22.800  1.00  0.00    -0.272 N 
ATOM      4  H3  UNL     1      17.468  11.190  23.757  1.00  0.00     0.189 HD
BRANCH   3   5
HETATM    5  N2  UNL     1      16.628  10.575  21.982  1.00  0.00    -0.249 N 
HETATM    6  C5  UNL     1      15.217  10.449  21.887  1.00  0.00     0.334 C 
HETATM    7  N1  UNL     1      14.594   9.525  21.035  1.00  0.00    -0.341 N 
HETATM    8  O1  UNL     1      14.497  11.202  22.599  1.00  0.00    -0.246 OA
ATOM      9  H1  UNL     1      15.188   8.920  20.467  1.00  0.00     0.164 HD
ATOM     10  H2  UNL     1      17.203   9.956  21.409  1.00  0.00     0.192 HD
BRANCH   7  11
HETATM   11  C4  UNL     1      13.177   9.380  20.915  1.00  0.00     0.128 C 
BRANCH  11  12
HETATM   12  C2  UNL     1      12.624   8.039  21.259  1.00  0.00    -0.005 C 
HETATM   13  C1  UNL     1      11.534   8.251  22.294  1.00  0.00     0.011 C 
HETATM   14  C3  UNL     1      13.686   7.163  21.901  1.00  0.00     0.011 C 
ENDBRANCH  11  12
ENDBRANCH   7  11
ENDBRANCH   3   5
ENDBRANCH   1   3
BRANCH   1  15
HETATM   15  N4  UNL     1      17.430  13.292  21.120  1.00  0.00    -0.361 N 
ATOM     16  H4  UNL     1      18.194  13.280  20.446  1.00  0.00     0.162 HD
BRANCH  15  17
HETATM   17  C7  UNL     1      16.165  13.809  20.696  1.00  0.00     0.088 C 
HETATM   18  C8  UNL     1      16.161  15.289  20.717  1.00  0.00     0.030 C 
HETATM   19  C9  UNL     1      14.964  15.939  20.064  1.00  0.00    -0.012 C 
HETATM   20  C10 UNL     1      13.692  15.182  20.184  1.00  0.00     0.009 C 
HETATM   21  C14 UNL     1      15.326  16.338  18.671  1.00  0.00     0.009 C 
HETATM   22  C11 UNL     1      13.471  14.181  19.079  1.00  0.00    -0.013 C 
HETATM   23  C12 UNL     1      13.843  14.680  17.723  1.00  0.00     0.009 C 
HETATM   24  C17 UNL     1      14.296  12.932  19.357  1.00  0.00     0.011 C 
HETATM   25  C13 UNL     1      15.296  15.126  17.771  1.00  0.00    -0.013 C 
HETATM   26  C15 UNL     1      16.225  14.050  18.202  1.00  0.00     0.011 C 
HETATM   27  C16 UNL     1      15.752  13.234  19.351  1.00  0.00     0.009 C 
ENDBRANCH  15  17
ENDBRANCH   1  15
TORSDOF 6
ENDMDL
MODEL 3
REMARK VINA RESULT: -6.029109936      1.887      2.305
REMARK  6 active torsions:
REMARK  status: ('A' for Active; 'I' for Inactive)
REMARK    1  A    between atoms: C2_2  and  C4_4 
REMARK    2  A    between atoms: C4_4  and  N1_5 
REMARK       I    between atoms: N1_5  and  C5_7 
REMARK       I    between atoms: C5_7  and  N2_9 
REMARK    3  A    between atoms: N2_9  and  N3_11 
REMARK    4  A    between atoms: N3_11  and  C6_13 
REMARK    5  A    between atoms: C6_13  and  N4_15 
REMARK    6  A    between atoms: N4_15  and  C7_17 
ROOT
HETATM    1  C6  UNL     1      16.105  10.482  22.883  1.00  0.00     0.186 C 
HETATM    2  S1  UNL     1      15.567  11.093  24.280  1.00  0.00    -0.040 SA
ENDROOT
BRANCH   1   3
HETATM    3  N3  UNL     1      15.843   9.085  22.673  1.00  0.00    -0.272 N 
ATOM      4  H3  UNL     1      16.581   8.427  22.924  1.00  0.00     0.189 HD
BRANCH   3   5
HETATM    5  N2  UNL     1      14.674   8.564  22.161  1.00  0.00    -0.249 N 
HETATM    6  C5  UNL     1      13.679   7.923  22.944  1.00  0.00     0.334 C 
HETATM    7  N1  UNL     1      12.493   7.413  22.395  1.00  0.00    -0.341 N 
HETATM    8  O1  UNL     1      13.872   7.809  24.186  1.00  0.00    -0.246 OA
ATOM      9  H1  UNL     1      12.351   7.509  21.389  1.00  0.00     0.164 HD
ATOM     10  H2  UNL     1      14.514   8.644  21.156  1.00  0.00     0.192 HD
BRANCH   7  11
HETATM   11  C4  UNL     1      11.472   6.767  23.160  1.00  0.00     0.128 C 
BRANCH  11  12
HETATM   12  C2  UNL     1      10.204   7.530  23.335  1.00  0.00    -0.005 C 
HETATM   13  C1  UNL     1      10.188   8.062  24.757  1.00  0.00     0.011 C 
HETATM   14  C3  UNL     1       8.998   6.618  23.186  1.00  0.00     0.011 C 
ENDBRANCH  11  12
ENDBRANCH   7  11
ENDBRANCH   3   5
ENDBRANCH   1   3
BRANCH   1  15
HETATM   15  N4  UNL     1      16.763  11.255  21.913  1.00  0.00    -0.361 N 
ATOM     16  H4  UNL     1      17.611  10.877  21.492  1.00  0.00     0.162 HD
BRANCH  15  17
HETATM   17  C7  UNL     1      16.313  12.542  21.482  1.00  0.00     0.088 C 
HETATM   18  C8  UNL     1      17.277  13.155  20.541  1.00  0.00     0.030 C 
HETATM   19  C9  UNL     1      16.790  14.402  19.842  1.00  0.00    -0.012 C 
HETATM   20  C10 UNL     1      15.873  15.255  20.640  1.00  0.00     0.009 C 
HETATM   21  C14 UNL     1      16.282  14.034  18.486  1.00  0.00     0.009 C 
HETATM   22  C11 UNL     1      14.419  14.881  20.505  1.00  0.00    -0.013 C 
HETATM   23  C12 UNL     1      14.003  14.550  19.111  1.00  0.00     0.009 C 
HETATM   24  C17 UNL     1      14.128  13.668  21.378  1.00  0.00     0.011 C 
HETATM   25  C13 UNL     1      14.903  13.431  18.608  1.00  0.00    -0.013 C 
HETATM   26  C15 UNL     1      14.863  12.218  19.463  1.00  0.00     0.011 C 
HETATM   27  C16 UNL     1      14.900  12.480  20.926  1.00  0.00     0.009 C 
ENDBRANCH  15  17
ENDBRANCH   1  15
TORSDOF 6
ENDMDL
MODEL 4
REMARK VINA RESULT: -5.913185163      9.554     12.154
REMARK  6 active torsions:
REMARK  status: ('A' for Active; 'I' for Inactive)
REMARK    1  A    between atoms: C2_2  and  C4_4 
REMARK    2  A    between atoms: C4_4  and  N1_5 
REMARK       I    between atoms: N1_5  and  C5_7 
REMARK       I    between atoms: C5_7  and  N2_9 
REMARK    3  A    between atoms: N2_9  and  N3_11 
REMARK    4  A    between atoms: N3_11  and  C6_13 
REMARK    5  A    between atoms: C6_13  and  N4_15 
REMARK    6  A    between atoms: N4_15  and  C7_17 
ROOT
HETATM    1  C6  UNL     1       7.657   7.388  22.699  1.00  0.00     0.186 C 
HETATM    2  S1  UNL     1       9.087   8.125  22.860  1.00  0.00    -0.040 SA
ENDROOT
BRANCH   1   3
HETATM    3  N3  UNL     1       7.703   6.048  22.183  1.00  0.00    -0.272 N 
ATOM      4  H3  UNL     1       7.136   5.842  21.361  1.00  0.00     0.189 HD
BRANCH   3   5
HETATM    5  N2  UNL     1       8.453   5.019  22.712  1.00  0.00    -0.249 N 
HETATM    6  C5  UNL     1       7.994   4.144  23.733  1.00  0.00     0.334 C 
HETATM    7  N1  UNL     1       8.777   3.099  24.243  1.00  0.00    -0.341 N 
HETATM    8  O1  UNL     1       6.834   4.318  24.197  1.00  0.00    -0.246 OA
ATOM      9  H1  UNL     1       9.715   2.971  23.861  1.00  0.00     0.164 HD
ATOM     10  H2  UNL     1       9.395   4.877  22.349  1.00  0.00     0.192 HD
BRANCH   7  11
HETATM   11  C4  UNL     1       8.341   2.200  25.266  1.00  0.00     0.128 C 
BRANCH  11  12
HETATM   12  C2  UNL     1       8.794   0.786  25.134  1.00  0.00    -0.005 C 
HETATM   13  C1  UNL     1       9.080   0.537  23.664  1.00  0.00     0.011 C 
HETATM   14  C3  UNL     1       7.693  -0.176  25.545  1.00  0.00     0.011 C 
ENDBRANCH  11  12
ENDBRANCH   7  11
ENDBRANCH   3   5
ENDBRANCH   1   3
BRANCH   1  15
HETATM   15  N4  UNL     1       6.441   7.991  23.057  1.00  0.00    -0.361 N 
ATOM     16  H4  UNL     1       6.025   8.657  22.408  1.00  0.00     0.162 HD
BRANCH  15  17
HETATM   17  C7  UNL     1       5.753   7.725  24.283  1.00  0.00     0.088 C 
HETATM   18  C8  UNL     1       5.870   8.867  25.217  1.00  0.00     0.030 C 
HETATM   19  C9  UNL     1       4.986   8.793  26.440  1.00  0.00    -0.012 C 
HETATM   20  C10 UNL     1       4.738   7.421  26.955  1.00  0.00     0.009 C 
HETATM   21  C14 UNL     1       3.755   9.604  26.201  1.00  0.00     0.009 C 
HETATM   22  C11 UNL     1       3.549   6.740  26.328  1.00  0.00    -0.013 C 
HETATM   23  C12 UNL     1       2.363   7.626  26.150  1.00  0.00     0.009 C 
HETATM   24  C17 UNL     1       3.940   6.205  24.957  1.00  0.00     0.011 C 
HETATM   25  C13 UNL     1       2.798   8.829  25.326  1.00  0.00    -0.013 C 
HETATM   26  C15 UNL     1       3.373   8.460  24.008  1.00  0.00     0.011 C 
HETATM   27  C16 UNL     1       4.313   7.309  24.033  1.00  0.00     0.009 C 
ENDBRANCH  15  17
ENDBRANCH   1  15
TORSDOF 6
ENDMDL
MODEL 5
REMARK VINA RESULT: -5.909497198      4.933      6.031
REMARK  6 active torsions:
REMARK  status: ('A' for Active; 'I' for Inactive)
REMARK    1  A    between atoms: C2_2  and  C4_4 
REMARK    2  A    between atoms: C4_4  and  N1_5 
REMARK       I    between atoms: N1_5  and  C5_7 
REMARK       I    between atoms: C5_7  and  N2_9 
REMARK    3  A    between atoms: N2_9  and  N3_11 
REMARK    4  A    between atoms: N3_11  and  C6_13 
REMARK    5  A    between atoms: C6_13  and  N4_15 
REMARK    6  A    between atoms: N4_15  and  C7_17 
ROOT
HETATM    1  C6  UNL     1      11.864  11.000  19.764  1.00  0.00     0.186 C 
HETATM    2  S1  UNL     1      12.386   9.615  20.413  1.00  0.00    -0.040 SA
ENDROOT
BRANCH   1   3
HETATM    3  N3  UNL     1      10.510  11.364  20.081  1.00  0.00    -0.272 N 
ATOM      4  H3  UNL     1      10.099  10.958  20.921  1.00  0.00     0.189 HD
BRANCH   3   5
HETATM    5  N2  UNL     1       9.724  12.219  19.338  1.00  0.00    -0.249 N 
HETATM    6  C5  UNL     1       8.358  12.489  19.619  1.00  0.00     0.334 C 
HETATM    7  N1  UNL     1       7.588  13.374  18.852  1.00  0.00    -0.341 N 
HETATM    8  O1  UNL     1       7.820  11.908  20.601  1.00  0.00    -0.246 OA
ATOM      9  H1  UNL     1       8.034  13.835  18.058  1.00  0.00     0.164 HD
ATOM     10  H2  UNL     1      10.149  12.687  18.537  1.00  0.00     0.192 HD
BRANCH   7  11
HETATM   11  C4  UNL     1       6.213  13.669  19.114  1.00  0.00     0.128 C 
BRANCH  11  12
HETATM   12  C2  UNL     1       5.220  12.693  18.583  1.00  0.00    -0.005 C 
HETATM   13  C1  UNL     1       4.318  13.443  17.619  1.00  0.00     0.011 C 
HETATM   14  C3  UNL     1       4.337  12.158  19.697  1.00  0.00     0.011 C 
ENDBRANCH  11  12
ENDBRANCH   7  11
ENDBRANCH   3   5
ENDBRANCH   1   3
BRANCH   1  15
HETATM   15  N4  UNL     1      12.672  11.822  18.962  1.00  0.00    -0.361 N 
ATOM     16  H4  UNL     1      12.635  11.693  17.952  1.00  0.00     0.162 HD
BRANCH  15  17
HETATM   17  C7  UNL     1      13.544  12.830  19.482  1.00  0.00     0.088 C 
HETATM   18  C8  UNL     1      14.962  12.424  19.352  1.00  0.00     0.030 C 
HETATM   19  C9  UNL     1      15.971  13.508  19.647  1.00  0.00    -0.012 C 
HETATM   20  C10 UNL     1      15.560  14.485  20.689  1.00  0.00     0.009 C 
HETATM   21  C14 UNL     1      16.422  14.117  18.360  1.00  0.00     0.009 C 
HETATM   22  C11 UNL     1      14.787  15.661  20.150  1.00  0.00    -0.013 C 
HETATM   23  C12 UNL     1      15.327  16.212  18.873  1.00  0.00     0.009 C 
HETATM   24  C17 UNL     1      13.343  15.245  19.903  1.00  0.00     0.011 C 
HETATM   25  C13 UNL     1      15.373  15.079  17.858  1.00  0.00    -0.013 C 
HETATM   26  C15 UNL     1      14.051  14.442  17.632  1.00  0.00     0.011 C 
HETATM   27  C16 UNL     1      13.257  14.187  18.862  1.00  0.00     0.009 C 
ENDBRANCH  15  17
ENDBRANCH   1  15
TORSDOF 6
ENDMDL
