MODEL 1
REMARK VINA RESULT: -7.040109810      0.000      0.000
REMARK  3 active torsions:
REMARK  status: ('A' for Active; 'I' for Inactive)
REMARK    1  A    between atoms: C5_5  and  N1_6 
REMARK       I    between atoms: N1_6  and  C6_8 
REMARK       I    between atoms: C6_8  and  N3_12 
REMARK    2  A    between atoms: C9_15  and  N4_16 
REMARK       I    between atoms: N4_16  and  C10_18 
REMARK       I    between atoms: C10_18  and  N5_20 
REMARK    3  A    between atoms: N5_20  and  C11_22 
ROOT
HETATM    1  N1  UNL     1      14.664  11.415  20.707  1.00  0.00    -0.222 N 
ATOM      2  H1  UNL     1      15.023  10.628  20.166  1.00  0.00     0.178 HD
HETATM    3  C6  UNL     1      14.038  11.201  21.963  1.00  0.00     0.670 C 
HETATM    4  N2  UNL     1      14.194  12.115  22.864  1.00  0.00    -0.235 N 
ATOM      5  H21 UNL     1      13.745  11.960  23.767  1.00  0.00     0.174 HD
ATOM      6  H22 UNL     1      14.745  12.954  22.681  1.00  0.00     0.174 HD
HETATM    7  N3  UNL     1      13.261  10.017  22.221  1.00  0.00    -0.218 N 
HETATM    8  C7  UNL     1      12.370  10.049  23.328  1.00  0.00     0.143 C 
HETATM    9  C8  UNL     1      11.567   8.847  23.576  1.00  0.00     0.045 C 
HETATM   10  C9  UNL     1      11.659   7.748  22.587  1.00  0.00     0.089 C 
HETATM   11  C14 UNL     1      13.008   7.596  21.938  1.00  0.00     0.045 C 
HETATM   12  C15 UNL     1      13.461   8.898  21.327  1.00  0.00     0.143 C 
ENDROOT
BRANCH   1  13
HETATM   13  C5  UNL     1      14.786  12.749  20.210  1.00  0.00     0.099 C 
HETATM   14  C4  UNL     1      13.844  13.047  19.055  1.00  0.00     0.026 C 
HETATM   15  C3  UNL     1      13.830  14.549  18.880  1.00  0.00     0.006 C 
HETATM   16  C2  UNL     1      14.928  15.240  19.628  1.00  0.00    -0.019 C 
HETATM   17  C1  UNL     1      15.089  16.634  19.004  1.00  0.00     0.010 C 
HETATM   18  C17 UNL     1      16.256  14.563  19.527  1.00  0.00     0.006 C 
HETATM   19  C16 UNL     1      16.180  13.062  19.711  1.00  0.00     0.026 C 
ENDBRANCH   1  13
BRANCH  10  20
HETATM   20  N4  UNL     1      11.367   6.491  23.259  1.00  0.00    -0.338 N 
HETATM   21  C10 UNL     1      10.196   5.744  23.012  1.00  0.00     0.316 C 
HETATM   22  O1  UNL     1       9.334   6.135  22.185  1.00  0.00    -0.247 OA
HETATM   23  N5  UNL     1       9.987   4.525  23.712  1.00  0.00    -0.339 N 
ATOM     24  H5  UNL     1      10.681   4.201  24.385  1.00  0.00     0.164 HD
ATOM     25  H4  UNL     1      12.038   6.135  23.939  1.00  0.00     0.164 HD
BRANCH  23  26
HETATM   26  C11 UNL     1       8.803   3.746  23.477  1.00  0.00     0.078 C 
HETATM   27  C12 UNL     1       7.986   3.650  24.733  1.00  0.00     0.032 C 
HETATM   28  C13 UNL     1       9.260   2.345  23.069  1.00  0.00     0.032 C 
ENDBRANCH  23  26
ENDBRANCH  10  20
TORSDOF 3
ENDMDL
MODEL 2
REMARK VINA RESULT: -6.786977537      1.610      2.217
REMARK  3 active torsions:
REMARK  status: ('A' for Active; 'I' for Inactive)
REMARK    1  A    between atoms: C5_5  and  N1_6 
REMARK       I    between atoms: N1_6  and  C6_8 
REMARK       I    between atoms: C6_8  and  N3_12 
REMARK    2  A    between atoms: C9_15  and  N4_16 
REMARK       I    between atoms: N4_16  and  C10_18 
REMARK       I    between atoms: C10_18  and  N5_20 
REMARK    3  A    between atoms: N5_20  and  C11_22 
ROOT
HETATM    1  N1  UNL     1      14.043  10.255  22.234  1.00  0.00    -0.222 N 
ATOM      2  H1  UNL     1      14.599   9.514  22.661  1.00  0.00     0.178 HD
HETATM    3  C6  UNL     1      12.647  10.339  22.480  1.00  0.00     0.670 C 
HETATM    4  N2  UNL     1      12.125  11.522  22.517  1.00  0.00    -0.235 N 
ATOM      5  H21 UNL     1      11.122  11.582  22.693  1.00  0.00     0.174 HD
ATOM      6  H22 UNL     1      12.691  12.358  22.377  1.00  0.00     0.174 HD
HETATM    7  N3  UNL     1      11.847   9.159  22.677  1.00  0.00    -0.218 N 
HETATM    8  C7  UNL     1      10.439   9.292  22.534  1.00  0.00     0.143 C 
HETATM    9  C8  UNL     1       9.630   8.083  22.717  1.00  0.00     0.045 C 
HETATM   10  C9  UNL     1      10.350   6.803  22.916  1.00  0.00     0.089 C 
HETATM   11  C14 UNL     1      11.653   6.921  23.659  1.00  0.00     0.045 C 
HETATM   12  C15 UNL     1      12.554   7.941  23.005  1.00  0.00     0.143 C 
ENDROOT
BRANCH   1  13
HETATM   13  C5  UNL     1      14.658  11.222  21.382  1.00  0.00     0.099 C 
HETATM   14  C4  UNL     1      14.342  11.012  19.910  1.00  0.00     0.026 C 
HETATM   15  C3  UNL     1      14.750  12.278  19.192  1.00  0.00     0.006 C 
HETATM   16  C2  UNL     1      15.596  13.185  20.031  1.00  0.00    -0.019 C 
HETATM   17  C1  UNL     1      16.311  14.148  19.071  1.00  0.00     0.010 C 
HETATM   18  C17 UNL     1      16.659  12.482  20.810  1.00  0.00     0.006 C 
HETATM   19  C16 UNL     1      16.167  11.225  21.495  1.00  0.00     0.026 C 
ENDBRANCH   1  13
BRANCH  10  20
HETATM   20  N4  UNL     1       9.502   5.907  23.686  1.00  0.00    -0.338 N 
HETATM   21  C10 UNL     1       9.752   4.523  23.798  1.00  0.00     0.316 C 
HETATM   22  O1  UNL     1      10.736   3.988  23.227  1.00  0.00    -0.247 OA
HETATM   23  N5  UNL     1       8.874   3.716  24.571  1.00  0.00    -0.339 N 
ATOM     24  H5  UNL     1       8.073   4.141  25.037  1.00  0.00     0.164 HD
ATOM     25  H4  UNL     1       8.692   6.296  24.167  1.00  0.00     0.164 HD
BRANCH  23  26
HETATM   26  C11 UNL     1       9.107   2.304  24.700  1.00  0.00     0.078 C 
HETATM   27  C12 UNL     1       8.912   1.622  23.378  1.00  0.00     0.032 C 
HETATM   28  C13 UNL     1       8.078   1.768  25.697  1.00  0.00     0.032 C 
ENDBRANCH  23  26
ENDBRANCH  10  20
TORSDOF 3
ENDMDL
MODEL 3
REMARK VINA RESULT: -6.396809430      1.902      2.349
REMARK  3 active torsions:
REMARK  status: ('A' for Active; 'I' for Inactive)
REMARK    1  A    between atoms: C5_5  and  N1_6 
REMARK       I    between atoms: N1_6  and  C6_8 
REMARK       I    between atoms: C6_8  and  N3_12 
REMARK    2  A    between atoms: C9_15  and  N4_16 
REMARK       I    between atoms: N4_16  and  C10_18 
REMARK       I    between atoms: C10_18  and  N5_20 
REMARK    3  A    between atoms: N5_20  and  C11_22 
ROOT
HETATM    1  N1  UNL     1      15.264  11.105  21.089  1.00  0.00    -0.222 N 
ATOM      2  H1  UNL     1      14.718  11.030  20.231  1.00  0.00     0.178 HD
HETATM    3  C6  UNL     1      15.249  10.056  22.046  1.00  0.00     0.670 C 
HETATM    4  N2  UNL     1      16.338   9.847  22.711  1.00  0.00    -0.235 N 
ATOM      5  H21 UNL     1      16.327   9.093  23.398  1.00  0.00     0.174 HD
ATOM      6  H22 UNL     1      17.173  10.412  22.554  1.00  0.00     0.174 HD
HETATM    7  N3  UNL     1      14.071   9.259  22.266  1.00  0.00    -0.218 N 
HETATM    8  C7  UNL     1      14.006   8.508  23.471  1.00  0.00     0.143 C 
HETATM    9  C8  UNL     1      12.796   7.712  23.701  1.00  0.00     0.045 C 
HETATM   10  C9  UNL     1      11.692   7.849  22.721  1.00  0.00     0.089 C 
HETATM   11  C14 UNL     1      12.135   8.103  21.306  1.00  0.00     0.045 C 
HETATM   12  C15 UNL     1      13.057   9.295  21.236  1.00  0.00     0.143 C 
ENDROOT
BRANCH   1  13
HETATM   13  C5  UNL     1      16.056  12.266  21.344  1.00  0.00     0.099 C 
HETATM   14  C4  UNL     1      15.345  13.300  22.202  1.00  0.00     0.026 C 
HETATM   15  C3  UNL     1      16.400  14.276  22.673  1.00  0.00     0.006 C 
HETATM   16  C2  UNL     1      17.698  14.141  21.938  1.00  0.00    -0.019 C 
HETATM   17  C1  UNL     1      18.478  15.444  22.162  1.00  0.00     0.010 C 
HETATM   18  C17 UNL     1      17.549  13.972  20.461  1.00  0.00     0.006 C 
HETATM   19  C16 UNL     1      16.471  12.981  20.077  1.00  0.00     0.026 C 
ENDBRANCH   1  13
BRANCH  10  20
HETATM   20  N4  UNL     1      10.923   6.616  22.711  1.00  0.00    -0.338 N 
HETATM   21  C10 UNL     1       9.923   6.327  23.663  1.00  0.00     0.316 C 
HETATM   22  O1  UNL     1       9.645   7.137  24.583  1.00  0.00    -0.247 OA
HETATM   23  N5  UNL     1       9.217   5.096  23.582  1.00  0.00    -0.339 N 
ATOM     24  H5  UNL     1       9.437   4.434  22.839  1.00  0.00     0.164 HD
ATOM     25  H4  UNL     1      11.114   5.928  21.982  1.00  0.00     0.164 HD
BRANCH  23  26
HETATM   26  C11 UNL     1       8.194   4.780  24.540  1.00  0.00     0.078 C 
HETATM   27  C12 UNL     1       8.206   3.311  24.847  1.00  0.00     0.032 C 
HETATM   28  C13 UNL     1       6.853   5.148  23.904  1.00  0.00     0.032 C 
ENDBRANCH  23  26
ENDBRANCH  10  20
TORSDOF 3
ENDMDL
MODEL 4
REMARK VINA RESULT: -6.377141904      1.695      2.652
REMARK  3 active torsions:
REMARK  status: ('A' for Active; 'I' for Inactive)
REMARK    1  A    between atoms: C5_5  and  N1_6 
REMARK       I    between atoms: N1_6  and  C6_8 
REMARK       I    between atoms: C6_8  and  N3_12 
REMARK    2  A    between atoms: C9_15  and  N4_16 
REMARK       I    between atoms: N4_16  and  C10_18 
REMARK       I    between atoms: C10_18  and  N5_20 
REMARK    3  A    between atoms: N5_20  and  C11_22 
ROOT
HETATM    1  N1  UNL     1      13.014  10.012  21.875  1.00  0.00    -0.222 N 
ATOM      2  H1  UNL     1      13.678   9.291  22.159  1.00  0.00     0.178 HD
HETATM    3  C6  UNL     1      11.677   9.988  22.353  1.00  0.00     0.670 C 
HETATM    4  N2  UNL     1      11.099  11.128  22.546  1.00  0.00    -0.235 N 
ATOM      5  H21 UNL     1      10.139  11.111  22.890  1.00  0.00     0.174 HD
ATOM      6  H22 UNL     1      11.583  12.008  22.364  1.00  0.00     0.174 HD
HETATM    7  N3  UNL     1      10.995   8.748  22.610  1.00  0.00    -0.218 N 
HETATM    8  C7  UNL     1       9.578   8.790  22.711  1.00  0.00     0.143 C 
HETATM    9  C8  UNL     1       8.885   7.520  22.955  1.00  0.00     0.045 C 
HETATM   10  C9  UNL     1       9.703   6.285  22.955  1.00  0.00     0.089 C 
HETATM   11  C14 UNL     1      11.104   6.457  23.477  1.00  0.00     0.045 C 
HETATM   12  C15 UNL     1      11.818   7.566  22.744  1.00  0.00     0.143 C 
ENDROOT
BRANCH   1  13
HETATM   13  C5  UNL     1      13.417  11.059  20.991  1.00  0.00     0.099 C 
HETATM   14  C4  UNL     1      12.728  11.000  19.638  1.00  0.00     0.026 C 
HETATM   15  C3  UNL     1      12.974  12.332  18.965  1.00  0.00     0.006 C 
HETATM   16  C2  UNL     1      14.032  13.147  19.641  1.00  0.00    -0.019 C 
HETATM   17  C1  UNL     1      14.503  14.200  18.627  1.00  0.00     0.010 C 
HETATM   18  C17 UNL     1      15.239  12.366  20.047  1.00  0.00     0.006 C 
HETATM   19  C16 UNL     1      14.904  11.047  20.710  1.00  0.00     0.026 C 
ENDBRANCH   1  13
BRANCH  10  20
HETATM   20  N4  UNL     1       9.054   5.296  23.801  1.00  0.00    -0.338 N 
HETATM   21  C10 UNL     1       9.428   3.936  23.818  1.00  0.00     0.316 C 
HETATM   22  O1  UNL     1      10.358   3.506  23.089  1.00  0.00    -0.247 OA
HETATM   23  N5  UNL     1       8.742   3.034  24.674  1.00  0.00    -0.339 N 
ATOM     24  H5  UNL     1       7.986   3.375  25.268  1.00  0.00     0.164 HD
ATOM     25  H4  UNL     1       8.293   5.599  24.410  1.00  0.00     0.164 HD
BRANCH  23  26
HETATM   26  C11 UNL     1       9.105   1.645  24.709  1.00  0.00     0.078 C 
HETATM   27  C12 UNL     1       8.916   1.024  23.356  1.00  0.00     0.032 C 
HETATM   28  C13 UNL     1       8.172   0.961  25.709  1.00  0.00     0.032 C 
ENDBRANCH  23  26
ENDBRANCH  10  20
TORSDOF 3
ENDMDL
MODEL 5
REMARK VINA RESULT: -6.315903387      2.450      9.685
REMARK  3 active torsions:
REMARK  status: ('A' for Active; 'I' for Inactive)
REMARK    1  A    between atoms: C5_5  and  N1_6 
REMARK       I    between atoms: N1_6  and  C6_8 
REMARK       I    between atoms: C6_8  and  N3_12 
REMARK    2  A    between atoms: C9_15  and  N4_16 
REMARK       I    between atoms: N4_16  and  C10_18 
REMARK       I    between atoms: C10_18  and  N5_20 
REMARK    3  A    between atoms: N5_20  and  C11_22 
ROOT
HETATM    1  N1  UNL     1       9.904   7.707  23.542  1.00  0.00    -0.222 N 
ATOM      2  H1  UNL     1       9.431   8.579  23.780  1.00  0.00     0.178 HD
HETATM    3  C6  UNL     1      11.112   7.723  22.797  1.00  0.00     0.670 C 
HETATM    4  N2  UNL     1      11.981   6.803  23.061  1.00  0.00    -0.235 N 
ATOM      5  H21 UNL     1      12.850   6.815  22.526  1.00  0.00     0.174 HD
ATOM      6  H22 UNL     1      11.807   6.096  23.775  1.00  0.00     0.174 HD
HETATM    7  N3  UNL     1      11.359   8.720  21.789  1.00  0.00    -0.218 N 
HETATM    8  C7  UNL     1      12.386   8.454  20.843  1.00  0.00     0.143 C 
HETATM    9  C8  UNL     1      12.620   9.465  19.806  1.00  0.00     0.045 C 
HETATM   10  C9  UNL     1      11.693  10.619  19.756  1.00  0.00     0.089 C 
HETATM   11  C14 UNL     1      11.166  11.063  21.093  1.00  0.00     0.045 C 
HETATM   12  C15 UNL     1      10.535   9.909  21.833  1.00  0.00     0.143 C 
ENDROOT
BRANCH   1  13
HETATM   13  C5  UNL     1       9.359   6.453  23.955  1.00  0.00     0.099 C 
HETATM   14  C4  UNL     1       8.841   5.613  22.799  1.00  0.00     0.026 C 
HETATM   15  C3  UNL     1       8.635   4.214  23.334  1.00  0.00     0.006 C 
HETATM   16  C2  UNL     1       8.682   4.141  24.829  1.00  0.00    -0.019 C 
HETATM   17  C1  UNL     1       8.006   2.824  25.236  1.00  0.00     0.010 C 
HETATM   18  C17 UNL     1       7.942   5.241  25.517  1.00  0.00     0.006 C 
HETATM   19  C16 UNL     1       8.202   6.606  24.918  1.00  0.00     0.026 C 
ENDBRANCH   1  13
BRANCH  10  20
HETATM   20  N4  UNL     1      12.394  11.755  19.178  1.00  0.00    -0.338 N 
HETATM   21  C10 UNL     1      13.740  12.057  19.476  1.00  0.00     0.316 C 
HETATM   22  O1  UNL     1      14.409  11.347  20.268  1.00  0.00    -0.247 OA
HETATM   23  N5  UNL     1      14.352  13.187  18.869  1.00  0.00    -0.339 N 
ATOM     24  H5  UNL     1      13.816  13.769  18.225  1.00  0.00     0.164 HD
ATOM     25  H4  UNL     1      11.891  12.360  18.529  1.00  0.00     0.164 HD
BRANCH  23  26
HETATM   26  C11 UNL     1      15.720  13.515  19.156  1.00  0.00     0.078 C 
HETATM   27  C12 UNL     1      15.788  14.643  20.144  1.00  0.00     0.032 C 
HETATM   28  C13 UNL     1      16.361  13.962  17.841  1.00  0.00     0.032 C 
ENDBRANCH  23  26
ENDBRANCH  10  20
TORSDOF 3
ENDMDL
