MODEL 1
REMARK VINA RESULT: -8.385943566      0.000      0.000
REMARK  20 active torsions:
REMARK  status: ('A' for Active; 'I' for Inactive)
REMARK       I    between atoms: C2_2  and  N1_4 
REMARK    1  A    between atoms: N1_4  and  C3_6 
REMARK    2  A    between atoms: C5_10  and  C6_11 
REMARK       I    between atoms: C6_11  and  N3_13 
REMARK    3  A    between atoms: N3_13  and  C7_15 
REMARK    4  A    between atoms: C7_15  and  C8_16 
REMARK    5  A    between atoms: C8_16  and  C9_17 
REMARK    6  A    between atoms: C9_17  and  N4_18 
REMARK    7  A    between atoms: N4_18  and  C12_21 
REMARK    8  A    between atoms: C12_21  and  C13_22 
REMARK    9  A    between atoms: C13_22  and  C14_23 
REMARK   10  A    between atoms: C14_23  and  S1_24 
REMARK   11  A    between atoms: S1_24  and  N5_27 
REMARK   12  A    between atoms: N5_27  and  C15_29 
REMARK   13  A    between atoms: C15_29  and  C16_30 
REMARK   14  A    between atoms: C16_30  and  C17_31 
REMARK   15  A    between atoms: C17_31  and  C18_32 
REMARK   16  A    between atoms: C18_32  and  N6_33 
REMARK   17  A    between atoms: N9_39  and  C21_41 
REMARK   18  A    between atoms: C21_41  and  C22_42 
REMARK   19  A    between atoms: C22_42  and  C23_43 
REMARK   20  A    between atoms: C23_43  and  N10_44 
ROOT
HETATM    1  C6  UNL     1      -8.706  15.256  26.624  1.00  0.00     0.256 C 
HETATM    2  O2  UNL     1      -7.941  14.286  26.878  1.00  0.00    -0.267 OA
HETATM    3  N3  UNL     1     -10.039  15.388  27.165  1.00  0.00    -0.357 N 
ATOM      4  H3  UNL     1     -10.590  16.240  27.062  1.00  0.00     0.162 HD
ENDROOT
BRANCH   1   5
HETATM    5  C5  UNL     1      -8.327  16.314  25.668  1.00  0.00     0.092 A 
HETATM    6  C4  UNL     1      -9.214  16.382  24.551  1.00  0.00     0.127 A 
HETATM    7  N2  UNL     1      -8.856  16.992  23.495  1.00  0.00    -0.200 N 
HETATM    8  C3  UNL     1      -7.651  17.578  23.383  1.00  0.00     0.686 A 
ATOM      9  H2  UNL     1      -9.502  17.038  22.707  1.00  0.00     0.183 HD
HETATM   10  N13 UNL     1      -6.873  17.491  24.411  1.00  0.00    -0.176 N 
HETATM   11  C20 UNL     1      -7.146  16.901  25.617  1.00  0.00     0.134 A 
ATOM     12  H13 UNL     1      -5.948  17.912  24.313  1.00  0.00     0.186 HD
HETATM   13  N9  UNL     1      -6.470  16.817  26.661  1.00  0.00    -0.375 N 
ATOM     14  H9  UNL     1      -6.982  16.297  27.374  1.00  0.00     0.161 HD
BRANCH   8  15
HETATM   15  N1  UNL     1      -7.411  18.026  22.186  1.00  0.00    -0.160 N 
HETATM   16  C2  UNL     1      -8.162  17.545  21.159  1.00  0.00     0.231 C 
HETATM   17  C1  UNL     1      -7.410  16.100  20.803  1.00  0.00     0.118 C 
HETATM   18  O1  UNL     1      -9.106  17.806  20.560  1.00  0.00    -0.273 OA
ATOM     19  H1  UNL     1      -6.679  18.718  22.022  1.00  0.00     0.187 HD
ENDBRANCH   8  15
BRANCH  13  20
HETATM   20  C21 UNL     1      -5.200  17.227  27.163  1.00  0.00     0.126 C 
BRANCH  20  21
HETATM   21  C22 UNL     1      -5.235  18.803  27.195  1.00  0.00     0.064 C 
BRANCH  21  22
HETATM   22  C23 UNL     1      -4.203  19.256  26.169  1.00  0.00     0.065 C 
BRANCH  22  23
HETATM   23  N10 UNL     1      -4.677  20.266  25.331  1.00  0.00    -0.346 N 
HETATM   24  C24 UNL     1      -4.836  20.326  24.070  1.00  0.00     0.200 C 
HETATM   25  N11 UNL     1      -4.443  19.237  23.228  1.00  0.00    -0.067 NA
HETATM   26  N12 UNL     1      -5.510  21.459  23.540  1.00  0.00    -0.067 NA
ATOM     27  H10 UNL     1      -4.947  21.118  25.823  1.00  0.00     0.167 HD
ENDBRANCH  22  23
ENDBRANCH  21  22
ENDBRANCH  20  21
ENDBRANCH  13  20
ENDBRANCH   1   5
BRANCH   3  28
HETATM   28  C7  UNL     1     -10.533  14.224  27.862  1.00  0.00     0.124 C 
BRANCH  28  29
HETATM   29  C8  UNL     1     -11.894  14.047  27.186  1.00  0.00     0.048 C 
BRANCH  29  30
HETATM   30  C9  UNL     1     -12.898  15.105  27.526  1.00  0.00     0.238 C 
BRANCH  30  31
HETATM   31  N4  UNL     1     -14.104  14.361  27.987  1.00  0.00    -0.075 N 
HETATM   32  C10 UNL     1     -13.900  12.983  27.917  1.00  0.00     0.272 C 
HETATM   33  C11 UNL     1     -15.206  14.841  27.231  1.00  0.00     0.272 C 
BRANCH  31  34
HETATM   34  C12 UNL     1     -14.107  14.892  29.384  1.00  0.00     0.237 C 
BRANCH  34  35
HETATM   35  C13 UNL     1     -13.653  13.844  30.291  1.00  0.00     0.045 C 
BRANCH  35  36
HETATM   36  C14 UNL     1     -12.558  14.122  31.282  1.00  0.00     0.165 C 
BRANCH  36  37
HETATM   37  S1  UNL     1     -13.325  14.409  32.908  1.00  0.00     0.236 S 
HETATM   38  O3  UNL     1     -14.737  13.969  32.845  1.00  0.00    -0.205 OA
HETATM   39  O4  UNL     1     -13.110  15.729  33.326  1.00  0.00    -0.205 OA
BRANCH  37  40
HETATM   40  N5  UNL     1     -12.392  13.324  33.968  1.00  0.00    -0.253 N 
ATOM     41  H5  UNL     1     -12.571  12.349  34.210  1.00  0.00     0.188 HD
BRANCH  40  42
HETATM   42  C15 UNL     1     -11.393  14.124  34.364  1.00  0.00    -0.061 C 
BRANCH  42  43
HETATM   43  C16 UNL     1     -10.310  14.905  34.757  1.00  0.00     0.106 C 
BRANCH  43  44
HETATM   44  C17 UNL     1      -9.164  15.197  33.716  1.00  0.00     0.033 C 
BRANCH  44  45
HETATM   45  C18 UNL     1      -9.648  16.228  32.687  1.00  0.00     0.123 C 
BRANCH  45  46
HETATM   46  N6  UNL     1      -8.606  16.316  31.679  1.00  0.00    -0.367 N 
HETATM   47  C19 UNL     1      -9.086  16.588  30.459  1.00  0.00     0.196 C 
HETATM   48  N7  UNL     1      -8.079  16.666  29.439  1.00  0.00    -0.067 NA
HETATM   49  N8  UNL     1     -10.430  16.887  30.212  1.00  0.00    -0.067 NA
ATOM     50  H6  UNL     1      -7.614  16.185  31.879  1.00  0.00     0.161 HD
ENDBRANCH  45  46
ENDBRANCH  44  45
ENDBRANCH  43  44
ENDBRANCH  42  43
ENDBRANCH  40  42
ENDBRANCH  37  40
ENDBRANCH  36  37
ENDBRANCH  35  36
ENDBRANCH  34  35
ENDBRANCH  31  34
ENDBRANCH  30  31
ENDBRANCH  29  30
ENDBRANCH  28  29
ENDBRANCH   3  28
TORSDOF 20
ENDMDL
MODEL 2
REMARK VINA RESULT: -8.275199286      2.939      9.250
REMARK  20 active torsions:
REMARK  status: ('A' for Active; 'I' for Inactive)
REMARK       I    between atoms: C2_2  and  N1_4 
REMARK    1  A    between atoms: N1_4  and  C3_6 
REMARK    2  A    between atoms: C5_10  and  C6_11 
REMARK       I    between atoms: C6_11  and  N3_13 
REMARK    3  A    between atoms: N3_13  and  C7_15 
REMARK    4  A    between atoms: C7_15  and  C8_16 
REMARK    5  A    between atoms: C8_16  and  C9_17 
REMARK    6  A    between atoms: C9_17  and  N4_18 
REMARK    7  A    between atoms: N4_18  and  C12_21 
REMARK    8  A    between atoms: C12_21  and  C13_22 
REMARK    9  A    between atoms: C13_22  and  C14_23 
REMARK   10  A    between atoms: C14_23  and  S1_24 
REMARK   11  A    between atoms: S1_24  and  N5_27 
REMARK   12  A    between atoms: N5_27  and  C15_29 
REMARK   13  A    between atoms: C15_29  and  C16_30 
REMARK   14  A    between atoms: C16_30  and  C17_31 
REMARK   15  A    between atoms: C17_31  and  C18_32 
REMARK   16  A    between atoms: C18_32  and  N6_33 
REMARK   17  A    between atoms: N9_39  and  C21_41 
REMARK   18  A    between atoms: C21_41  and  C22_42 
REMARK   19  A    between atoms: C22_42  and  C23_43 
REMARK   20  A    between atoms: C23_43  and  N10_44 
ROOT
HETATM    1  C6  UNL     1      -9.274  14.629  26.996  1.00  0.00     0.256 C 
HETATM    2  O2  UNL     1      -8.116  14.292  27.365  1.00  0.00    -0.267 OA
HETATM    3  N3  UNL     1      -9.563  15.234  25.717  1.00  0.00    -0.357 N 
ATOM      4  H3  UNL     1     -10.515  15.373  25.380  1.00  0.00     0.162 HD
ENDROOT
BRANCH   1   5
HETATM    5  C5  UNL     1     -10.440  14.507  27.893  1.00  0.00     0.092 A 
HETATM    6  C4  UNL     1     -11.441  13.634  27.369  1.00  0.00     0.127 A 
HETATM    7  N2  UNL     1     -12.622  13.675  27.837  1.00  0.00    -0.200 N 
HETATM    8  C3  UNL     1     -12.975  14.528  28.814  1.00  0.00     0.686 A 
ATOM      9  H2  UNL     1     -13.326  13.041  27.458  1.00  0.00     0.183 HD
HETATM   10  N13 UNL     1     -12.044  15.307  29.259  1.00  0.00    -0.176 N 
HETATM   11  C20 UNL     1     -10.729  15.341  28.875  1.00  0.00     0.134 A 
ATOM     12  H13 UNL     1     -12.321  15.973  29.981  1.00  0.00     0.186 HD
HETATM   13  N9  UNL     1      -9.772  16.026  29.285  1.00  0.00    -0.375 N 
ATOM     14  H9  UNL     1      -8.924  15.796  28.766  1.00  0.00     0.161 HD
BRANCH   8  15
HETATM   15  N1  UNL     1     -14.251  14.524  29.060  1.00  0.00    -0.160 N 
HETATM   16  C2  UNL     1     -14.660  14.208  30.319  1.00  0.00     0.231 C 
HETATM   17  C1  UNL     1     -14.625  12.540  30.306  1.00  0.00     0.118 C 
HETATM   18  O1  UNL     1     -14.947  14.719  31.307  1.00  0.00    -0.273 OA
ATOM     19  H1  UNL     1     -14.928  14.750  28.331  1.00  0.00     0.187 HD
ENDBRANCH   8  15
BRANCH  13  20
HETATM   20  C21 UNL     1      -9.501  17.031  30.259  1.00  0.00     0.126 C 
BRANCH  20  21
HETATM   21  C22 UNL     1      -8.456  16.397  31.256  1.00  0.00     0.064 C 
BRANCH  21  22
HETATM   22  C23 UNL     1      -9.037  16.614  32.649  1.00  0.00     0.065 C 
BRANCH  22  23
HETATM   23  N10 UNL     1     -10.256  15.961  32.837  1.00  0.00    -0.346 N 
HETATM   24  C24 UNL     1     -11.055  15.913  33.826  1.00  0.00     0.200 C 
HETATM   25  N11 UNL     1     -10.737  16.566  35.060  1.00  0.00    -0.067 NA
HETATM   26  N12 UNL     1     -12.314  15.283  33.630  1.00  0.00    -0.067 NA
ATOM     27  H10 UNL     1     -10.564  15.420  32.029  1.00  0.00     0.167 HD
ENDBRANCH  22  23
ENDBRANCH  21  22
ENDBRANCH  20  21
ENDBRANCH  13  20
ENDBRANCH   1   5
BRANCH   3  28
HETATM   28  C7  UNL     1      -8.404  15.629  24.952  1.00  0.00     0.124 C 
BRANCH  28  29
HETATM   29  C8  UNL     1      -8.859  15.255  23.540  1.00  0.00     0.048 C 
BRANCH  29  30
HETATM   30  C9  UNL     1      -9.481  16.379  22.771  1.00  0.00     0.238 C 
BRANCH  30  31
HETATM   31  N4  UNL     1      -9.165  16.094  21.343  1.00  0.00    -0.075 N 
HETATM   32  C10 UNL     1     -10.283  15.598  20.672  1.00  0.00     0.272 C 
HETATM   33  C11 UNL     1      -8.031  15.240  21.327  1.00  0.00     0.272 C 
BRANCH  31  34
HETATM   34  C12 UNL     1      -8.817  17.497  20.963  1.00  0.00     0.237 C 
BRANCH  34  35
HETATM   35  C13 UNL     1      -7.380  17.689  21.116  1.00  0.00     0.045 C 
BRANCH  35  36
HETATM   36  C14 UNL     1      -6.852  18.756  22.034  1.00  0.00     0.165 C 
BRANCH  36  37
HETATM   37  S1  UNL     1      -5.106  18.382  22.390  1.00  0.00     0.236 S 
HETATM   38  O3  UNL     1      -4.416  19.645  22.735  1.00  0.00    -0.205 OA
HETATM   39  O4  UNL     1      -4.541  17.637  21.346  1.00  0.00    -0.205 OA
BRANCH  37  40
HETATM   40  N5  UNL     1      -5.225  17.336  23.827  1.00  0.00    -0.253 N 
ATOM     41  H5  UNL     1      -5.530  16.366  23.894  1.00  0.00     0.188 HD
BRANCH  40  42
HETATM   42  C15 UNL     1      -4.806  18.160  24.798  1.00  0.00    -0.061 C 
BRANCH  42  43
HETATM   43  C16 UNL     1      -4.341  18.961  25.837  1.00  0.00     0.106 C 
BRANCH  43  44
HETATM   44  C17 UNL     1      -5.200  20.204  26.284  1.00  0.00     0.033 C 
BRANCH  44  45
HETATM   45  C18 UNL     1      -5.987  19.861  27.555  1.00  0.00     0.123 C 
BRANCH  45  46
HETATM   46  N6  UNL     1      -7.371  19.696  27.144  1.00  0.00    -0.367 N 
HETATM   47  C19 UNL     1      -7.802  18.435  27.267  1.00  0.00     0.196 C 
HETATM   48  N7  UNL     1      -9.162  18.239  26.853  1.00  0.00    -0.067 NA
HETATM   49  N8  UNL     1      -7.042  17.417  27.854  1.00  0.00    -0.067 NA
ATOM     50  H6  UNL     1      -7.952  20.460  26.798  1.00  0.00     0.161 HD
ENDBRANCH  45  46
ENDBRANCH  44  45
ENDBRANCH  43  44
ENDBRANCH  42  43
ENDBRANCH  40  42
ENDBRANCH  37  40
ENDBRANCH  36  37
ENDBRANCH  35  36
ENDBRANCH  34  35
ENDBRANCH  31  34
ENDBRANCH  30  31
ENDBRANCH  29  30
ENDBRANCH  28  29
ENDBRANCH   3  28
TORSDOF 20
ENDMDL
MODEL 3
REMARK VINA RESULT: -8.048538766      1.736      3.602
REMARK  20 active torsions:
REMARK  status: ('A' for Active; 'I' for Inactive)
REMARK       I    between atoms: C2_2  and  N1_4 
REMARK    1  A    between atoms: N1_4  and  C3_6 
REMARK    2  A    between atoms: C5_10  and  C6_11 
REMARK       I    between atoms: C6_11  and  N3_13 
REMARK    3  A    between atoms: N3_13  and  C7_15 
REMARK    4  A    between atoms: C7_15  and  C8_16 
REMARK    5  A    between atoms: C8_16  and  C9_17 
REMARK    6  A    between atoms: C9_17  and  N4_18 
REMARK    7  A    between atoms: N4_18  and  C12_21 
REMARK    8  A    between atoms: C12_21  and  C13_22 
REMARK    9  A    between atoms: C13_22  and  C14_23 
REMARK   10  A    between atoms: C14_23  and  S1_24 
REMARK   11  A    between atoms: S1_24  and  N5_27 
REMARK   12  A    between atoms: N5_27  and  C15_29 
REMARK   13  A    between atoms: C15_29  and  C16_30 
REMARK   14  A    between atoms: C16_30  and  C17_31 
REMARK   15  A    between atoms: C17_31  and  C18_32 
REMARK   16  A    between atoms: C18_32  and  N6_33 
REMARK   17  A    between atoms: N9_39  and  C21_41 
REMARK   18  A    between atoms: C21_41  and  C22_42 
REMARK   19  A    between atoms: C22_42  and  C23_43 
REMARK   20  A    between atoms: C23_43  and  N10_44 
ROOT
HETATM    1  C6  UNL     1      -8.957  15.390  26.400  1.00  0.00     0.256 C 
HETATM    2  O2  UNL     1      -8.235  14.445  26.820  1.00  0.00    -0.267 OA
HETATM    3  N3  UNL     1     -10.362  15.521  26.707  1.00  0.00    -0.357 N 
ATOM      4  H3  UNL     1     -10.897  16.358  26.477  1.00  0.00     0.162 HD
ENDROOT
BRANCH   1   5
HETATM    5  C5  UNL     1      -8.436  16.412  25.472  1.00  0.00     0.092 A 
HETATM    6  C4  UNL     1      -9.219  16.518  24.282  1.00  0.00     0.127 A 
HETATM    7  N2  UNL     1      -8.736  17.093  23.257  1.00  0.00    -0.200 N 
HETATM    8  C3  UNL     1      -7.494  17.607  23.245  1.00  0.00     0.686 A 
ATOM      9  H2  UNL     1      -9.309  17.167  22.416  1.00  0.00     0.183 HD
HETATM   10  N13 UNL     1      -6.813  17.488  24.337  1.00  0.00    -0.176 N 
HETATM   11  C20 UNL     1      -7.222  16.929  25.519  1.00  0.00     0.134 A 
ATOM     12  H13 UNL     1      -5.860  17.852  24.316  1.00  0.00     0.186 HD
HETATM   13  N9  UNL     1      -6.644  16.819  26.618  1.00  0.00    -0.375 N 
ATOM     14  H9  UNL     1      -7.245  16.338  27.288  1.00  0.00     0.161 HD
BRANCH   8  15
HETATM   15  N1  UNL     1      -7.126  18.025  22.070  1.00  0.00    -0.160 N 
HETATM   16  C2  UNL     1      -7.867  17.647  20.994  1.00  0.00     0.231 C 
HETATM   17  C1  UNL     1      -7.282  16.119  20.668  1.00  0.00     0.118 C 
HETATM   18  O1  UNL     1      -8.732  18.027  20.342  1.00  0.00    -0.273 OA
ATOM     19  H1  UNL     1      -6.304  18.620  21.958  1.00  0.00     0.187 HD
ENDBRANCH   8  15
BRANCH  13  20
HETATM   20  C21 UNL     1      -5.400  17.161  27.224  1.00  0.00     0.126 C 
BRANCH  20  21
HETATM   21  C22 UNL     1      -5.389  18.734  27.333  1.00  0.00     0.064 C 
BRANCH  21  22
HETATM   22  C23 UNL     1      -4.250  19.197  26.432  1.00  0.00     0.065 C 
BRANCH  22  23
HETATM   23  N10 UNL     1      -4.658  20.130  25.478  1.00  0.00    -0.346 N 
HETATM   24  C24 UNL     1      -4.696  20.091  24.207  1.00  0.00     0.200 C 
HETATM   25  N11 UNL     1      -4.207  18.950  23.492  1.00  0.00    -0.067 NA
HETATM   26  N12 UNL     1      -5.334  21.164  23.529  1.00  0.00    -0.067 NA
ATOM     27  H10 UNL     1      -4.988  21.010  25.875  1.00  0.00     0.167 HD
ENDBRANCH  22  23
ENDBRANCH  21  22
ENDBRANCH  20  21
ENDBRANCH  13  20
ENDBRANCH   1   5
BRANCH   3  28
HETATM   28  C7  UNL     1     -10.953  14.380  27.366  1.00  0.00     0.124 C 
BRANCH  28  29
HETATM   29  C8  UNL     1     -11.303  14.989  28.725  1.00  0.00     0.048 C 
BRANCH  29  30
HETATM   30  C9  UNL     1     -10.241  14.829  29.768  1.00  0.00     0.238 C 
BRANCH  30  31
HETATM   31  N4  UNL     1      -9.936  16.213  30.227  1.00  0.00    -0.075 N 
HETATM   32  C10 UNL     1     -10.704  17.151  29.535  1.00  0.00     0.272 C 
HETATM   33  C11 UNL     1      -8.532  16.392  30.115  1.00  0.00     0.272 C 
BRANCH  31  34
HETATM   34  C12 UNL     1     -10.367  16.021  31.645  1.00  0.00     0.237 C 
BRANCH  34  35
HETATM   35  C13 UNL     1      -9.184  15.933  32.493  1.00  0.00     0.045 C 
BRANCH  35  36
HETATM   36  C14 UNL     1      -9.134  14.942  33.622  1.00  0.00     0.165 C 
BRANCH  36  37
HETATM   37  S1  UNL     1      -9.696  15.782  35.137  1.00  0.00     0.236 S 
HETATM   38  O3  UNL     1     -10.362  17.047  34.753  1.00  0.00    -0.205 OA
HETATM   39  O4  UNL     1      -8.643  15.895  36.055  1.00  0.00    -0.205 OA
BRANCH  37  40
HETATM   40  N5  UNL     1     -10.891  14.634  35.790  1.00  0.00    -0.253 N 
ATOM     41  H5  UNL     1     -10.839  14.061  36.632  1.00  0.00     0.188 HD
BRANCH  40  42
HETATM   42  C15 UNL     1     -11.875  14.723  34.886  1.00  0.00    -0.061 C 
BRANCH  42  43
HETATM   43  C16 UNL     1     -12.863  14.770  33.906  1.00  0.00     0.106 C 
BRANCH  43  44
HETATM   44  C17 UNL     1     -13.095  13.503  32.998  1.00  0.00     0.033 C 
BRANCH  44  45
HETATM   45  C18 UNL     1     -13.632  13.939  31.628  1.00  0.00     0.123 C 
BRANCH  45  46
HETATM   46  N6  UNL     1     -15.070  14.073  31.779  1.00  0.00    -0.367 N 
HETATM   47  C19 UNL     1     -15.690  14.348  30.624  1.00  0.00     0.196 C 
HETATM   48  N7  UNL     1     -17.111  14.502  30.746  1.00  0.00    -0.067 NA
HETATM   49  N8  UNL     1     -15.035  14.369  29.388  1.00  0.00    -0.067 NA
ATOM     50  H6  UNL     1     -15.557  13.969  32.669  1.00  0.00     0.161 HD
ENDBRANCH  45  46
ENDBRANCH  44  45
ENDBRANCH  43  44
ENDBRANCH  42  43
ENDBRANCH  40  42
ENDBRANCH  37  40
ENDBRANCH  36  37
ENDBRANCH  35  36
ENDBRANCH  34  35
ENDBRANCH  31  34
ENDBRANCH  30  31
ENDBRANCH  29  30
ENDBRANCH  28  29
ENDBRANCH   3  28
TORSDOF 20
ENDMDL
MODEL 4
REMARK VINA RESULT: -7.797464452      2.001      5.219
REMARK  20 active torsions:
REMARK  status: ('A' for Active; 'I' for Inactive)
REMARK       I    between atoms: C2_2  and  N1_4 
REMARK    1  A    between atoms: N1_4  and  C3_6 
REMARK    2  A    between atoms: C5_10  and  C6_11 
REMARK       I    between atoms: C6_11  and  N3_13 
REMARK    3  A    between atoms: N3_13  and  C7_15 
REMARK    4  A    between atoms: C7_15  and  C8_16 
REMARK    5  A    between atoms: C8_16  and  C9_17 
REMARK    6  A    between atoms: C9_17  and  N4_18 
REMARK    7  A    between atoms: N4_18  and  C12_21 
REMARK    8  A    between atoms: C12_21  and  C13_22 
REMARK    9  A    between atoms: C13_22  and  C14_23 
REMARK   10  A    between atoms: C14_23  and  S1_24 
REMARK   11  A    between atoms: S1_24  and  N5_27 
REMARK   12  A    between atoms: N5_27  and  C15_29 
REMARK   13  A    between atoms: C15_29  and  C16_30 
REMARK   14  A    between atoms: C16_30  and  C17_31 
REMARK   15  A    between atoms: C17_31  and  C18_32 
REMARK   16  A    between atoms: C18_32  and  N6_33 
REMARK   17  A    between atoms: N9_39  and  C21_41 
REMARK   18  A    between atoms: C21_41  and  C22_42 
REMARK   19  A    between atoms: C22_42  and  C23_43 
REMARK   20  A    between atoms: C23_43  and  N10_44 
ROOT
HETATM    1  C6  UNL     1      -8.671  17.409  27.955  1.00  0.00     0.256 C 
HETATM    2  O2  UNL     1      -9.831  17.818  27.675  1.00  0.00    -0.267 OA
HETATM    3  N3  UNL     1      -8.319  16.801  29.217  1.00  0.00    -0.357 N 
ATOM      4  H3  UNL     1      -7.417  16.353  29.376  1.00  0.00     0.162 HD
ENDROOT
BRANCH   1   5
HETATM    5  C5  UNL     1      -7.537  17.600  27.031  1.00  0.00     0.092 A 
HETATM    6  C4  UNL     1      -6.418  18.224  27.663  1.00  0.00     0.127 A 
HETATM    7  N2  UNL     1      -5.506  18.754  26.954  1.00  0.00    -0.200 N 
HETATM    8  C3  UNL     1      -5.558  18.759  25.610  1.00  0.00     0.686 A 
ATOM      9  H2  UNL     1      -4.710  19.190  27.419  1.00  0.00     0.183 HD
HETATM   10  N13 UNL     1      -6.587  18.190  25.074  1.00  0.00    -0.176 N 
HETATM   11  C20 UNL     1      -7.617  17.551  25.714  1.00  0.00     0.134 A 
ATOM     12  H13 UNL     1      -6.638  18.221  24.055  1.00  0.00     0.186 HD
HETATM   13  N9  UNL     1      -8.611  16.946  25.267  1.00  0.00    -0.375 N 
ATOM     14  H9  UNL     1      -9.184  16.593  26.033  1.00  0.00     0.161 HD
BRANCH   8  15
HETATM   15  N1  UNL     1      -4.614  19.468  25.066  1.00  0.00    -0.160 N 
HETATM   16  C2  UNL     1      -4.177  19.110  23.828  1.00  0.00     0.231 C 
HETATM   17  C1  UNL     1      -3.102  17.880  24.163  1.00  0.00     0.118 C 
HETATM   18  O1  UNL     1      -4.360  19.360  22.722  1.00  0.00    -0.273 OA
ATOM     19  H1  UNL     1      -4.212  20.270  25.552  1.00  0.00     0.187 HD
ENDBRANCH   8  15
BRANCH  13  20
HETATM   20  C21 UNL     1      -9.190  16.597  24.012  1.00  0.00     0.126 C 
BRANCH  20  21
HETATM   21  C22 UNL     1      -8.437  15.297  23.535  1.00  0.00     0.064 C 
BRANCH  21  22
HETATM   22  C23 UNL     1      -8.548  15.297  22.014  1.00  0.00     0.065 C 
BRANCH  22  23
HETATM   23  N10 UNL     1      -7.493  15.968  21.393  1.00  0.00    -0.346 N 
HETATM   24  C24 UNL     1      -7.432  17.083  20.782  1.00  0.00     0.200 C 
HETATM   25  N11 UNL     1      -8.608  17.874  20.577  1.00  0.00    -0.067 NA
HETATM   26  N12 UNL     1      -6.149  17.564  20.408  1.00  0.00    -0.067 NA
ATOM     27  H10 UNL     1      -6.604  15.472  21.437  1.00  0.00     0.167 HD
ENDBRANCH  22  23
ENDBRANCH  21  22
ENDBRANCH  20  21
ENDBRANCH  13  20
ENDBRANCH   1   5
BRANCH   3  28
HETATM   28  C7  UNL     1      -9.340  16.874  30.236  1.00  0.00     0.124 C 
BRANCH  28  29
HETATM   29  C8  UNL     1      -8.562  16.364  31.450  1.00  0.00     0.048 C 
BRANCH  29  30
HETATM   30  C9  UNL     1      -8.904  17.047  32.738  1.00  0.00     0.238 C 
BRANCH  30  31
HETATM   31  N4  UNL     1      -9.484  15.981  33.601  1.00  0.00    -0.075 N 
HETATM   32  C10 UNL     1      -9.418  16.337  34.949  1.00  0.00     0.272 C 
HETATM   33  C11 UNL     1      -8.823  14.768  33.271  1.00  0.00     0.272 C 
BRANCH  31  34
HETATM   34  C12 UNL     1     -10.867  16.040  33.038  1.00  0.00     0.237 C 
BRANCH  34  35
HETATM   35  C13 UNL     1     -11.507  14.741  33.213  1.00  0.00     0.045 C 
BRANCH  35  36
HETATM   36  C14 UNL     1     -12.990  14.596  33.021  1.00  0.00     0.165 C 
BRANCH  36  37
HETATM   37  S1  UNL     1     -13.282  13.925  31.353  1.00  0.00     0.236 S 
HETATM   38  O3  UNL     1     -13.602  12.486  31.476  1.00  0.00    -0.205 OA
HETATM   39  O4  UNL     1     -12.216  14.248  30.502  1.00  0.00    -0.205 OA
BRANCH  37  40
HETATM   40  N5  UNL     1     -14.720  14.831  30.822  1.00  0.00    -0.253 N 
ATOM     41  H5  UNL     1     -15.351  15.416  31.370  1.00  0.00     0.188 HD
BRANCH  40  42
HETATM   42  C15 UNL     1     -14.755  14.543  29.514  1.00  0.00    -0.061 C 
BRANCH  42  43
HETATM   43  C16 UNL     1     -14.787  14.312  28.142  1.00  0.00     0.106 C 
BRANCH  43  44
HETATM   44  C17 UNL     1     -14.205  12.958  27.584  1.00  0.00     0.033 C 
BRANCH  44  45
HETATM   45  C18 UNL     1     -13.021  13.248  26.651  1.00  0.00     0.123 C 
BRANCH  45  46
HETATM   46  N6  UNL     1     -11.829  13.201  27.480  1.00  0.00    -0.367 N 
HETATM   47  C19 UNL     1     -10.970  14.192  27.210  1.00  0.00     0.196 C 
HETATM   48  N7  UNL     1      -9.776  14.162  28.004  1.00  0.00    -0.067 NA
HETATM   49  N8  UNL     1     -11.255  15.234  26.321  1.00  0.00    -0.067 NA
ATOM     50  H6  UNL     1     -11.664  12.489  28.192  1.00  0.00     0.161 HD
ENDBRANCH  45  46
ENDBRANCH  44  45
ENDBRANCH  43  44
ENDBRANCH  42  43
ENDBRANCH  40  42
ENDBRANCH  37  40
ENDBRANCH  36  37
ENDBRANCH  35  36
ENDBRANCH  34  35
ENDBRANCH  31  34
ENDBRANCH  30  31
ENDBRANCH  29  30
ENDBRANCH  28  29
ENDBRANCH   3  28
TORSDOF 20
ENDMDL
MODEL 5
REMARK VINA RESULT: -7.736233372      1.889      3.834
REMARK  20 active torsions:
REMARK  status: ('A' for Active; 'I' for Inactive)
REMARK       I    between atoms: C2_2  and  N1_4 
REMARK    1  A    between atoms: N1_4  and  C3_6 
REMARK    2  A    between atoms: C5_10  and  C6_11 
REMARK       I    between atoms: C6_11  and  N3_13 
REMARK    3  A    between atoms: N3_13  and  C7_15 
REMARK    4  A    between atoms: C7_15  and  C8_16 
REMARK    5  A    between atoms: C8_16  and  C9_17 
REMARK    6  A    between atoms: C9_17  and  N4_18 
REMARK    7  A    between atoms: N4_18  and  C12_21 
REMARK    8  A    between atoms: C12_21  and  C13_22 
REMARK    9  A    between atoms: C13_22  and  C14_23 
REMARK   10  A    between atoms: C14_23  and  S1_24 
REMARK   11  A    between atoms: S1_24  and  N5_27 
REMARK   12  A    between atoms: N5_27  and  C15_29 
REMARK   13  A    between atoms: C15_29  and  C16_30 
REMARK   14  A    between atoms: C16_30  and  C17_31 
REMARK   15  A    between atoms: C17_31  and  C18_32 
REMARK   16  A    between atoms: C18_32  and  N6_33 
REMARK   17  A    between atoms: N9_39  and  C21_41 
REMARK   18  A    between atoms: C21_41  and  C22_42 
REMARK   19  A    between atoms: C22_42  and  C23_43 
REMARK   20  A    between atoms: C23_43  and  N10_44 
ROOT
HETATM    1  C6  UNL     1      -7.865  15.619  27.670  1.00  0.00     0.256 C 
HETATM    2  O2  UNL     1      -8.023  14.397  27.401  1.00  0.00    -0.267 OA
HETATM    3  N3  UNL     1      -8.455  16.270  28.816  1.00  0.00    -0.357 N 
ATOM      4  H3  UNL     1      -8.208  17.219  29.094  1.00  0.00     0.162 HD
ENDROOT
BRANCH   1   5
HETATM    5  C5  UNL     1      -7.119  16.522  26.771  1.00  0.00     0.092 A 
HETATM    6  C4  UNL     1      -6.083  17.232  27.449  1.00  0.00     0.127 A 
HETATM    7  N2  UNL     1      -5.576  18.270  26.918  1.00  0.00    -0.200 N 
HETATM    8  C3  UNL     1      -5.990  18.739  25.728  1.00  0.00     0.686 A 
ATOM      9  H2  UNL     1      -4.832  18.763  27.411  1.00  0.00     0.183 HD
HETATM   10  N13 UNL     1      -6.933  18.074  25.147  1.00  0.00    -0.176 N 
HETATM   11  C20 UNL     1      -7.539  16.925  25.585  1.00  0.00     0.134 A 
ATOM     12  H13 UNL     1      -7.266  18.447  24.258  1.00  0.00     0.186 HD
HETATM   13  N9  UNL     1      -8.415  16.208  25.064  1.00  0.00    -0.375 N 
ATOM     14  H9  UNL     1      -8.641  15.423  25.675  1.00  0.00     0.161 HD
BRANCH   8  15
HETATM   15  N1  UNL     1      -5.458  19.883  25.417  1.00  0.00    -0.160 N 
HETATM   16  C2  UNL     1      -4.996  20.051  24.149  1.00  0.00     0.231 C 
HETATM   17  C1  UNL     1      -3.491  19.333  24.211  1.00  0.00     0.118 C 
HETATM   18  O1  UNL     1      -5.337  20.464  23.133  1.00  0.00    -0.273 OA
ATOM     19  H1  UNL     1      -5.389  20.634  26.104  1.00  0.00     0.187 HD
ENDBRANCH   8  15
BRANCH  13  20
HETATM   20  C21 UNL     1      -9.198  16.151  23.873  1.00  0.00     0.126 C 
BRANCH  20  21
HETATM   21  C22 UNL     1      -8.549  15.024  22.983  1.00  0.00     0.064 C 
BRANCH  21  22
HETATM   22  C23 UNL     1      -8.369  15.646  21.602  1.00  0.00     0.065 C 
BRANCH  22  23
HETATM   23  N10 UNL     1      -7.094  16.177  21.408  1.00  0.00    -0.346 N 
HETATM   24  C24 UNL     1      -6.660  17.374  21.389  1.00  0.00     0.200 C 
HETATM   25  N11 UNL     1      -7.556  18.482  21.528  1.00  0.00    -0.067 NA
HETATM   26  N12 UNL     1      -5.254  17.568  21.333  1.00  0.00    -0.067 NA
ATOM     27  H10 UNL     1      -6.372  15.474  21.252  1.00  0.00     0.167 HD
ENDBRANCH  22  23
ENDBRANCH  21  22
ENDBRANCH  20  21
ENDBRANCH  13  20
ENDBRANCH   1   5
BRANCH   3  28
HETATM   28  C7  UNL     1      -9.422  15.477  29.538  1.00  0.00     0.124 C 
BRANCH  28  29
HETATM   29  C8  UNL     1     -10.718  15.927  28.861  1.00  0.00     0.048 C 
BRANCH  29  30
HETATM   30  C9  UNL     1     -11.911  15.080  29.180  1.00  0.00     0.238 C 
BRANCH  30  31
HETATM   31  N4  UNL     1     -12.566  14.821  27.867  1.00  0.00    -0.075 N 
HETATM   32  C10 UNL     1     -11.652  14.942  26.820  1.00  0.00     0.272 C 
HETATM   33  C11 UNL     1     -13.690  15.685  27.783  1.00  0.00     0.272 C 
BRANCH  31  34
HETATM   34  C12 UNL     1     -12.962  13.409  28.151  1.00  0.00     0.237 C 
BRANCH  34  35
HETATM   35  C13 UNL     1     -13.279  13.279  29.569  1.00  0.00     0.045 C 
BRANCH  35  36
HETATM   36  C14 UNL     1     -14.549  12.604  30.003  1.00  0.00     0.165 C 
BRANCH  36  37
HETATM   37  S1  UNL     1     -14.804  12.960  31.770  1.00  0.00     0.236 S 
HETATM   38  O3  UNL     1     -15.467  11.793  32.394  1.00  0.00    -0.205 OA
HETATM   39  O4  UNL     1     -15.449  14.194  31.934  1.00  0.00    -0.205 OA
BRANCH  37  40
HETATM   40  N5  UNL     1     -13.135  13.113  32.374  1.00  0.00    -0.253 N 
ATOM     41  H5  UNL     1     -12.296  13.412  31.878  1.00  0.00     0.188 HD
BRANCH  40  42
HETATM   42  C15 UNL     1     -13.273  12.732  33.651  1.00  0.00    -0.061 C 
BRANCH  42  43
HETATM   43  C16 UNL     1     -13.449  12.397  34.991  1.00  0.00     0.106 C 
BRANCH  43  44
HETATM   44  C17 UNL     1     -12.463  12.998  36.063  1.00  0.00     0.033 C 
BRANCH  44  45
HETATM   45  C18 UNL     1     -11.150  13.411  35.384  1.00  0.00     0.123 C 
BRANCH  45  46
HETATM   46  N6  UNL     1     -10.955  14.816  35.696  1.00  0.00    -0.367 N 
HETATM   47  C19 UNL     1     -10.681  15.555  34.614  1.00  0.00     0.196 C 
HETATM   48  N7  UNL     1     -10.468  16.946  34.894  1.00  0.00    -0.067 NA
HETATM   49  N8  UNL     1     -10.714  15.048  33.310  1.00  0.00    -0.067 NA
ATOM     50  H6  UNL     1     -11.019  15.200  36.639  1.00  0.00     0.161 HD
ENDBRANCH  45  46
ENDBRANCH  44  45
ENDBRANCH  43  44
ENDBRANCH  42  43
ENDBRANCH  40  42
ENDBRANCH  37  40
ENDBRANCH  36  37
ENDBRANCH  35  36
ENDBRANCH  34  35
ENDBRANCH  31  34
ENDBRANCH  30  31
ENDBRANCH  29  30
ENDBRANCH  28  29
ENDBRANCH   3  28
TORSDOF 20
ENDMDL
