MODEL 1
REMARK VINA RESULT: -8.806766944      0.000      0.000
REMARK  24 active torsions:
REMARK  status: ('A' for Active; 'I' for Inactive)
REMARK    1  A    between atoms: N2_4  and  N3_6 
REMARK    2  A    between atoms: N3_6  and  C1_8 
REMARK    3  A    between atoms: C1_8  and  C2_9 
REMARK    4  A    between atoms: C2_9  and  N4_10 
REMARK    5  A    between atoms: C2_9  and  N5_14 
REMARK    6  A    between atoms: N5_14  and  C3_16 
REMARK    7  A    between atoms: C3_16  and  C4_17 
REMARK    8  A    between atoms: C4_17  and  C5_18 
REMARK    9  A    between atoms: C5_18  and  C6_19 
REMARK   10  A    between atoms: C6_19  and  O1_20 
REMARK   11  A    between atoms: C6_19  and  N6_22 
REMARK   12  A    between atoms: N6_22  and  C7_24 
REMARK   13  A    between atoms: C7_24  and  O2_25 
REMARK   14  A    between atoms: C7_24  and  C8_27 
REMARK       I    between atoms: C8_27  and  N7_29 
REMARK   15  A    between atoms: N7_29  and  C9_31 
REMARK   16  A    between atoms: C9_31  and  C10_32 
REMARK   17  A    between atoms: C9_31  and  C18_40 
REMARK   18  A    between atoms: C11_33  and  C12_34 
REMARK   19  A    between atoms: C18_40  and  N8_41 
REMARK       I    between atoms: N8_41  and  C19_43 
REMARK   20  A    between atoms: C19_43  and  C20_45 
REMARK   21  A    between atoms: C20_45  and  C21_46 
REMARK   22  A    between atoms: C21_46  and  N9_47 
REMARK       I    between atoms: N9_47  and  C22_49 
REMARK   23  A    between atoms: C22_49  and  C23_51 
REMARK   24  A    between atoms: C23_51  and  C24_52 
ROOT
HETATM    1  C8  UNL     1      -8.638  15.390  27.653  1.00  0.00     0.293 C 
HETATM    2  O3  UNL     1      -9.052  14.308  28.077  1.00  0.00    -0.264 OA
HETATM    3  N7  UNL     1      -8.668  16.494  28.578  1.00  0.00    -0.345 N 
ATOM      4  H7  UNL     1      -8.345  17.426  28.320  1.00  0.00     0.163 HD
ENDROOT
BRANCH   3   5
HETATM    5  C9  UNL     1      -9.205  16.184  29.944  1.00  0.00     0.125 C 
BRANCH   5   6
HETATM    6  C10 UNL     1      -8.565  17.114  30.905  1.00  0.00     0.001 C 
HETATM    7  C11 UNL     1      -8.053  16.709  32.191  1.00  0.00     0.009 C 
BRANCH   7   8
HETATM    8  C12 UNL     1      -8.818  16.104  33.237  1.00  0.00    -0.036 A 
HETATM    9  C13 UNL     1      -9.580  16.850  34.121  1.00  0.00     0.011 A 
HETATM   10  C14 UNL     1     -10.271  16.302  35.175  1.00  0.00     0.001 A 
HETATM   11  C15 UNL     1     -10.202  14.932  35.361  1.00  0.00     0.000 A 
HETATM   12  C16 UNL     1      -9.455  14.146  34.506  1.00  0.00     0.001 A 
HETATM   13  C17 UNL     1      -8.775  14.740  33.458  1.00  0.00     0.011 A 
ENDBRANCH   7   8
ENDBRANCH   5   6
BRANCH   5  14
HETATM   14  C18 UNL     1     -10.687  16.340  29.747  1.00  0.00     0.151 C 
BRANCH  14  15
HETATM   15  N8  UNL     1     -11.338  16.095  31.030  1.00  0.00    -0.359 N 
HETATM   16  C19 UNL     1     -11.853  14.814  31.363  1.00  0.00     0.219 C 
HETATM   17  O4  UNL     1     -11.770  13.834  30.554  1.00  0.00    -0.274 OA
ATOM     18  H8  UNL     1     -11.425  16.859  31.700  1.00  0.00     0.162 HD
BRANCH  16  19
HETATM   19  C20 UNL     1     -12.505  14.571  32.667  1.00  0.00     0.122 C 
BRANCH  19  20
HETATM   20  C21 UNL     1     -13.988  14.719  32.502  1.00  0.00     0.132 C 
BRANCH  20  21
HETATM   21  N9  UNL     1     -14.431  14.843  31.140  1.00  0.00    -0.360 N 
HETATM   22  C22 UNL     1     -15.640  14.322  30.633  1.00  0.00     0.221 C 
HETATM   23  O5  UNL     1     -16.425  13.693  31.375  1.00  0.00    -0.273 OA
ATOM     24  H9  UNL     1     -13.827  15.346  30.491  1.00  0.00     0.162 HD
BRANCH  22  25
HETATM   25  C23 UNL     1     -15.985  14.518  29.205  1.00  0.00     0.141 C 
BRANCH  25  26
HETATM   26  C24 UNL     1     -14.758  14.367  28.379  1.00  0.00    -0.050 A 
HETATM   27  C25 UNL     1     -14.276  13.114  28.037  1.00  0.00     0.007 A 
HETATM   28  C26 UNL     1     -13.150  12.979  27.281  1.00  0.00     0.001 A 
HETATM   29  C27 UNL     1     -12.432  14.069  26.816  1.00  0.00     0.000 A 
HETATM   30  C28 UNL     1     -12.919  15.311  27.161  1.00  0.00     0.001 A 
HETATM   31  C29 UNL     1     -14.061  15.467  27.929  1.00  0.00     0.007 A 
ENDBRANCH  25  26
ENDBRANCH  22  25
ENDBRANCH  20  21
ENDBRANCH  19  20
ENDBRANCH  16  19
ENDBRANCH  14  15
ENDBRANCH   5  14
ENDBRANCH   3   5
BRANCH   1  32
HETATM   32  C7  UNL     1      -8.141  15.610  26.334  1.00  0.00     0.211 C 
BRANCH  32  33
HETATM   33  N6  UNL     1      -8.413  15.045  25.103  1.00  0.00    -0.317 N 
ATOM     34  H6  UNL     1      -8.281  14.035  25.110  1.00  0.00     0.170 HD
BRANCH  33  35
HETATM   35  C6  UNL     1      -8.817  15.501  23.870  1.00  0.00     0.117 C 
BRANCH  35  36
HETATM   36  C5  UNL     1      -8.770  14.830  22.576  1.00  0.00     0.085 C 
BRANCH  36  37
HETATM   37  C4  UNL     1      -9.901  15.302  21.653  1.00  0.00     0.027 C 
BRANCH  37  38
HETATM   38  C3  UNL     1      -9.413  16.117  20.490  1.00  0.00     0.116 C 
BRANCH  38  39
HETATM   39  N5  UNL     1      -8.893  17.383  20.882  1.00  0.00    -0.394 N 
ATOM     40  H5  UNL     1      -9.439  17.997  21.487  1.00  0.00     0.155 HD
BRANCH  39  41
HETATM   41  C2  UNL     1      -7.627  17.781  20.434  1.00  0.00     0.296 C 
BRANCH  41  42
HETATM   42  C1  UNL     1      -6.638  18.185  21.484  1.00  0.00     0.194 C 
BRANCH  42  43
HETATM   43  N3  UNL     1      -7.251  18.601  22.731  1.00  0.00    -0.319 N 
ATOM     44  H3  UNL     1      -8.139  19.101  22.689  1.00  0.00     0.181 HD
BRANCH  43  45
HETATM   45  N2  UNL     1      -6.690  18.351  23.984  1.00  0.00    -0.254 N 
HETATM   46  N1  UNL     1      -5.729  17.517  24.037  1.00  0.00    -0.331 N 
ATOM     47  H12 UNL     1      -5.396  17.057  23.189  1.00  0.00     0.178 HD
ATOM     48  H11 UNL     1      -5.319  17.335  24.953  1.00  0.00     0.178 HD
ATOM     49  H2  UNL     1      -7.035  18.818  24.824  1.00  0.00     0.207 HD
ENDBRANCH  43  45
ENDBRANCH  42  43
ENDBRANCH  41  42
BRANCH  41  50
HETATM   50  N4  UNL     1      -7.026  16.604  19.768  1.00  0.00    -0.057 N 
ATOM     51  H43 UNL     1      -7.340  15.711  20.148  1.00  0.00     0.276 HD
ATOM     52  H42 UNL     1      -7.362  16.453  18.817  1.00  0.00     0.276 HD
ATOM     53  H41 UNL     1      -6.017  16.747  19.832  1.00  0.00     0.276 HD
ENDBRANCH  41  50
ENDBRANCH  39  41
ENDBRANCH  38  39
ENDBRANCH  37  38
ENDBRANCH  36  37
ENDBRANCH  35  36
BRANCH  35  54
HETATM   54  O1  UNL     1      -9.321  16.710  23.808  1.00  0.00    -0.349 OA
ATOM     55  H1  UNL     1      -8.986  17.292  24.480  1.00  0.00     0.219 HD
ENDBRANCH  35  54
ENDBRANCH  33  35
ENDBRANCH  32  33
BRANCH  32  56
HETATM   56  O2  UNL     1      -7.210  16.576  26.308  1.00  0.00    -0.342 OA
ATOM     57  H2  UNL     1      -7.132  17.069  27.116  1.00  0.00     0.219 HD
ENDBRANCH  32  56
ENDBRANCH   1  32
TORSDOF 24
ENDMDL
MODEL 2
REMARK VINA RESULT: -8.633079396      1.326      2.154
REMARK  24 active torsions:
REMARK  status: ('A' for Active; 'I' for Inactive)
REMARK    1  A    between atoms: N2_4  and  N3_6 
REMARK    2  A    between atoms: N3_6  and  C1_8 
REMARK    3  A    between atoms: C1_8  and  C2_9 
REMARK    4  A    between atoms: C2_9  and  N4_10 
REMARK    5  A    between atoms: C2_9  and  N5_14 
REMARK    6  A    between atoms: N5_14  and  C3_16 
REMARK    7  A    between atoms: C3_16  and  C4_17 
REMARK    8  A    between atoms: C4_17  and  C5_18 
REMARK    9  A    between atoms: C5_18  and  C6_19 
REMARK   10  A    between atoms: C6_19  and  O1_20 
REMARK   11  A    between atoms: C6_19  and  N6_22 
REMARK   12  A    between atoms: N6_22  and  C7_24 
REMARK   13  A    between atoms: C7_24  and  O2_25 
REMARK   14  A    between atoms: C7_24  and  C8_27 
REMARK       I    between atoms: C8_27  and  N7_29 
REMARK   15  A    between atoms: N7_29  and  C9_31 
REMARK   16  A    between atoms: C9_31  and  C10_32 
REMARK   17  A    between atoms: C9_31  and  C18_40 
REMARK   18  A    between atoms: C11_33  and  C12_34 
REMARK   19  A    between atoms: C18_40  and  N8_41 
REMARK       I    between atoms: N8_41  and  C19_43 
REMARK   20  A    between atoms: C19_43  and  C20_45 
REMARK   21  A    between atoms: C20_45  and  C21_46 
REMARK   22  A    between atoms: C21_46  and  N9_47 
REMARK       I    between atoms: N9_47  and  C22_49 
REMARK   23  A    between atoms: C22_49  and  C23_51 
REMARK   24  A    between atoms: C23_51  and  C24_52 
ROOT
HETATM    1  C8  UNL     1      -8.681  15.517  27.662  1.00  0.00     0.293 C 
HETATM    2  O3  UNL     1      -8.883  14.406  28.157  1.00  0.00    -0.264 OA
HETATM    3  N7  UNL     1      -8.908  16.651  28.520  1.00  0.00    -0.345 N 
ATOM      4  H7  UNL     1      -8.766  17.609  28.202  1.00  0.00     0.163 HD
ENDROOT
BRANCH   3   5
HETATM    5  C9  UNL     1      -9.365  16.332  29.913  1.00  0.00     0.125 C 
BRANCH   5   6
HETATM    6  C10 UNL     1      -8.638  17.227  30.846  1.00  0.00     0.001 C 
HETATM    7  C11 UNL     1      -8.042  16.782  32.081  1.00  0.00     0.009 C 
BRANCH   7   8
HETATM    8  C12 UNL     1      -8.741  16.166  33.166  1.00  0.00    -0.036 A 
HETATM    9  C13 UNL     1      -8.709  14.799  33.385  1.00  0.00     0.011 A 
HETATM   10  C14 UNL     1      -9.423  14.173  34.378  1.00  0.00     0.001 A 
HETATM   11  C15 UNL     1     -10.217  14.951  35.203  1.00  0.00     0.000 A 
HETATM   12  C16 UNL     1     -10.282  16.320  35.024  1.00  0.00     0.001 A 
HETATM   13  C17 UNL     1      -9.547  16.908  34.012  1.00  0.00     0.011 A 
ENDBRANCH   7   8
ENDBRANCH   5   6
BRANCH   5  14
HETATM   14  C18 UNL     1     -10.851  16.532  29.815  1.00  0.00     0.151 C 
BRANCH  14  15
HETATM   15  N8  UNL     1     -11.456  16.006  31.034  1.00  0.00    -0.359 N 
HETATM   16  C19 UNL     1     -11.768  14.627  31.168  1.00  0.00     0.219 C 
HETATM   17  O4  UNL     1     -11.536  13.800  30.228  1.00  0.00    -0.274 OA
ATOM     18  H8  UNL     1     -11.658  16.641  31.806  1.00  0.00     0.162 HD
BRANCH  16  19
HETATM   19  C20 UNL     1     -12.374  14.100  32.408  1.00  0.00     0.122 C 
BRANCH  19  20
HETATM   20  C21 UNL     1     -13.837  13.871  32.173  1.00  0.00     0.132 C 
BRANCH  20  21
HETATM   21  N9  UNL     1     -14.237  13.909  30.793  1.00  0.00    -0.360 N 
HETATM   22  C22 UNL     1     -15.426  14.496  30.311  1.00  0.00     0.221 C 
HETATM   23  O5  UNL     1     -16.233  15.038  31.097  1.00  0.00    -0.273 OA
ATOM     24  H9  UNL     1     -13.613  13.479  30.109  1.00  0.00     0.162 HD
BRANCH  22  25
HETATM   25  C23 UNL     1     -15.725  14.470  28.859  1.00  0.00     0.141 C 
BRANCH  25  26
HETATM   26  C24 UNL     1     -14.453  14.341  28.099  1.00  0.00    -0.050 A 
HETATM   27  C25 UNL     1     -13.664  15.448  27.832  1.00  0.00     0.007 A 
HETATM   28  C26 UNL     1     -12.500  15.327  27.134  1.00  0.00     0.001 A 
HETATM   29  C27 UNL     1     -12.043  14.109  26.658  1.00  0.00     0.000 A 
HETATM   30  C28 UNL     1     -12.834  13.013  26.929  1.00  0.00     0.001 A 
HETATM   31  C29 UNL     1     -14.020  13.118  27.635  1.00  0.00     0.007 A 
ENDBRANCH  25  26
ENDBRANCH  22  25
ENDBRANCH  20  21
ENDBRANCH  19  20
ENDBRANCH  16  19
ENDBRANCH  14  15
ENDBRANCH   5  14
ENDBRANCH   3   5
BRANCH   1  32
HETATM   32  C7  UNL     1      -8.246  15.743  26.322  1.00  0.00     0.211 C 
BRANCH  32  33
HETATM   33  N6  UNL     1      -8.477  15.102  25.120  1.00  0.00    -0.317 N 
ATOM     34  H6  UNL     1      -8.743  14.127  25.254  1.00  0.00     0.170 HD
BRANCH  33  35
HETATM   35  C6  UNL     1      -8.438  15.445  23.789  1.00  0.00     0.117 C 
BRANCH  35  36
HETATM   36  C5  UNL     1      -8.861  16.681  23.141  1.00  0.00     0.085 C 
BRANCH  36  37
HETATM   37  C4  UNL     1      -7.887  17.099  22.031  1.00  0.00     0.027 C 
BRANCH  37  38
HETATM   38  C3  UNL     1      -7.222  18.419  22.296  1.00  0.00     0.116 C 
BRANCH  38  39
HETATM   39  N5  UNL     1      -6.786  18.557  23.644  1.00  0.00    -0.394 N 
ATOM     40  H5  UNL     1      -7.467  18.683  24.393  1.00  0.00     0.155 HD
BRANCH  39  41
HETATM   41  C2  UNL     1      -5.416  18.520  23.936  1.00  0.00     0.296 C 
BRANCH  41  42
HETATM   42  C1  UNL     1      -4.935  19.435  25.021  1.00  0.00     0.194 C 
BRANCH  42  43
HETATM   43  N3  UNL     1      -6.006  20.067  25.766  1.00  0.00    -0.319 N 
ATOM     44  H3  UNL     1      -6.496  20.851  25.337  1.00  0.00     0.181 HD
BRANCH  43  45
HETATM   45  N2  UNL     1      -6.402  19.657  27.041  1.00  0.00    -0.254 N 
HETATM   46  N1  UNL     1      -7.652  19.646  27.288  1.00  0.00    -0.331 N 
ATOM     47  H12 UNL     1      -8.323  19.928  26.573  1.00  0.00     0.178 HD
ATOM     48  H11 UNL     1      -7.940  19.347  28.219  1.00  0.00     0.178 HD
ATOM     49  H2  UNL     1      -5.719  19.379  27.746  1.00  0.00     0.207 HD
ENDBRANCH  43  45
ENDBRANCH  42  43
ENDBRANCH  41  42
BRANCH  41  50
HETATM   50  N4  UNL     1      -5.126  17.154  24.425  1.00  0.00    -0.057 N 
ATOM     51  H43 UNL     1      -4.137  16.904  24.388  1.00  0.00     0.276 HD
ATOM     52  H42 UNL     1      -5.239  17.044  25.432  1.00  0.00     0.276 HD
ATOM     53  H41 UNL     1      -5.726  16.539  23.874  1.00  0.00     0.276 HD
ENDBRANCH  41  50
ENDBRANCH  39  41
ENDBRANCH  38  39
ENDBRANCH  37  38
ENDBRANCH  36  37
ENDBRANCH  35  36
BRANCH  35  54
HETATM   54  O1  UNL     1      -7.960  14.558  22.950  1.00  0.00    -0.349 OA
ATOM     55  H1  UNL     1      -7.450  13.877  23.373  1.00  0.00     0.219 HD
ENDBRANCH  35  54
ENDBRANCH  33  35
ENDBRANCH  32  33
BRANCH  32  56
HETATM   56  O2  UNL     1      -7.441  16.814  26.234  1.00  0.00    -0.342 OA
ATOM     57  H2  UNL     1      -7.302  17.129  25.349  1.00  0.00     0.219 HD
ENDBRANCH  32  56
ENDBRANCH   1  32
TORSDOF 24
ENDMDL
MODEL 3
REMARK VINA RESULT: -8.488138330      2.019      5.386
REMARK  24 active torsions:
REMARK  status: ('A' for Active; 'I' for Inactive)
REMARK    1  A    between atoms: N2_4  and  N3_6 
REMARK    2  A    between atoms: N3_6  and  C1_8 
REMARK    3  A    between atoms: C1_8  and  C2_9 
REMARK    4  A    between atoms: C2_9  and  N4_10 
REMARK    5  A    between atoms: C2_9  and  N5_14 
REMARK    6  A    between atoms: N5_14  and  C3_16 
REMARK    7  A    between atoms: C3_16  and  C4_17 
REMARK    8  A    between atoms: C4_17  and  C5_18 
REMARK    9  A    between atoms: C5_18  and  C6_19 
REMARK   10  A    between atoms: C6_19  and  O1_20 
REMARK   11  A    between atoms: C6_19  and  N6_22 
REMARK   12  A    between atoms: N6_22  and  C7_24 
REMARK   13  A    between atoms: C7_24  and  O2_25 
REMARK   14  A    between atoms: C7_24  and  C8_27 
REMARK       I    between atoms: C8_27  and  N7_29 
REMARK   15  A    between atoms: N7_29  and  C9_31 
REMARK   16  A    between atoms: C9_31  and  C10_32 
REMARK   17  A    between atoms: C9_31  and  C18_40 
REMARK   18  A    between atoms: C11_33  and  C12_34 
REMARK   19  A    between atoms: C18_40  and  N8_41 
REMARK       I    between atoms: N8_41  and  C19_43 
REMARK   20  A    between atoms: C19_43  and  C20_45 
REMARK   21  A    between atoms: C20_45  and  C21_46 
REMARK   22  A    between atoms: C21_46  and  N9_47 
REMARK       I    between atoms: N9_47  and  C22_49 
REMARK   23  A    between atoms: C22_49  and  C23_51 
REMARK   24  A    between atoms: C23_51  and  C24_52 
ROOT
HETATM    1  C8  UNL     1      -8.428  18.183  27.338  1.00  0.00     0.293 C 
HETATM    2  O3  UNL     1      -9.370  18.276  26.547  1.00  0.00    -0.264 OA
HETATM    3  N7  UNL     1      -8.602  17.266  28.435  1.00  0.00    -0.345 N 
ATOM      4  H7  UNL     1      -7.879  17.119  29.139  1.00  0.00     0.163 HD
ENDROOT
BRANCH   3   5
HETATM    5  C9  UNL     1      -9.914  16.540  28.475  1.00  0.00     0.125 C 
BRANCH   5   6
HETATM    6  C10 UNL     1      -9.722  15.218  27.831  1.00  0.00     0.001 C 
HETATM    7  C11 UNL     1     -10.576  14.703  26.790  1.00  0.00     0.009 C 
BRANCH   7   8
HETATM    8  C12 UNL     1     -11.983  14.477  26.906  1.00  0.00    -0.036 A 
HETATM    9  C13 UNL     1     -12.883  15.512  27.101  1.00  0.00     0.011 A 
HETATM   10  C14 UNL     1     -14.232  15.318  27.282  1.00  0.00     0.001 A 
HETATM   11  C15 UNL     1     -14.715  14.021  27.269  1.00  0.00     0.000 A 
HETATM   12  C16 UNL     1     -13.856  12.956  27.078  1.00  0.00     0.001 A 
HETATM   13  C17 UNL     1     -12.506  13.197  26.900  1.00  0.00     0.011 A 
ENDBRANCH   7   8
ENDBRANCH   5   6
BRANCH   5  14
HETATM   14  C18 UNL     1     -10.228  16.530  29.945  1.00  0.00     0.151 C 
BRANCH  14  15
HETATM   15  N8  UNL     1     -11.596  16.049  30.108  1.00  0.00    -0.359 N 
HETATM   16  C19 UNL     1     -11.868  14.757  30.633  1.00  0.00     0.219 C 
HETATM   17  O4  UNL     1     -10.927  13.970  30.977  1.00  0.00    -0.274 OA
ATOM     18  H8  UNL     1     -12.373  16.652  29.839  1.00  0.00     0.162 HD
BRANCH  16  19
HETATM   19  C20 UNL     1     -13.255  14.279  30.801  1.00  0.00     0.122 C 
BRANCH  19  20
HETATM   20  C21 UNL     1     -13.498  13.999  32.254  1.00  0.00     0.132 C 
BRANCH  20  21
HETATM   21  N9  UNL     1     -12.617  14.692  33.155  1.00  0.00    -0.360 N 
HETATM   22  C22 UNL     1     -12.205  14.209  34.415  1.00  0.00     0.221 C 
HETATM   23  O5  UNL     1     -12.606  13.102  34.836  1.00  0.00    -0.273 OA
ATOM     24  H9  UNL     1     -12.261  15.601  32.860  1.00  0.00     0.162 HD
BRANCH  22  25
HETATM   25  C23 UNL     1     -11.291  15.020  35.252  1.00  0.00     0.141 C 
BRANCH  25  26
HETATM   26  C24 UNL     1     -10.135  15.464  34.428  1.00  0.00    -0.050 A 
HETATM   27  C25 UNL     1      -9.201  14.556  33.960  1.00  0.00     0.007 A 
HETATM   28  C26 UNL     1      -8.142  14.965  33.206  1.00  0.00     0.001 A 
HETATM   29  C27 UNL     1      -7.941  16.293  32.867  1.00  0.00     0.000 A 
HETATM   30  C28 UNL     1      -8.876  17.190  33.336  1.00  0.00     0.001 A 
HETATM   31  C29 UNL     1      -9.957  16.792  34.104  1.00  0.00     0.007 A 
ENDBRANCH  25  26
ENDBRANCH  22  25
ENDBRANCH  20  21
ENDBRANCH  19  20
ENDBRANCH  16  19
ENDBRANCH  14  15
ENDBRANCH   5  14
ENDBRANCH   3   5
BRANCH   1  32
HETATM   32  C7  UNL     1      -7.206  18.911  27.235  1.00  0.00     0.211 C 
BRANCH  32  33
HETATM   33  N6  UNL     1      -5.911  18.564  26.898  1.00  0.00    -0.317 N 
ATOM     34  H6  UNL     1      -5.270  18.679  27.682  1.00  0.00     0.170 HD
BRANCH  33  35
HETATM   35  C6  UNL     1      -5.268  18.104  25.773  1.00  0.00     0.117 C 
BRANCH  35  36
HETATM   36  C5  UNL     1      -4.132  18.676  25.060  1.00  0.00     0.085 C 
BRANCH  36  37
HETATM   37  C4  UNL     1      -4.426  18.831  23.561  1.00  0.00     0.027 C 
BRANCH  37  38
HETATM   38  C3  UNL     1      -5.353  19.971  23.255  1.00  0.00     0.116 C 
BRANCH  38  39
HETATM   39  N5  UNL     1      -6.487  19.572  22.492  1.00  0.00    -0.394 N 
ATOM     40  H5  UNL     1      -7.216  20.249  22.264  1.00  0.00     0.155 HD
BRANCH  39  41
HETATM   41  C2  UNL     1      -6.597  18.245  22.057  1.00  0.00     0.296 C 
BRANCH  41  42
HETATM   42  C1  UNL     1      -7.898  17.553  22.329  1.00  0.00     0.194 C 
BRANCH  42  43
HETATM   43  N3  UNL     1      -8.254  17.517  23.734  1.00  0.00    -0.319 N 
ATOM     44  H3  UNL     1      -8.418  18.402  24.214  1.00  0.00     0.181 HD
BRANCH  43  45
HETATM   45  N2  UNL     1      -8.383  16.334  24.464  1.00  0.00    -0.254 N 
HETATM   46  N1  UNL     1      -7.918  15.271  23.939  1.00  0.00    -0.331 N 
ATOM     47  H12 UNL     1      -7.472  15.300  23.021  1.00  0.00     0.178 HD
ATOM     48  H11 UNL     1      -8.012  14.407  24.472  1.00  0.00     0.178 HD
ATOM     49  H2  UNL     1      -8.832  16.322  25.381  1.00  0.00     0.207 HD
ENDBRANCH  43  45
ENDBRANCH  42  43
ENDBRANCH  41  42
BRANCH  41  50
HETATM   50  N4  UNL     1      -6.473  18.272  20.583  1.00  0.00    -0.057 N 
ATOM     51  H43 UNL     1      -7.158  17.689  20.101  1.00  0.00     0.276 HD
ATOM     52  H42 UNL     1      -6.754  19.158  20.163  1.00  0.00     0.276 HD
ATOM     53  H41 UNL     1      -5.504  18.014  20.391  1.00  0.00     0.276 HD
ENDBRANCH  41  50
ENDBRANCH  39  41
ENDBRANCH  38  39
ENDBRANCH  37  38
ENDBRANCH  36  37
ENDBRANCH  35  36
BRANCH  35  54
HETATM   54  O1  UNL     1      -5.713  16.995  25.233  1.00  0.00    -0.349 OA
ATOM     55  H1  UNL     1      -6.499  17.119  24.714  1.00  0.00     0.219 HD
ENDBRANCH  35  54
ENDBRANCH  33  35
ENDBRANCH  32  33
BRANCH  32  56
HETATM   56  O2  UNL     1      -7.372  20.208  27.536  1.00  0.00    -0.342 OA
ATOM     57  H2  UNL     1      -7.598  20.758  26.795  1.00  0.00     0.219 HD
ENDBRANCH  32  56
ENDBRANCH   1  32
TORSDOF 24
ENDMDL
MODEL 4
REMARK VINA RESULT: -8.402922554      2.357      5.079
REMARK  24 active torsions:
REMARK  status: ('A' for Active; 'I' for Inactive)
REMARK    1  A    between atoms: N2_4  and  N3_6 
REMARK    2  A    between atoms: N3_6  and  C1_8 
REMARK    3  A    between atoms: C1_8  and  C2_9 
REMARK    4  A    between atoms: C2_9  and  N4_10 
REMARK    5  A    between atoms: C2_9  and  N5_14 
REMARK    6  A    between atoms: N5_14  and  C3_16 
REMARK    7  A    between atoms: C3_16  and  C4_17 
REMARK    8  A    between atoms: C4_17  and  C5_18 
REMARK    9  A    between atoms: C5_18  and  C6_19 
REMARK   10  A    between atoms: C6_19  and  O1_20 
REMARK   11  A    between atoms: C6_19  and  N6_22 
REMARK   12  A    between atoms: N6_22  and  C7_24 
REMARK   13  A    between atoms: C7_24  and  O2_25 
REMARK   14  A    between atoms: C7_24  and  C8_27 
REMARK       I    between atoms: C8_27  and  N7_29 
REMARK   15  A    between atoms: N7_29  and  C9_31 
REMARK   16  A    between atoms: C9_31  and  C10_32 
REMARK   17  A    between atoms: C9_31  and  C18_40 
REMARK   18  A    between atoms: C11_33  and  C12_34 
REMARK   19  A    between atoms: C18_40  and  N8_41 
REMARK       I    between atoms: N8_41  and  C19_43 
REMARK   20  A    between atoms: C19_43  and  C20_45 
REMARK   21  A    between atoms: C20_45  and  C21_46 
REMARK   22  A    between atoms: C21_46  and  N9_47 
REMARK       I    between atoms: N9_47  and  C22_49 
REMARK   23  A    between atoms: C22_49  and  C23_51 
REMARK   24  A    between atoms: C23_51  and  C24_52 
ROOT
HETATM    1  C8  UNL     1      -8.422  18.103  27.448  1.00  0.00     0.293 C 
HETATM    2  O3  UNL     1      -9.407  18.113  26.706  1.00  0.00    -0.264 OA
HETATM    3  N7  UNL     1      -8.539  17.329  28.656  1.00  0.00    -0.345 N 
ATOM      4  H7  UNL     1      -7.778  17.258  29.331  1.00  0.00     0.163 HD
ENDROOT
BRANCH   3   5
HETATM    5  C9  UNL     1      -9.852  16.633  28.859  1.00  0.00     0.125 C 
BRANCH   5   6
HETATM    6  C10 UNL     1      -9.668  15.204  28.507  1.00  0.00     0.001 C 
HETATM    7  C11 UNL     1     -10.345  14.555  27.412  1.00  0.00     0.009 C 
BRANCH   7   8
HETATM    8  C12 UNL     1     -11.762  14.442  27.261  1.00  0.00    -0.036 A 
HETATM    9  C13 UNL     1     -12.620  15.493  27.538  1.00  0.00     0.011 A 
HETATM   10  C14 UNL     1     -13.989  15.393  27.466  1.00  0.00     0.001 A 
HETATM   11  C15 UNL     1     -14.538  14.177  27.097  1.00  0.00     0.000 A 
HETATM   12  C16 UNL     1     -13.723  13.098  26.812  1.00  0.00     0.001 A 
HETATM   13  C17 UNL     1     -12.350  13.244  26.897  1.00  0.00     0.011 A 
ENDBRANCH   7   8
ENDBRANCH   5   6
BRANCH   5  14
HETATM   14  C18 UNL     1     -10.155  16.935  30.299  1.00  0.00     0.151 C 
BRANCH  14  15
HETATM   15  N8  UNL     1      -9.582  15.866  31.111  1.00  0.00    -0.359 N 
HETATM   16  C19 UNL     1      -8.886  16.146  32.317  1.00  0.00     0.219 C 
HETATM   17  O4  UNL     1      -8.733  17.341  32.732  1.00  0.00    -0.274 OA
ATOM     18  H8  UNL     1      -9.683  14.898  30.806  1.00  0.00     0.162 HD
BRANCH  16  19
HETATM   19  C20 UNL     1      -8.315  15.059  33.138  1.00  0.00     0.122 C 
BRANCH  19  20
HETATM   20  C21 UNL     1      -9.063  14.988  34.436  1.00  0.00     0.132 C 
BRANCH  20  21
HETATM   21  N9  UNL     1     -10.310  14.276  34.372  1.00  0.00    -0.360 N 
HETATM   22  C22 UNL     1     -11.565  14.810  34.731  1.00  0.00     0.221 C 
HETATM   23  O5  UNL     1     -11.663  15.985  35.146  1.00  0.00    -0.273 OA
ATOM     24  H9  UNL     1     -10.286  13.311  34.041  1.00  0.00     0.162 HD
BRANCH  22  25
HETATM   25  C23 UNL     1     -12.782  13.971  34.619  1.00  0.00     0.141 C 
BRANCH  25  26
HETATM   26  C24 UNL     1     -13.001  13.613  33.192  1.00  0.00    -0.050 A 
HETATM   27  C25 UNL     1     -12.674  14.496  32.176  1.00  0.00     0.007 A 
HETATM   28  C26 UNL     1     -12.877  14.167  30.869  1.00  0.00     0.001 A 
HETATM   29  C27 UNL     1     -13.415  12.949  30.486  1.00  0.00     0.000 A 
HETATM   30  C28 UNL     1     -13.737  12.077  31.503  1.00  0.00     0.001 A 
HETATM   31  C29 UNL     1     -13.538  12.395  32.836  1.00  0.00     0.007 A 
ENDBRANCH  25  26
ENDBRANCH  22  25
ENDBRANCH  20  21
ENDBRANCH  19  20
ENDBRANCH  16  19
ENDBRANCH  14  15
ENDBRANCH   5  14
ENDBRANCH   3   5
BRANCH   1  32
HETATM   32  C7  UNL     1      -7.201  18.795  27.189  1.00  0.00     0.211 C 
BRANCH  32  33
HETATM   33  N6  UNL     1      -5.942  18.395  26.786  1.00  0.00    -0.317 N 
ATOM     34  H6  UNL     1      -5.290  18.343  27.568  1.00  0.00     0.170 HD
BRANCH  33  35
HETATM   35  C6  UNL     1      -5.343  18.048  25.597  1.00  0.00     0.117 C 
BRANCH  35  36
HETATM   36  C5  UNL     1      -4.170  18.625  24.951  1.00  0.00     0.085 C 
BRANCH  36  37
HETATM   37  C4  UNL     1      -3.771  17.837  23.696  1.00  0.00     0.027 C 
BRANCH  37  38
HETATM   38  C3  UNL     1      -4.385  18.380  22.438  1.00  0.00     0.116 C 
BRANCH  38  39
HETATM   39  N5  UNL     1      -5.455  17.576  21.953  1.00  0.00    -0.394 N 
ATOM     40  H5  UNL     1      -5.310  16.581  21.777  1.00  0.00     0.155 HD
BRANCH  39  41
HETATM   41  C2  UNL     1      -6.707  18.157  21.718  1.00  0.00     0.296 C 
BRANCH  41  42
HETATM   42  C1  UNL     1      -7.907  17.309  22.012  1.00  0.00     0.194 C 
BRANCH  42  43
HETATM   43  N3  UNL     1      -7.578  15.959  22.423  1.00  0.00    -0.319 N 
ATOM     44  H3  UNL     1      -7.032  15.379  21.787  1.00  0.00     0.181 HD
BRANCH  43  45
HETATM   45  N2  UNL     1      -7.970  15.410  23.646  1.00  0.00    -0.254 N 
HETATM   46  N1  UNL     1      -8.659  16.149  24.422  1.00  0.00    -0.331 N 
ATOM     47  H12 UNL     1      -8.905  17.101  24.147  1.00  0.00     0.178 HD
ATOM     48  H11 UNL     1      -8.946  15.748  25.315  1.00  0.00     0.178 HD
ATOM     49  H2  UNL     1      -7.716  14.457  23.907  1.00  0.00     0.207 HD
ENDBRANCH  43  45
ENDBRANCH  42  43
ENDBRANCH  41  42
BRANCH  41  50
HETATM   50  N4  UNL     1      -6.815  19.313  22.636  1.00  0.00    -0.057 N 
ATOM     51  H43 UNL     1      -7.201  20.151  22.200  1.00  0.00     0.276 HD
ATOM     52  H42 UNL     1      -7.536  19.206  23.349  1.00  0.00     0.276 HD
ATOM     53  H41 UNL     1      -5.876  19.441  23.015  1.00  0.00     0.276 HD
ENDBRANCH  41  50
ENDBRANCH  39  41
ENDBRANCH  38  39
ENDBRANCH  37  38
ENDBRANCH  36  37
ENDBRANCH  35  36
BRANCH  35  54
HETATM   54  O1  UNL     1      -5.877  17.062  24.917  1.00  0.00    -0.349 OA
ATOM     55  H1  UNL     1      -6.804  16.945  25.090  1.00  0.00     0.219 HD
ENDBRANCH  35  54
ENDBRANCH  33  35
ENDBRANCH  32  33
BRANCH  32  56
HETATM   56  O2  UNL     1      -7.327  20.117  27.386  1.00  0.00    -0.342 OA
ATOM     57  H2  UNL     1      -8.159  20.478  27.106  1.00  0.00     0.219 HD
ENDBRANCH  32  56
ENDBRANCH   1  32
TORSDOF 24
ENDMDL
MODEL 5
REMARK VINA RESULT: -8.392745063      1.377      1.814
REMARK  24 active torsions:
REMARK  status: ('A' for Active; 'I' for Inactive)
REMARK    1  A    between atoms: N2_4  and  N3_6 
REMARK    2  A    between atoms: N3_6  and  C1_8 
REMARK    3  A    between atoms: C1_8  and  C2_9 
REMARK    4  A    between atoms: C2_9  and  N4_10 
REMARK    5  A    between atoms: C2_9  and  N5_14 
REMARK    6  A    between atoms: N5_14  and  C3_16 
REMARK    7  A    between atoms: C3_16  and  C4_17 
REMARK    8  A    between atoms: C4_17  and  C5_18 
REMARK    9  A    between atoms: C5_18  and  C6_19 
REMARK   10  A    between atoms: C6_19  and  O1_20 
REMARK   11  A    between atoms: C6_19  and  N6_22 
REMARK   12  A    between atoms: N6_22  and  C7_24 
REMARK   13  A    between atoms: C7_24  and  O2_25 
REMARK   14  A    between atoms: C7_24  and  C8_27 
REMARK       I    between atoms: C8_27  and  N7_29 
REMARK   15  A    between atoms: N7_29  and  C9_31 
REMARK   16  A    between atoms: C9_31  and  C10_32 
REMARK   17  A    between atoms: C9_31  and  C18_40 
REMARK   18  A    between atoms: C11_33  and  C12_34 
REMARK   19  A    between atoms: C18_40  and  N8_41 
REMARK       I    between atoms: N8_41  and  C19_43 
REMARK   20  A    between atoms: C19_43  and  C20_45 
REMARK   21  A    between atoms: C20_45  and  C21_46 
REMARK   22  A    between atoms: C21_46  and  N9_47 
REMARK       I    between atoms: N9_47  and  C22_49 
REMARK   23  A    between atoms: C22_49  and  C23_51 
REMARK   24  A    between atoms: C23_51  and  C24_52 
ROOT
HETATM    1  C8  UNL     1      -9.648  15.703  27.348  1.00  0.00     0.293 C 
HETATM    2  O3  UNL     1      -9.243  14.583  27.668  1.00  0.00    -0.264 OA
HETATM    3  N7  UNL     1     -10.009  16.585  28.428  1.00  0.00    -0.345 N 
ATOM      4  H7  UNL     1     -10.353  17.531  28.263  1.00  0.00     0.163 HD
ENDROOT
BRANCH   3   5
HETATM    5  C9  UNL     1      -9.848  16.023  29.809  1.00  0.00     0.125 C 
BRANCH   5   6
HETATM    6  C10 UNL     1      -8.807  16.820  30.504  1.00  0.00     0.001 C 
HETATM    7  C11 UNL     1      -8.132  16.384  31.701  1.00  0.00     0.009 C 
BRANCH   7   8
HETATM    8  C12 UNL     1      -8.765  16.067  32.944  1.00  0.00    -0.036 A 
HETATM    9  C13 UNL     1      -9.284  17.043  33.778  1.00  0.00     0.011 A 
HETATM   10  C14 UNL     1      -9.837  16.773  35.007  1.00  0.00     0.001 A 
HETATM   11  C15 UNL     1      -9.878  15.457  35.432  1.00  0.00     0.000 A 
HETATM   12  C16 UNL     1      -9.373  14.448  34.635  1.00  0.00     0.001 A 
HETATM   13  C17 UNL     1      -8.825  14.765  33.405  1.00  0.00     0.011 A 
ENDBRANCH   7   8
ENDBRANCH   5   6
BRANCH   5  14
HETATM   14  C18 UNL     1     -11.243  16.119  30.358  1.00  0.00     0.151 C 
BRANCH  14  15
HETATM   15  N8  UNL     1     -11.574  14.836  30.969  1.00  0.00    -0.359 N 
HETATM   16  C19 UNL     1     -12.199  14.762  32.242  1.00  0.00     0.219 C 
HETATM   17  O4  UNL     1     -12.490  15.814  32.899  1.00  0.00    -0.274 OA
ATOM     18  H8  UNL     1     -11.352  13.974  30.471  1.00  0.00     0.162 HD
BRANCH  16  19
HETATM   19  C20 UNL     1     -12.538  13.460  32.851  1.00  0.00     0.122 C 
BRANCH  19  20
HETATM   20  C21 UNL     1     -14.029  13.295  32.844  1.00  0.00     0.132 C 
BRANCH  20  21
HETATM   21  N9  UNL     1     -14.631  13.324  31.539  1.00  0.00    -0.360 N 
HETATM   22  C22 UNL     1     -15.448  14.365  31.048  1.00  0.00     0.221 C 
HETATM   23  O5  UNL     1     -15.705  15.362  31.757  1.00  0.00    -0.273 OA
ATOM     24  H9  UNL     1     -14.453  12.533  30.921  1.00  0.00     0.162 HD
BRANCH  22  25
HETATM   25  C23 UNL     1     -16.010  14.276  29.680  1.00  0.00     0.141 C 
BRANCH  25  26
HETATM   26  C24 UNL     1     -14.897  14.219  28.695  1.00  0.00    -0.050 A 
HETATM   27  C25 UNL     1     -14.266  15.373  28.261  1.00  0.00     0.007 A 
HETATM   28  C26 UNL     1     -13.247  15.317  27.357  1.00  0.00     0.001 A 
HETATM   29  C27 UNL     1     -12.789  14.122  26.828  1.00  0.00     0.000 A 
HETATM   30  C28 UNL     1     -13.422  12.979  27.266  1.00  0.00     0.001 A 
HETATM   31  C29 UNL     1     -14.459  13.017  28.183  1.00  0.00     0.007 A 
ENDBRANCH  25  26
ENDBRANCH  22  25
ENDBRANCH  20  21
ENDBRANCH  19  20
ENDBRANCH  16  19
ENDBRANCH  14  15
ENDBRANCH   5  14
ENDBRANCH   3   5
BRANCH   1  32
HETATM   32  C7  UNL     1      -9.778  16.168  26.006  1.00  0.00     0.211 C 
BRANCH  32  33
HETATM   33  N6  UNL     1      -9.794  15.543  24.773  1.00  0.00    -0.317 N 
ATOM     34  H6  UNL     1     -10.732  15.239  24.514  1.00  0.00     0.170 HD
BRANCH  33  35
HETATM   35  C6  UNL     1      -8.867  15.227  23.808  1.00  0.00     0.117 C 
BRANCH  35  36
HETATM   36  C5  UNL     1      -9.042  15.098  22.366  1.00  0.00     0.085 C 
BRANCH  36  37
HETATM   37  C4  UNL     1      -8.986  16.462  21.666  1.00  0.00     0.027 C 
BRANCH  37  38
HETATM   38  C3  UNL     1      -7.658  16.743  21.025  1.00  0.00     0.116 C 
BRANCH  38  39
HETATM   39  N5  UNL     1      -6.635  17.026  21.975  1.00  0.00    -0.394 N 
ATOM     40  H5  UNL     1      -5.812  16.426  22.037  1.00  0.00     0.155 HD
BRANCH  39  41
HETATM   41  C2  UNL     1      -6.766  18.132  22.825  1.00  0.00     0.296 C 
BRANCH  41  42
HETATM   42  C1  UNL     1      -6.153  18.009  24.187  1.00  0.00     0.194 C 
BRANCH  42  43
HETATM   43  N3  UNL     1      -7.110  18.143  25.268  1.00  0.00    -0.319 N 
ATOM     44  H3  UNL     1      -7.951  17.567  25.244  1.00  0.00     0.181 HD
BRANCH  43  45
HETATM   45  N2  UNL     1      -6.939  19.019  26.342  1.00  0.00    -0.254 N 
HETATM   46  N1  UNL     1      -7.895  19.109  27.179  1.00  0.00    -0.331 N 
ATOM     47  H12 UNL     1      -8.744  18.556  27.055  1.00  0.00     0.178 HD
ATOM     48  H11 UNL     1      -7.770  19.749  27.963  1.00  0.00     0.178 HD
ATOM     49  H2  UNL     1      -6.084  19.566  26.451  1.00  0.00     0.207 HD
ENDBRANCH  43  45
ENDBRANCH  42  43
ENDBRANCH  41  42
BRANCH  41  50
HETATM   50  N4  UNL     1      -6.047  19.250  22.176  1.00  0.00    -0.057 N 
ATOM     51  H43 UNL     1      -5.542  18.981  21.331  1.00  0.00     0.276 HD
ATOM     52  H42 UNL     1      -6.661  19.934  21.735  1.00  0.00     0.276 HD
ATOM     53  H41 UNL     1      -5.449  19.643  22.904  1.00  0.00     0.276 HD
ENDBRANCH  41  50
ENDBRANCH  39  41
ENDBRANCH  38  39
ENDBRANCH  37  38
ENDBRANCH  36  37
ENDBRANCH  35  36
BRANCH  35  54
HETATM   54  O1  UNL     1      -7.637  15.001  24.203  1.00  0.00    -0.349 OA
ATOM     55  H1  UNL     1      -7.556  14.905  25.145  1.00  0.00     0.219 HD
ENDBRANCH  35  54
ENDBRANCH  33  35
ENDBRANCH  32  33
BRANCH  32  56
HETATM   56  O2  UNL     1      -9.910  17.503  25.952  1.00  0.00    -0.342 OA
ATOM     57  H2  UNL     1      -9.370  17.976  26.574  1.00  0.00     0.219 HD
ENDBRANCH  32  56
ENDBRANCH   1  32
TORSDOF 24
ENDMDL
