MODEL 1
REMARK VINA RESULT: -8.789948905      0.000      0.000
REMARK  19 active torsions:
REMARK  status: ('A' for Active; 'I' for Inactive)
REMARK       I    between atoms: N1_4  and  C4_6 
REMARK    1  A    between atoms: C4_6  and  C5_8 
REMARK    2  A    between atoms: C5_8  and  C6_9 
REMARK    3  A    between atoms: C5_8  and  N6_25 
REMARK    4  A    between atoms: C6_9  and  C7_10 
REMARK    5  A    between atoms: N4_17  and  C10_19 
REMARK    6  A    between atoms: C10_19  and  C11_20 
REMARK    7  A    between atoms: C11_20  and  N5_21 
REMARK    8  A    between atoms: N5_21  and  C12_23 
REMARK    9  A    between atoms: C13_27  and  O3_28 
REMARK   10  A    between atoms: C13_27  and  C14_30 
REMARK   11  A    between atoms: C14_30  and  C15_31 
REMARK   12  A    between atoms: C15_31  and  C16_32 
REMARK   13  A    between atoms: C16_32  and  C17_33 
REMARK   14  A    between atoms: C17_33  and  C18_34 
REMARK   15  A    between atoms: C20_36  and  O4_37 
REMARK   16  A    between atoms: C22_41  and  C23_42 
REMARK   17  A    between atoms: C23_42  and  C24_43 
REMARK   18  A    between atoms: C24_43  and  C25_44 
REMARK   19  A    between atoms: C25_44  and  N8_45 
REMARK       I    between atoms: N8_45  and  C26_47 
REMARK       I    between atoms: C26_47  and  N10_51 
ROOT
HETATM    1  C1  UNL     1      -9.531  15.238  22.234  1.00  0.00     0.103 C 
HETATM    2  C2  UNL     1      -9.464  16.062  23.363  1.00  0.00    -0.143 C 
HETATM    3  C3  UNL     1      -9.426  16.799  24.417  1.00  0.00     0.142 C 
HETATM    4  N1  UNL     1      -8.661  17.285  25.357  1.00  0.00    -0.325 N 
ATOM      5  H1  UNL     1      -8.763  18.295  25.454  1.00  0.00     0.169 HD
HETATM    6  C4  UNL     1      -7.569  16.662  26.427  1.00  0.00     0.268 C 
HETATM    7  O1  UNL     1      -7.301  15.724  25.883  1.00  0.00    -0.266 OA
ENDROOT
BRANCH   6   8
HETATM    8  C5  UNL     1      -7.593  17.726  27.456  1.00  0.00     0.084 C 
BRANCH   8   9
HETATM    9  C6  UNL     1      -7.231  19.097  26.876  1.00  0.00     0.107 C 
BRANCH   9  10
HETATM   10  C7  UNL     1      -5.754  18.987  26.649  1.00  0.00     0.009 A 
HETATM   11  C8  UNL     1      -4.730  18.712  27.623  1.00  0.00     0.118 A 
HETATM   12  N2  UNL     1      -3.679  19.029  27.032  1.00  0.00    -0.310 N 
HETATM   13  N3  UNL     1      -3.766  19.488  25.808  1.00  0.00    -0.286 N 
ATOM     14  H2  UNL     1      -2.773  18.933  27.491  1.00  0.00     0.186 HD
HETATM   15  C9  UNL     1      -5.054  19.490  25.469  1.00  0.00     0.123 A 
ATOM     16  H3  UNL     1      -2.988  19.789  25.221  1.00  0.00     0.188 HD
HETATM   17  N4  UNL     1      -5.834  19.637  24.495  1.00  0.00    -0.373 N 
ATOM     18  H4  UNL     1      -6.796  19.369  24.703  1.00  0.00     0.161 HD
BRANCH  17  19
HETATM   19  C10 UNL     1      -5.650  20.105  23.151  1.00  0.00     0.141 C 
BRANCH  19  20
HETATM   20  C11 UNL     1      -5.511  18.605  22.402  1.00  0.00     0.141 C 
BRANCH  20  21
HETATM   21  N5  UNL     1      -6.984  18.384  22.255  1.00  0.00    -0.367 N 
ATOM     22  H5  UNL     1      -7.671  18.519  22.995  1.00  0.00     0.161 HD
BRANCH  21  23
HETATM   23  C12 UNL     1      -7.293  17.943  20.890  1.00  0.00     0.348 C 
HETATM   24  O2  UNL     1      -8.436  18.165  20.462  1.00  0.00    -0.284 OA
ENDBRANCH  21  23
ENDBRANCH  20  21
ENDBRANCH  19  20
ENDBRANCH  17  19
ENDBRANCH   9  10
ENDBRANCH   8   9
BRANCH   8  25
HETATM   25  N6  UNL     1      -8.599  17.535  28.391  1.00  0.00    -0.339 N 
HETATM   26  C13 UNL     1      -9.828  17.139  28.614  1.00  0.00     0.115 C 
ATOM     27  H6  UNL     1      -8.221  17.831  29.291  1.00  0.00     0.167 HD
BRANCH  26  28
HETATM   28  O3  UNL     1     -10.740  16.893  27.696  1.00  0.00    -0.349 OA
ATOM     29  H3  UNL     1     -11.059  17.509  27.047  1.00  0.00     0.219 HD
ENDBRANCH  26  28
BRANCH  26  30
HETATM   30  C14 UNL     1     -10.277  16.875  30.079  1.00  0.00     0.084 C 
BRANCH  30  31
HETATM   31  C15 UNL     1      -9.142  17.137  30.996  1.00  0.00     0.008 C 
BRANCH  31  32
HETATM   32  C16 UNL     1      -9.001  16.097  32.056  1.00  0.00     0.002 C 
BRANCH  32  33
HETATM   33  C17 UNL     1      -9.769  16.344  33.330  1.00  0.00     0.026 C 
BRANCH  33  34
HETATM   34  C18 UNL     1     -10.913  15.496  33.660  1.00  0.00     0.092 C 
HETATM   35  C19 UNL     1     -11.345  15.352  35.099  1.00  0.00     0.108 C 
HETATM   36  C20 UNL     1     -12.207  14.140  35.295  1.00  0.00     0.116 C 
HETATM   37  N7  UNL     1     -12.706  13.165  34.517  1.00  0.00    -0.353 N 
HETATM   38  C21 UNL     1     -12.942  11.875  35.056  1.00  0.00     0.152 C 
HETATM   39  C22 UNL     1     -13.045  13.273  33.037  1.00  0.00     0.200 C 
HETATM   40  C27 UNL     1     -13.207  14.716  32.800  1.00  0.00     0.244 C 
HETATM   41  O5  UNL     1     -14.284  15.259  32.549  1.00  0.00    -0.271 OA
HETATM   42  N11 UNL     1     -12.100  15.675  32.857  1.00  0.00    -0.354 N 
ATOM     43  H11 UNL     1     -12.172  16.523  32.294  1.00  0.00     0.162 HD
BRANCH  36  44
HETATM   44  O4  UNL     1     -12.543  14.065  36.551  1.00  0.00    -0.349 OA
ATOM     45  H4  UNL     1     -11.916  13.512  37.003  1.00  0.00     0.219 HD
ENDBRANCH  36  44
BRANCH  39  46
HETATM   46  C23 UNL     1     -14.062  12.330  32.711  1.00  0.00     0.005 C 
BRANCH  46  47
HETATM   47  C24 UNL     1     -14.604  12.050  31.361  1.00  0.00    -0.008 C 
BRANCH  47  48
HETATM   48  C25 UNL     1     -13.869  12.311  30.120  1.00  0.00     0.165 C 
BRANCH  48  49
HETATM   49  N8  UNL     1     -14.252  13.669  29.601  1.00  0.00    -0.224 N 
HETATM   50  C26 UNL     1     -12.964  14.313  29.168  1.00  0.00     0.665 C 
HETATM   51  N9  UNL     1     -11.919  13.583  29.360  1.00  0.00    -0.235 N 
HETATM   52  N10 UNL     1     -13.403  15.549  28.760  1.00  0.00    -0.235 N 
ATOM     53  H92 UNL     1     -11.594  12.666  29.663  1.00  0.00     0.174 HD
ATOM     54  H91 UNL     1     -11.046  14.020  29.066  1.00  0.00     0.174 HD
ATOM     55 2H10 UNL     1     -14.230  16.127  28.608  1.00  0.00     0.174 HD
ATOM     56 1H10 UNL     1     -12.529  15.986  28.466  1.00  0.00     0.174 HD
ATOM     57  H8  UNL     1     -15.189  14.069  29.554  1.00  0.00     0.178 HD
ENDBRANCH  48  49
ENDBRANCH  47  48
ENDBRANCH  46  47
ENDBRANCH  39  46
ENDBRANCH  33  34
ENDBRANCH  32  33
ENDBRANCH  31  32
ENDBRANCH  30  31
ENDBRANCH  26  30
ENDBRANCH   8  25
ENDBRANCH   6   8
TORSDOF 19
ENDMDL
MODEL 2
REMARK VINA RESULT: -8.650020204      1.882     11.611
REMARK  19 active torsions:
REMARK  status: ('A' for Active; 'I' for Inactive)
REMARK       I    between atoms: N1_4  and  C4_6 
REMARK    1  A    between atoms: C4_6  and  C5_8 
REMARK    2  A    between atoms: C5_8  and  C6_9 
REMARK    3  A    between atoms: C5_8  and  N6_25 
REMARK    4  A    between atoms: C6_9  and  C7_10 
REMARK    5  A    between atoms: N4_17  and  C10_19 
REMARK    6  A    between atoms: C10_19  and  C11_20 
REMARK    7  A    between atoms: C11_20  and  N5_21 
REMARK    8  A    between atoms: N5_21  and  C12_23 
REMARK    9  A    between atoms: C13_27  and  O3_28 
REMARK   10  A    between atoms: C13_27  and  C14_30 
REMARK   11  A    between atoms: C14_30  and  C15_31 
REMARK   12  A    between atoms: C15_31  and  C16_32 
REMARK   13  A    between atoms: C16_32  and  C17_33 
REMARK   14  A    between atoms: C17_33  and  C18_34 
REMARK   15  A    between atoms: C20_36  and  O4_37 
REMARK   16  A    between atoms: C22_41  and  C23_42 
REMARK   17  A    between atoms: C23_42  and  C24_43 
REMARK   18  A    between atoms: C24_43  and  C25_44 
REMARK   19  A    between atoms: C25_44  and  N8_45 
REMARK       I    between atoms: N8_45  and  C26_47 
REMARK       I    between atoms: C26_47  and  N10_51 
ROOT
HETATM    1  C1  UNL     1      -8.376  16.821  32.837  1.00  0.00     0.103 C 
HETATM    2  C2  UNL     1      -9.138  16.941  31.669  1.00  0.00    -0.143 C 
HETATM    3  C3  UNL     1      -9.808  17.059  30.578  1.00  0.00     0.142 C 
HETATM    4  N1  UNL     1     -10.612  16.455  29.744  1.00  0.00    -0.325 N 
ATOM      5  H1  UNL     1     -11.447  17.006  29.544  1.00  0.00     0.169 HD
HETATM    6  C4  UNL     1     -10.605  15.017  28.934  1.00  0.00     0.268 C 
HETATM    7  O1  UNL     1      -9.910  14.444  29.595  1.00  0.00    -0.266 OA
ENDROOT
BRANCH   6   8
HETATM    8  C5  UNL     1     -11.531  15.348  27.828  1.00  0.00     0.084 C 
BRANCH   8   9
HETATM    9  C6  UNL     1     -12.926  15.722  28.338  1.00  0.00     0.107 C 
BRANCH   9  10
HETATM   10  C7  UNL     1     -13.545  14.391  28.636  1.00  0.00     0.009 A 
HETATM   11  C8  UNL     1     -14.062  13.430  27.696  1.00  0.00     0.118 A 
HETATM   12  N2  UNL     1     -14.734  12.662  28.413  1.00  0.00    -0.310 N 
HETATM   13  N3  UNL     1     -14.795  12.902  29.699  1.00  0.00    -0.286 N 
ATOM     14  H2  UNL     1     -15.224  11.865  28.007  1.00  0.00     0.186 HD
HETATM   15  C9  UNL     1     -14.057  13.985  29.942  1.00  0.00     0.123 A 
ATOM     16  H3  UNL     1     -15.313  12.359  30.389  1.00  0.00     0.188 HD
HETATM   17  N4  UNL     1     -13.560  14.671  30.870  1.00  0.00    -0.373 N 
ATOM     18  H4  UNL     1     -12.889  15.367  30.543  1.00  0.00     0.161 HD
BRANCH  17  19
HETATM   19  C10 UNL     1     -13.740  14.678  32.293  1.00  0.00     0.141 C 
BRANCH  19  20
HETATM   20  C11 UNL     1     -12.180  15.139  32.721  1.00  0.00     0.141 C 
BRANCH  20  21
HETATM   21  N5  UNL     1     -11.994  14.069  33.750  1.00  0.00    -0.367 N 
ATOM     22  H5  UNL     1     -12.007  13.067  33.559  1.00  0.00     0.161 HD
BRANCH  21  23
HETATM   23  C12 UNL     1     -11.791  14.671  35.072  1.00  0.00     0.348 C 
HETATM   24  O2  UNL     1     -11.784  15.909  35.142  1.00  0.00    -0.284 OA
ENDBRANCH  21  23
ENDBRANCH  20  21
ENDBRANCH  19  20
ENDBRANCH  17  19
ENDBRANCH   9  10
ENDBRANCH   8   9
BRANCH   8  25
HETATM   25  N6  UNL     1     -10.897  16.009  26.787  1.00  0.00    -0.339 N 
HETATM   26  C13 UNL     1     -10.159  17.028  26.423  1.00  0.00     0.115 C 
ATOM     27  H6  UNL     1     -11.088  15.471  25.941  1.00  0.00     0.167 HD
BRANCH  26  28
HETATM   28  O3  UNL     1      -9.880  18.084  27.160  1.00  0.00    -0.349 OA
ATOM     29  H3  UNL     1     -10.513  18.647  27.589  1.00  0.00     0.219 HD
ENDBRANCH  26  28
BRANCH  26  30
HETATM   30  C14 UNL     1      -9.491  17.007  25.019  1.00  0.00     0.084 C 
BRANCH  30  31
HETATM   31  C15 UNL     1      -9.254  15.603  24.608  1.00  0.00     0.008 C 
BRANCH  31  32
HETATM   32  C16 UNL     1      -8.992  15.463  23.145  1.00  0.00     0.002 C 
BRANCH  32  33
HETATM   33  C17 UNL     1      -8.965  16.746  22.353  1.00  0.00     0.026 C 
BRANCH  33  34
HETATM   34  C18 UNL     1      -7.682  17.332  21.970  1.00  0.00     0.092 C 
HETATM   35  C19 UNL     1      -7.410  17.649  20.520  1.00  0.00     0.108 C 
HETATM   36  C20 UNL     1      -5.942  17.810  20.258  1.00  0.00     0.116 C 
HETATM   37  N7  UNL     1      -4.813  17.763  20.986  1.00  0.00    -0.353 N 
HETATM   38  C21 UNL     1      -3.598  17.342  20.388  1.00  0.00     0.152 C 
HETATM   39  C22 UNL     1      -4.675  18.100  22.464  1.00  0.00     0.200 C 
HETATM   40  C27 UNL     1      -5.842  18.945  22.761  1.00  0.00     0.244 C 
HETATM   41  O5  UNL     1      -5.778  20.148  23.018  1.00  0.00    -0.271 OA
HETATM   42  N11 UNL     1      -7.222  18.449  22.762  1.00  0.00    -0.354 N 
ATOM     43  H11 UNL     1      -7.899  18.922  23.360  1.00  0.00     0.162 HD
BRANCH  36  44
HETATM   44  O4  UNL     1      -5.769  18.076  18.995  1.00  0.00    -0.349 OA
ATOM     45  H4  UNL     1      -4.945  17.696  18.713  1.00  0.00     0.219 HD
ENDBRANCH  36  44
BRANCH  39  46
HETATM   46  C23 UNL     1      -3.341  18.522  22.734  1.00  0.00     0.005 C 
BRANCH  46  47
HETATM   47  C24 UNL     1      -2.780  18.877  24.058  1.00  0.00    -0.008 C 
BRANCH  47  48
HETATM   48  C25 UNL     1      -3.382  18.472  25.331  1.00  0.00     0.165 C 
BRANCH  48  49
HETATM   49  N8  UNL     1      -4.258  19.586  25.835  1.00  0.00    -0.224 N 
HETATM   50  C26 UNL     1      -5.509  18.920  26.338  1.00  0.00     0.665 C 
HETATM   51  N9  UNL     1      -5.516  17.639  26.199  1.00  0.00    -0.235 N 
HETATM   52  N10 UNL     1      -6.255  20.005  26.728  1.00  0.00    -0.235 N 
ATOM     53  H92 UNL     1      -4.961  16.833  25.910  1.00  0.00     0.174 HD
ATOM     54  H91 UNL     1      -6.365  17.187  26.540  1.00  0.00     0.174 HD
ATOM     55 2H10 UNL     1      -6.250  21.019  26.839  1.00  0.00     0.174 HD
ATOM     56 1H10 UNL     1      -7.104  19.554  27.069  1.00  0.00     0.174 HD
ATOM     57  H8  UNL     1      -4.047  20.584  25.834  1.00  0.00     0.178 HD
ENDBRANCH  48  49
ENDBRANCH  47  48
ENDBRANCH  46  47
ENDBRANCH  39  46
ENDBRANCH  33  34
ENDBRANCH  32  33
ENDBRANCH  31  32
ENDBRANCH  30  31
ENDBRANCH  26  30
ENDBRANCH   8  25
ENDBRANCH   6   8
TORSDOF 19
ENDMDL
MODEL 3
REMARK VINA RESULT: -8.641564322      1.820      3.198
REMARK  19 active torsions:
REMARK  status: ('A' for Active; 'I' for Inactive)
REMARK       I    between atoms: N1_4  and  C4_6 
REMARK    1  A    between atoms: C4_6  and  C5_8 
REMARK    2  A    between atoms: C5_8  and  C6_9 
REMARK    3  A    between atoms: C5_8  and  N6_25 
REMARK    4  A    between atoms: C6_9  and  C7_10 
REMARK    5  A    between atoms: N4_17  and  C10_19 
REMARK    6  A    between atoms: C10_19  and  C11_20 
REMARK    7  A    between atoms: C11_20  and  N5_21 
REMARK    8  A    between atoms: N5_21  and  C12_23 
REMARK    9  A    between atoms: C13_27  and  O3_28 
REMARK   10  A    between atoms: C13_27  and  C14_30 
REMARK   11  A    between atoms: C14_30  and  C15_31 
REMARK   12  A    between atoms: C15_31  and  C16_32 
REMARK   13  A    between atoms: C16_32  and  C17_33 
REMARK   14  A    between atoms: C17_33  and  C18_34 
REMARK   15  A    between atoms: C20_36  and  O4_37 
REMARK   16  A    between atoms: C22_41  and  C23_42 
REMARK   17  A    between atoms: C23_42  and  C24_43 
REMARK   18  A    between atoms: C24_43  and  C25_44 
REMARK   19  A    between atoms: C25_44  and  N8_45 
REMARK       I    between atoms: N8_45  and  C26_47 
REMARK       I    between atoms: C26_47  and  N10_51 
ROOT
HETATM    1  C1  UNL     1     -13.923  12.993  26.508  1.00  0.00     0.103 C 
HETATM    2  C2  UNL     1     -13.189  14.121  26.893  1.00  0.00    -0.143 C 
HETATM    3  C3  UNL     1     -12.519  15.148  27.282  1.00  0.00     0.142 C 
HETATM    4  N1  UNL     1     -11.380  15.781  27.190  1.00  0.00    -0.325 N 
ATOM      5  H1  UNL     1     -11.504  16.768  26.963  1.00  0.00     0.169 HD
HETATM    6  C4  UNL     1      -9.789  15.373  27.350  1.00  0.00     0.268 C 
HETATM    7  O1  UNL     1      -9.866  14.276  27.152  1.00  0.00    -0.266 OA
ENDROOT
BRANCH   6   8
HETATM    8  C5  UNL     1      -9.218  16.706  27.649  1.00  0.00     0.084 C 
BRANCH   8   9
HETATM    9  C6  UNL     1      -9.524  17.723  26.545  1.00  0.00     0.107 C 
BRANCH   9  10
HETATM   10  C7  UNL     1      -8.525  17.379  25.483  1.00  0.00     0.009 A 
HETATM   11  C8  UNL     1      -8.762  16.694  24.239  1.00  0.00     0.118 A 
HETATM   12  N2  UNL     1      -7.616  16.374  23.865  1.00  0.00    -0.310 N 
HETATM   13  N3  UNL     1      -6.599  16.704  24.621  1.00  0.00    -0.286 N 
ATOM     14  H2  UNL     1      -7.475  15.869  22.991  1.00  0.00     0.186 HD
HETATM   15  C9  UNL     1      -7.077  17.360  25.677  1.00  0.00     0.123 A 
ATOM     16  H3  UNL     1      -5.618  16.496  24.435  1.00  0.00     0.188 HD
HETATM   17  N4  UNL     1      -6.732  18.052  26.667  1.00  0.00    -0.373 N 
ATOM     18  H4  UNL     1      -7.517  18.504  27.138  1.00  0.00     0.161 HD
BRANCH  17  19
HETATM   19  C10 UNL     1      -5.463  18.338  27.273  1.00  0.00     0.141 C 
BRANCH  19  20
HETATM   20  C11 UNL     1      -5.428  19.992  26.965  1.00  0.00     0.141 C 
BRANCH  20  21
HETATM   21  N5  UNL     1      -4.248  19.938  26.046  1.00  0.00    -0.367 N 
ATOM     22  H5  UNL     1      -3.307  19.656  26.319  1.00  0.00     0.161 HD
BRANCH  21  23
HETATM   23  C12 UNL     1      -4.643  20.351  24.694  1.00  0.00     0.348 C 
HETATM   24  O2  UNL     1      -5.303  19.546  24.020  1.00  0.00    -0.284 OA
ENDBRANCH  21  23
ENDBRANCH  20  21
ENDBRANCH  19  20
ENDBRANCH  17  19
ENDBRANCH   9  10
ENDBRANCH   8   9
BRANCH   8  25
HETATM   25  N6  UNL     1      -9.264  17.011  29.001  1.00  0.00    -0.339 N 
HETATM   26  C13 UNL     1      -9.917  16.891  30.130  1.00  0.00     0.115 C 
ATOM     27  H6  UNL     1      -8.433  17.567  29.203  1.00  0.00     0.167 HD
BRANCH  26  28
HETATM   28  O3  UNL     1     -11.149  16.444  30.268  1.00  0.00    -0.349 OA
ATOM     29  H3  UNL     1     -11.513  16.044  31.049  1.00  0.00     0.219 HD
ENDBRANCH  26  28
BRANCH  26  30
HETATM   30  C14 UNL     1      -9.193  17.253  31.457  1.00  0.00     0.084 C 
BRANCH  30  31
HETATM   31  C15 UNL     1      -8.417  16.082  31.929  1.00  0.00     0.008 C 
BRANCH  31  32
HETATM   32  C16 UNL     1      -8.893  15.561  33.244  1.00  0.00     0.002 C 
BRANCH  32  33
HETATM   33  C17 UNL     1     -10.258  16.028  33.684  1.00  0.00     0.026 C 
BRANCH  33  34
HETATM   34  C18 UNL     1     -11.236  15.053  34.162  1.00  0.00     0.092 C 
HETATM   35  C19 UNL     1     -11.769  15.158  35.570  1.00  0.00     0.108 C 
HETATM   36  C20 UNL     1     -12.386  13.869  36.022  1.00  0.00     0.116 C 
HETATM   37  N7  UNL     1     -12.602  12.654  35.489  1.00  0.00    -0.353 N 
HETATM   38  C21 UNL     1     -12.626  11.506  36.322  1.00  0.00     0.152 C 
HETATM   39  C22 UNL     1     -12.809  12.336  34.015  1.00  0.00     0.200 C 
HETATM   40  C27 UNL     1     -13.232  13.612  33.419  1.00  0.00     0.244 C 
HETATM   41  O5  UNL     1     -14.366  13.834  32.991  1.00  0.00    -0.271 OA
HETATM   42  N11 UNL     1     -12.350  14.776  33.286  1.00  0.00    -0.354 N 
ATOM     43  H11 UNL     1     -12.535  15.432  32.526  1.00  0.00     0.162 HD
BRANCH  36  44
HETATM   44  O4  UNL     1     -12.822  14.018  37.240  1.00  0.00    -0.349 OA
ATOM     45  H4  UNL     1     -13.371  13.275  37.462  1.00  0.00     0.219 HD
ENDBRANCH  36  44
BRANCH  39  46
HETATM   46  C23 UNL     1     -13.579  11.144  33.889  1.00  0.00     0.005 C 
BRANCH  46  47
HETATM   47  C24 UNL     1     -13.338  10.037  32.935  1.00  0.00    -0.008 C 
BRANCH  47  48
HETATM   48  C25 UNL     1     -13.312  10.209  31.479  1.00  0.00     0.165 C 
BRANCH  48  49
HETATM   49  N8  UNL     1     -14.422  11.140  31.077  1.00  0.00    -0.224 N 
HETATM   50  C26 UNL     1     -13.772  12.201  30.231  1.00  0.00     0.665 C 
HETATM   51  N9  UNL     1     -12.499  12.056  30.092  1.00  0.00    -0.235 N 
HETATM   52  N10 UNL     1     -14.840  13.019  29.955  1.00  0.00    -0.235 N 
ATOM     53  H92 UNL     1     -11.706  11.448  30.298  1.00  0.00     0.174 HD
ATOM     54  H91 UNL     1     -12.058  12.776  29.519  1.00  0.00     0.174 HD
ATOM     55 2H10 UNL     1     -15.848  13.133  30.064  1.00  0.00     0.174 HD
ATOM     56 1H10 UNL     1     -14.399  13.739  29.381  1.00  0.00     0.174 HD
ATOM     57  H8  UNL     1     -15.408  11.068  31.326  1.00  0.00     0.178 HD
ENDBRANCH  48  49
ENDBRANCH  47  48
ENDBRANCH  46  47
ENDBRANCH  39  46
ENDBRANCH  33  34
ENDBRANCH  32  33
ENDBRANCH  31  32
ENDBRANCH  30  31
ENDBRANCH  26  30
ENDBRANCH   8  25
ENDBRANCH   6   8
TORSDOF 19
ENDMDL
MODEL 4
REMARK VINA RESULT: -8.599465100      1.832      2.623
REMARK  19 active torsions:
REMARK  status: ('A' for Active; 'I' for Inactive)
REMARK       I    between atoms: N1_4  and  C4_6 
REMARK    1  A    between atoms: C4_6  and  C5_8 
REMARK    2  A    between atoms: C5_8  and  C6_9 
REMARK    3  A    between atoms: C5_8  and  N6_25 
REMARK    4  A    between atoms: C6_9  and  C7_10 
REMARK    5  A    between atoms: N4_17  and  C10_19 
REMARK    6  A    between atoms: C10_19  and  C11_20 
REMARK    7  A    between atoms: C11_20  and  N5_21 
REMARK    8  A    between atoms: N5_21  and  C12_23 
REMARK    9  A    between atoms: C13_27  and  O3_28 
REMARK   10  A    between atoms: C13_27  and  C14_30 
REMARK   11  A    between atoms: C14_30  and  C15_31 
REMARK   12  A    between atoms: C15_31  and  C16_32 
REMARK   13  A    between atoms: C16_32  and  C17_33 
REMARK   14  A    between atoms: C17_33  and  C18_34 
REMARK   15  A    between atoms: C20_36  and  O4_37 
REMARK   16  A    between atoms: C22_41  and  C23_42 
REMARK   17  A    between atoms: C23_42  and  C24_43 
REMARK   18  A    between atoms: C24_43  and  C25_44 
REMARK   19  A    between atoms: C25_44  and  N8_45 
REMARK       I    between atoms: N8_45  and  C26_47 
REMARK       I    between atoms: C26_47  and  N10_51 
ROOT
HETATM    1  C1  UNL     1     -12.805  13.280  26.452  1.00  0.00     0.103 C 
HETATM    2  C2  UNL     1     -12.036  14.296  27.031  1.00  0.00    -0.143 C 
HETATM    3  C3  UNL     1     -11.338  15.216  27.596  1.00  0.00     0.142 C 
HETATM    4  N1  UNL     1     -10.150  15.750  27.697  1.00  0.00    -0.325 N 
ATOM      5  H1  UNL     1     -10.168  16.761  27.563  1.00  0.00     0.169 HD
HETATM    6  C4  UNL     1      -8.626  15.186  27.989  1.00  0.00     0.268 C 
HETATM    7  O1  UNL     1      -8.765  14.125  27.670  1.00  0.00    -0.266 OA
ENDROOT
BRANCH   6   8
HETATM    8  C5  UNL     1      -7.991  16.428  28.486  1.00  0.00     0.084 C 
BRANCH   8   9
HETATM    9  C6  UNL     1      -8.051  17.558  27.454  1.00  0.00     0.107 C 
BRANCH   9  10
HETATM   10  C7  UNL     1      -6.877  17.270  26.569  1.00  0.00     0.009 A 
HETATM   11  C8  UNL     1      -5.479  17.386  26.894  1.00  0.00     0.118 A 
HETATM   12  N2  UNL     1      -4.922  17.347  25.779  1.00  0.00    -0.310 N 
HETATM   13  N3  UNL     1      -5.671  17.228  24.711  1.00  0.00    -0.286 N 
ATOM     14  H2  UNL     1      -3.907  17.406  25.701  1.00  0.00     0.186 HD
HETATM   15  C9  UNL     1      -6.939  17.161  25.114  1.00  0.00     0.123 A 
ATOM     16  H3  UNL     1      -5.343  17.193  23.746  1.00  0.00     0.188 HD
HETATM   17  N4  UNL     1      -8.106  16.914  24.716  1.00  0.00    -0.373 N 
ATOM     18  H4  UNL     1      -8.781  16.824  25.476  1.00  0.00     0.161 HD
BRANCH  17  19
HETATM   19  C10 UNL     1      -8.683  16.734  23.415  1.00  0.00     0.141 C 
BRANCH  19  20
HETATM   20  C11 UNL     1      -8.598  15.055  23.356  1.00  0.00     0.141 C 
BRANCH  20  21
HETATM   21  N5  UNL     1      -7.821  14.998  22.079  1.00  0.00    -0.367 N 
ATOM     22  H5  UNL     1      -7.069  14.338  21.881  1.00  0.00     0.161 HD
BRANCH  21  23
HETATM   23  C12 UNL     1      -8.300  16.029  21.152  1.00  0.00     0.348 C 
HETATM   24  O2  UNL     1      -7.876  15.992  19.986  1.00  0.00    -0.284 OA
ENDBRANCH  21  23
ENDBRANCH  20  21
ENDBRANCH  19  20
ENDBRANCH  17  19
ENDBRANCH   9  10
ENDBRANCH   8   9
BRANCH   8  25
HETATM   25  N6  UNL     1      -8.201  16.622  29.843  1.00  0.00    -0.339 N 
HETATM   26  C13 UNL     1      -9.070  16.678  30.822  1.00  0.00     0.115 C 
ATOM     27  H6  UNL     1      -7.285  16.797  30.257  1.00  0.00     0.167 HD
BRANCH  26  28
HETATM   28  O3  UNL     1     -10.379  16.732  30.691  1.00  0.00    -0.349 OA
ATOM     29  H3  UNL     1     -10.959  17.349  31.124  1.00  0.00     0.219 HD
ENDBRANCH  26  28
BRANCH  26  30
HETATM   30  C14 UNL     1      -8.554  16.629  32.288  1.00  0.00     0.084 C 
BRANCH  30  31
HETATM   31  C15 UNL     1      -8.898  15.318  32.887  1.00  0.00     0.008 C 
BRANCH  31  32
HETATM   32  C16 UNL     1      -8.997  15.368  34.375  1.00  0.00     0.002 C 
BRANCH  32  33
HETATM   33  C17 UNL     1     -10.374  15.620  34.936  1.00  0.00     0.026 C 
BRANCH  33  34
HETATM   34  C18 UNL     1     -11.399  14.584  34.827  1.00  0.00     0.092 C 
HETATM   35  C19 UNL     1     -12.010  14.003  36.078  1.00  0.00     0.108 C 
HETATM   36  C20 UNL     1     -12.680  12.689  35.805  1.00  0.00     0.116 C 
HETATM   37  N7  UNL     1     -12.891  11.910  34.730  1.00  0.00    -0.353 N 
HETATM   38  C21 UNL     1     -12.989  10.503  34.880  1.00  0.00     0.152 C 
HETATM   39  C22 UNL     1     -13.020  12.375  33.287  1.00  0.00     0.200 C 
HETATM   40  C27 UNL     1     -13.380  13.798  33.388  1.00  0.00     0.244 C 
HETATM   41  O5  UNL     1     -14.482  14.256  33.083  1.00  0.00    -0.271 OA
HETATM   42  N11 UNL     1     -12.467  14.831  33.886  1.00  0.00    -0.354 N 
ATOM     43  H11 UNL     1     -12.593  15.785  33.547  1.00  0.00     0.162 HD
BRANCH  36  44
HETATM   44  O4  UNL     1     -13.182  12.236  36.918  1.00  0.00    -0.349 OA
ATOM     45  H4  UNL     1     -13.592  11.395  36.749  1.00  0.00     0.219 HD
ENDBRANCH  36  44
BRANCH  39  46
HETATM   46  C23 UNL     1     -13.808  11.441  32.554  1.00  0.00     0.005 C 
BRANCH  46  47
HETATM   47  C24 UNL     1     -13.672  11.110  31.116  1.00  0.00    -0.008 C 
BRANCH  47  48
HETATM   48  C25 UNL     1     -13.390  12.105  30.077  1.00  0.00     0.165 C 
BRANCH  48  49
HETATM   49  N8  UNL     1     -14.687  12.550  29.460  1.00  0.00    -0.224 N 
HETATM   50  C26 UNL     1     -14.709  14.047  29.602  1.00  0.00     0.665 C 
HETATM   51  N9  UNL     1     -13.676  14.534  30.199  1.00  0.00    -0.235 N 
HETATM   52  N10 UNL     1     -15.934  14.352  29.062  1.00  0.00    -0.235 N 
ATOM     53  H92 UNL     1     -12.766  14.307  30.600  1.00  0.00     0.174 HD
ATOM     54  H91 UNL     1     -13.691  15.550  30.295  1.00  0.00     0.174 HD
ATOM     55 2H10 UNL     1     -16.752  13.967  28.589  1.00  0.00     0.174 HD
ATOM     56 1H10 UNL     1     -15.949  15.368  29.158  1.00  0.00     0.174 HD
ATOM     57  H8  UNL     1     -15.402  11.959  29.036  1.00  0.00     0.178 HD
ENDBRANCH  48  49
ENDBRANCH  47  48
ENDBRANCH  46  47
ENDBRANCH  39  46
ENDBRANCH  33  34
ENDBRANCH  32  33
ENDBRANCH  31  32
ENDBRANCH  30  31
ENDBRANCH  26  30
ENDBRANCH   8  25
ENDBRANCH   6   8
TORSDOF 19
ENDMDL
MODEL 5
REMARK VINA RESULT: -8.496634104      2.543     10.731
REMARK  19 active torsions:
REMARK  status: ('A' for Active; 'I' for Inactive)
REMARK       I    between atoms: N1_4  and  C4_6 
REMARK    1  A    between atoms: C4_6  and  C5_8 
REMARK    2  A    between atoms: C5_8  and  C6_9 
REMARK    3  A    between atoms: C5_8  and  N6_25 
REMARK    4  A    between atoms: C6_9  and  C7_10 
REMARK    5  A    between atoms: N4_17  and  C10_19 
REMARK    6  A    between atoms: C10_19  and  C11_20 
REMARK    7  A    between atoms: C11_20  and  N5_21 
REMARK    8  A    between atoms: N5_21  and  C12_23 
REMARK    9  A    between atoms: C13_27  and  O3_28 
REMARK   10  A    between atoms: C13_27  and  C14_30 
REMARK   11  A    between atoms: C14_30  and  C15_31 
REMARK   12  A    between atoms: C15_31  and  C16_32 
REMARK   13  A    between atoms: C16_32  and  C17_33 
REMARK   14  A    between atoms: C17_33  and  C18_34 
REMARK   15  A    between atoms: C20_36  and  O4_37 
REMARK   16  A    between atoms: C22_41  and  C23_42 
REMARK   17  A    between atoms: C23_42  and  C24_43 
REMARK   18  A    between atoms: C24_43  and  C25_44 
REMARK   19  A    between atoms: C25_44  and  N8_45 
REMARK       I    between atoms: N8_45  and  C26_47 
REMARK       I    between atoms: C26_47  and  N10_51 
ROOT
HETATM    1  C1  UNL     1      -5.118  20.059  26.562  1.00  0.00     0.103 C 
HETATM    2  C2  UNL     1      -6.317  19.502  27.023  1.00  0.00    -0.143 C 
HETATM    3  C3  UNL     1      -7.424  18.977  27.414  1.00  0.00     0.142 C 
HETATM    4  N1  UNL     1      -7.978  18.151  28.260  1.00  0.00    -0.325 N 
ATOM      5  H1  UNL     1      -8.765  18.573  28.753  1.00  0.00     0.169 HD
HETATM    6  C4  UNL     1      -7.714  16.590  28.727  1.00  0.00     0.268 C 
HETATM    7  O1  UNL     1      -6.640  16.497  28.438  1.00  0.00    -0.266 OA
ENDROOT
BRANCH   6   8
HETATM    8  C5  UNL     1      -9.056  16.258  29.258  1.00  0.00     0.084 C 
BRANCH   8   9
HETATM    9  C6  UNL     1      -9.487  17.216  30.373  1.00  0.00     0.107 C 
BRANCH   9  10
HETATM   10  C7  UNL     1      -9.262  16.410  31.615  1.00  0.00     0.009 A 
HETATM   11  C8  UNL     1      -8.029  16.226  32.335  1.00  0.00     0.118 A 
HETATM   12  N2  UNL     1      -8.274  15.257  33.080  1.00  0.00    -0.310 N 
HETATM   13  N3  UNL     1      -9.462  14.709  33.021  1.00  0.00    -0.286 N 
ATOM     14  H2  UNL     1      -7.566  14.899  33.721  1.00  0.00     0.186 HD
HETATM   15  C9  UNL     1     -10.172  15.384  32.118  1.00  0.00     0.123 A 
ATOM     16  H3  UNL     1      -9.785  13.911  33.567  1.00  0.00     0.188 HD
HETATM   17  N4  UNL     1     -11.334  15.530  31.662  1.00  0.00    -0.373 N 
ATOM     18  H4  UNL     1     -11.427  16.336  31.044  1.00  0.00     0.161 HD
BRANCH  17  19
HETATM   19  C10 UNL     1     -12.556  14.797  31.831  1.00  0.00     0.141 C 
BRANCH  19  20
HETATM   20  C11 UNL     1     -12.608  14.081  30.309  1.00  0.00     0.141 C 
BRANCH  20  21
HETATM   21  N5  UNL     1     -13.798  14.852  29.831  1.00  0.00    -0.367 N 
ATOM     22  H5  UNL     1     -14.153  15.705  30.263  1.00  0.00     0.161 HD
BRANCH  21  23
HETATM   23  C12 UNL     1     -14.380  14.200  28.653  1.00  0.00     0.348 C 
HETATM   24  O2  UNL     1     -14.573  14.902  27.648  1.00  0.00    -0.284 OA
ENDBRANCH  21  23
ENDBRANCH  20  21
ENDBRANCH  19  20
ENDBRANCH  17  19
ENDBRANCH   9  10
ENDBRANCH   8   9
BRANCH   8  25
HETATM   25  N6  UNL     1      -9.916  15.798  28.272  1.00  0.00    -0.339 N 
HETATM   26  C13 UNL     1     -11.072  15.940  27.671  1.00  0.00     0.115 C 
ATOM     27  H6  UNL     1      -9.448  15.012  27.820  1.00  0.00     0.167 HD
BRANCH  26  28
HETATM   28  O3  UNL     1     -12.074  16.687  28.089  1.00  0.00    -0.349 OA
ATOM     29  H3  UNL     1     -12.852  16.905  27.590  1.00  0.00     0.219 HD
ENDBRANCH  26  28
BRANCH  26  30
HETATM   30  C14 UNL     1     -11.306  15.217  26.315  1.00  0.00     0.084 C 
BRANCH  30  31
HETATM   31  C15 UNL     1     -10.014  15.072  25.605  1.00  0.00     0.008 C 
BRANCH  31  32
HETATM   32  C16 UNL     1      -9.611  16.309  24.874  1.00  0.00     0.002 C 
BRANCH  32  33
HETATM   33  C17 UNL     1      -8.133  16.608  24.848  1.00  0.00     0.026 C 
BRANCH  33  34
HETATM   34  C18 UNL     1      -7.528  17.159  23.637  1.00  0.00     0.092 C 
HETATM   35  C19 UNL     1      -8.402  17.497  22.454  1.00  0.00     0.108 C 
HETATM   36  C20 UNL     1      -7.599  17.615  21.193  1.00  0.00     0.116 C 
HETATM   37  N7  UNL     1      -6.303  17.515  20.852  1.00  0.00    -0.353 N 
HETATM   38  C21 UNL     1      -5.940  17.066  19.556  1.00  0.00     0.152 C 
HETATM   39  C22 UNL     1      -5.107  17.817  21.744  1.00  0.00     0.200 C 
HETATM   40  C27 UNL     1      -5.643  18.693  22.797  1.00  0.00     0.244 C 
HETATM   41  O5  UNL     1      -5.365  19.888  22.910  1.00  0.00    -0.271 OA
HETATM   42  N11 UNL     1      -6.592  18.243  23.820  1.00  0.00    -0.354 N 
ATOM     43  H11 UNL     1      -6.590  18.726  24.719  1.00  0.00     0.162 HD
BRANCH  36  44
HETATM   44  O4  UNL     1      -8.403  17.902  20.210  1.00  0.00    -0.349 OA
ATOM     45  H4  UNL     1      -8.109  17.445  19.430  1.00  0.00     0.219 HD
ENDBRANCH  36  44
BRANCH  39  46
HETATM   46  C23 UNL     1      -3.993  18.189  20.938  1.00  0.00     0.005 C 
BRANCH  46  47
HETATM   47  C24 UNL     1      -2.567  17.896  21.215  1.00  0.00    -0.008 C 
BRANCH  47  48
HETATM   48  C25 UNL     1      -1.968  17.963  22.552  1.00  0.00     0.165 C 
BRANCH  48  49
HETATM   49  N8  UNL     1      -1.249  16.672  22.830  1.00  0.00    -0.224 N 
HETATM   50  C26 UNL     1      -1.986  16.039  23.978  1.00  0.00     0.665 C 
HETATM   51  N9  UNL     1      -2.978  16.736  24.416  1.00  0.00    -0.235 N 
HETATM   52  N10 UNL     1      -1.238  14.906  24.188  1.00  0.00    -0.235 N 
ATOM     53  H92 UNL     1      -3.533  17.577  24.259  1.00  0.00     0.174 HD
ATOM     54  H91 UNL     1      -3.477  16.306  25.194  1.00  0.00     0.174 HD
ATOM     55 2H10 UNL     1      -0.453  14.354  23.842  1.00  0.00     0.174 HD
ATOM     56 1H10 UNL     1      -1.737  14.476  24.967  1.00  0.00     0.174 HD
ATOM     57  H8  UNL     1      -0.432  16.304  22.343  1.00  0.00     0.178 HD
ENDBRANCH  48  49
ENDBRANCH  47  48
ENDBRANCH  46  47
ENDBRANCH  39  46
ENDBRANCH  33  34
ENDBRANCH  32  33
ENDBRANCH  31  32
ENDBRANCH  30  31
ENDBRANCH  26  30
ENDBRANCH   8  25
ENDBRANCH   6   8
TORSDOF 19
ENDMDL
