MODEL 1
REMARK VINA RESULT: -8.816899824      0.000      0.000
REMARK  20 active torsions:
REMARK  status: ('A' for Active; 'I' for Inactive)
REMARK    1  A    between atoms: C2_3  and  C3_4 
REMARK    2  A    between atoms: C3_4  and  C4_5 
REMARK    3  A    between atoms: C11_12  and  C12_13 
REMARK       I    between atoms: C12_13  and  N2_15 
REMARK       I    between atoms: N2_15  and  C13_17 
REMARK       I    between atoms: C13_17  and  N4_21 
REMARK    4  A    between atoms: N4_21  and  C14_23 
REMARK    5  A    between atoms: C14_23  and  C15_24 
REMARK    6  A    between atoms: C15_24  and  C16_25 
REMARK    7  A    between atoms: C16_25  and  C17_26 
REMARK    8  A    between atoms: C17_26  and  N5_27 
REMARK    9  A    between atoms: N5_27  and  C18_29 
REMARK   10  A    between atoms: C18_29  and  C19_30 
REMARK   11  A    between atoms: C19_30  and  C20_31 
REMARK   12  A    between atoms: C20_31  and  N6_32 
REMARK       I    between atoms: N6_32  and  C21_34 
REMARK   13  A    between atoms: C21_34  and  C22_36 
REMARK   14  A    between atoms: C22_36  and  C23_37 
REMARK   15  A    between atoms: C23_37  and  N7_38 
REMARK       I    between atoms: N7_38  and  C24_40 
REMARK   16  A    between atoms: C24_40  and  C25_42 
REMARK   17  A    between atoms: C25_42  and  C26_43 
REMARK   18  A    between atoms: C26_43  and  N8_44 
REMARK   19  A    between atoms: N8_44  and  N9_46 
REMARK   20  A    between atoms: N11_51  and  O4_52 
ROOT
HETATM    1  C14 UNL     1      -9.303  15.574  24.491  1.00  0.00     0.079 C 
ENDROOT
BRANCH   1   2
HETATM    2  N4  UNL     1      -8.844  14.816  25.555  1.00  0.00    -0.206 N 
HETATM    3  C13 UNL     1      -8.634  15.094  26.894  1.00  0.00     0.678 C 
HETATM    4  N2  UNL     1      -9.628  15.014  27.917  1.00  0.00    -0.158 N 
HETATM    5  N3  UNL     1      -7.416  15.427  27.268  1.00  0.00    -0.234 N 
HETATM    6  C12 UNL     1     -10.964  14.645  27.751  1.00  0.00     0.261 C 
ATOM      7  H2  UNL     1      -9.331  15.250  28.864  1.00  0.00     0.187 HD
HETATM    8  O1  UNL     1     -11.373  14.334  26.587  1.00  0.00    -0.270 OA
ATOM      9  H32 UNL     1      -7.260  15.632  28.255  1.00  0.00     0.174 HD
ATOM     10  H31 UNL     1      -6.706  15.484  26.538  1.00  0.00     0.174 HD
ATOM     11  H4  UNL     1      -8.614  13.856  25.299  1.00  0.00     0.183 HD
BRANCH   6  12
HETATM   12  C11 UNL     1     -11.929  14.585  28.825  1.00  0.00     0.217 C 
HETATM   13  C10 UNL     1     -11.359  14.127  30.171  1.00  0.00     0.090 C 
HETATM   14  C2  UNL     1     -12.404  14.413  31.191  1.00  0.00    -0.000 C 
HETATM   15  N1  UNL     1     -13.656  14.356  30.973  1.00  0.00    -0.309 N 
HETATM   16  C1  UNL     1     -14.666  14.611  31.981  1.00  0.00     0.161 C 
HETATM   17  C27 UNL     1     -14.135  14.055  29.667  1.00  0.00     0.348 C 
HETATM   18  N11 UNL     1     -13.134  13.834  28.648  1.00  0.00    -0.196 N 
HETATM   19  O5  UNL     1     -15.354  13.969  29.357  1.00  0.00    -0.244 OA
BRANCH  14  20
HETATM   20  C3  UNL     1     -11.956  14.762  32.548  1.00  0.00     0.091 C 
BRANCH  20  21
HETATM   21  C4  UNL     1     -10.568  15.346  32.572  1.00  0.00    -0.053 A 
HETATM   22  C5  UNL     1      -9.620  14.866  33.444  1.00  0.00     0.007 A 
HETATM   23  C6  UNL     1      -8.365  15.421  33.442  1.00  0.00     0.001 A 
HETATM   24  C7  UNL     1      -8.009  16.452  32.592  1.00  0.00     0.000 A 
HETATM   25  C8  UNL     1      -8.991  16.899  31.737  1.00  0.00     0.001 A 
HETATM   26  C9  UNL     1     -10.263  16.353  31.723  1.00  0.00     0.007 A 
ENDBRANCH  20  21
ENDBRANCH  14  20
BRANCH  18  27
HETATM   27  O4  UNL     1     -13.379  12.965  27.662  1.00  0.00    -0.283 OA
ATOM     28  H4  UNL     1     -14.226  12.597  27.441  1.00  0.00     0.245 HD
ENDBRANCH  18  27
ENDBRANCH   6  12
ENDBRANCH   1   2
BRANCH   1  29
HETATM   29  C15 UNL     1      -8.797  15.309  23.099  1.00  0.00     0.050 C 
BRANCH  29  30
HETATM   30  C16 UNL     1      -9.807  15.278  22.047  1.00  0.00     0.049 C 
BRANCH  30  31
HETATM   31  C17 UNL     1      -9.694  16.342  21.003  1.00  0.00     0.056 C 
BRANCH  31  32
HETATM   32  N5  UNL     1      -8.849  17.415  21.116  1.00  0.00    -0.402 N 
ATOM     33  H5  UNL     1      -9.026  18.055  21.890  1.00  0.00     0.158 HD
BRANCH  32  34
HETATM   34  C18 UNL     1      -7.776  17.722  20.286  1.00  0.00     0.120 C 
BRANCH  34  35
HETATM   35  C19 UNL     1      -6.433  17.374  20.958  1.00  0.00     0.039 C 
BRANCH  35  36
HETATM   36  C20 UNL     1      -6.389  18.071  22.277  1.00  0.00     0.124 C 
BRANCH  36  37
HETATM   37  N6  UNL     1      -5.096  18.007  22.917  1.00  0.00    -0.361 N 
HETATM   38  C21 UNL     1      -4.459  19.162  23.389  1.00  0.00     0.219 C 
HETATM   39  O2  UNL     1      -4.934  20.308  23.309  1.00  0.00    -0.274 OA
ATOM     40  H6  UNL     1      -4.637  17.103  23.028  1.00  0.00     0.162 HD
BRANCH  38  41
HETATM   41  C22 UNL     1      -3.103  19.004  24.039  1.00  0.00     0.122 C 
BRANCH  41  42
HETATM   42  C23 UNL     1      -3.289  18.501  25.433  1.00  0.00     0.132 C 
BRANCH  42  43
HETATM   43  N7  UNL     1      -4.241  19.302  26.141  1.00  0.00    -0.361 N 
HETATM   44  C24 UNL     1      -5.509  18.827  26.486  1.00  0.00     0.219 C 
HETATM   45  O3  UNL     1      -5.883  17.649  26.181  1.00  0.00    -0.274 OA
ATOM     46  H7  UNL     1      -3.985  20.255  26.402  1.00  0.00     0.162 HD
BRANCH  44  47
HETATM   47  C25 UNL     1      -6.452  19.702  27.228  1.00  0.00     0.124 C 
BRANCH  47  48
HETATM   48  C26 UNL     1      -7.617  18.891  27.726  1.00  0.00     0.150 C 
BRANCH  48  49
HETATM   49  N8  UNL     1      -8.559  18.676  26.653  1.00  0.00    -0.322 N 
ATOM     50  H8  UNL     1      -8.201  18.399  25.738  1.00  0.00     0.181 HD
BRANCH  49  51
HETATM   51  N9  UNL     1      -9.925  18.829  26.808  1.00  0.00    -0.254 N 
HETATM   52  N10 UNL     1     -10.535  18.235  27.759  1.00  0.00    -0.331 N 
ATOM     53 2H10 UNL     1      -9.998  17.649  28.398  1.00  0.00     0.178 HD
ATOM     54 1H10 UNL     1     -11.542  18.347  27.874  1.00  0.00     0.178 HD
ATOM     55  H9  UNL     1     -10.447  19.419  26.161  1.00  0.00     0.207 HD
ENDBRANCH  49  51
ENDBRANCH  48  49
ENDBRANCH  47  48
ENDBRANCH  44  47
ENDBRANCH  42  43
ENDBRANCH  41  42
ENDBRANCH  38  41
ENDBRANCH  36  37
ENDBRANCH  35  36
ENDBRANCH  34  35
ENDBRANCH  32  34
ENDBRANCH  31  32
ENDBRANCH  30  31
ENDBRANCH  29  30
ENDBRANCH   1  29
TORSDOF 20
ENDMDL
MODEL 2
REMARK VINA RESULT: -8.806188311      2.445      4.267
REMARK  20 active torsions:
REMARK  status: ('A' for Active; 'I' for Inactive)
REMARK    1  A    between atoms: C2_3  and  C3_4 
REMARK    2  A    between atoms: C3_4  and  C4_5 
REMARK    3  A    between atoms: C11_12  and  C12_13 
REMARK       I    between atoms: C12_13  and  N2_15 
REMARK       I    between atoms: N2_15  and  C13_17 
REMARK       I    between atoms: C13_17  and  N4_21 
REMARK    4  A    between atoms: N4_21  and  C14_23 
REMARK    5  A    between atoms: C14_23  and  C15_24 
REMARK    6  A    between atoms: C15_24  and  C16_25 
REMARK    7  A    between atoms: C16_25  and  C17_26 
REMARK    8  A    between atoms: C17_26  and  N5_27 
REMARK    9  A    between atoms: N5_27  and  C18_29 
REMARK   10  A    between atoms: C18_29  and  C19_30 
REMARK   11  A    between atoms: C19_30  and  C20_31 
REMARK   12  A    between atoms: C20_31  and  N6_32 
REMARK       I    between atoms: N6_32  and  C21_34 
REMARK   13  A    between atoms: C21_34  and  C22_36 
REMARK   14  A    between atoms: C22_36  and  C23_37 
REMARK   15  A    between atoms: C23_37  and  N7_38 
REMARK       I    between atoms: N7_38  and  C24_40 
REMARK   16  A    between atoms: C24_40  and  C25_42 
REMARK   17  A    between atoms: C25_42  and  C26_43 
REMARK   18  A    between atoms: C26_43  and  N8_44 
REMARK   19  A    between atoms: N8_44  and  N9_46 
REMARK   20  A    between atoms: N11_51  and  O4_52 
ROOT
HETATM    1  C14 UNL     1      -8.326  14.907  22.990  1.00  0.00     0.079 C 
ENDROOT
BRANCH   1   2
HETATM    2  N4  UNL     1      -7.647  15.809  23.792  1.00  0.00    -0.206 N 
HETATM    3  C13 UNL     1      -8.055  16.885  24.561  1.00  0.00     0.678 C 
HETATM    4  N2  UNL     1      -8.518  16.803  25.910  1.00  0.00    -0.158 N 
HETATM    5  N3  UNL     1      -7.980  18.086  24.026  1.00  0.00    -0.234 N 
HETATM    6  C12 UNL     1      -8.638  15.644  26.679  1.00  0.00     0.261 C 
ATOM      7  H2  UNL     1      -8.788  17.679  26.356  1.00  0.00     0.187 HD
HETATM    8  O1  UNL     1      -8.303  14.530  26.164  1.00  0.00    -0.270 OA
ATOM      9  H32 UNL     1      -8.281  18.879  24.593  1.00  0.00     0.174 HD
ATOM     10  H31 UNL     1      -7.650  18.145  23.063  1.00  0.00     0.174 HD
ATOM     11  H4  UNL     1      -6.640  15.648  23.821  1.00  0.00     0.183 HD
BRANCH   6  12
HETATM   12  C11 UNL     1      -9.118  15.620  28.041  1.00  0.00     0.217 C 
HETATM   13  C10 UNL     1     -10.643  15.631  28.183  1.00  0.00     0.090 C 
HETATM   14  C2  UNL     1     -10.938  15.303  29.604  1.00  0.00    -0.000 C 
HETATM   15  N1  UNL     1     -10.201  15.638  30.586  1.00  0.00    -0.309 N 
HETATM   16  C1  UNL     1     -10.511  15.337  31.970  1.00  0.00     0.161 C 
HETATM   17  C27 UNL     1      -8.977  16.324  30.353  1.00  0.00     0.348 C 
HETATM   18  N11 UNL     1      -8.643  16.597  28.973  1.00  0.00    -0.196 N 
HETATM   19  O5  UNL     1      -8.187  16.702  31.260  1.00  0.00    -0.244 OA
BRANCH  14  20
HETATM   20  C3  UNL     1     -12.177  14.564  29.892  1.00  0.00     0.091 C 
BRANCH  20  21
HETATM   21  C4  UNL     1     -12.900  14.130  28.644  1.00  0.00    -0.053 A 
HETATM   22  C5  UNL     1     -12.353  13.183  27.810  1.00  0.00     0.007 A 
HETATM   23  C6  UNL     1     -13.037  12.812  26.679  1.00  0.00     0.001 A 
HETATM   24  C7  UNL     1     -14.262  13.353  26.339  1.00  0.00     0.000 A 
HETATM   25  C8  UNL     1     -14.770  14.297  27.205  1.00  0.00     0.001 A 
HETATM   26  C9  UNL     1     -14.097  14.686  28.350  1.00  0.00     0.007 A 
ENDBRANCH  20  21
ENDBRANCH  14  20
BRANCH  18  27
HETATM   27  O4  UNL     1      -7.963  17.707  28.667  1.00  0.00    -0.283 OA
ATOM     28  H4  UNL     1      -7.514  17.877  27.848  1.00  0.00     0.245 HD
ENDBRANCH  18  27
ENDBRANCH   6  12
ENDBRANCH   1   2
BRANCH   1  29
HETATM   29  C15 UNL     1      -9.609  15.312  22.316  1.00  0.00     0.050 C 
BRANCH  29  30
HETATM   30  C16 UNL     1      -9.485  15.797  20.946  1.00  0.00     0.049 C 
BRANCH  30  31
HETATM   31  C17 UNL     1      -9.134  17.242  20.795  1.00  0.00     0.056 C 
BRANCH  31  32
HETATM   32  N5  UNL     1      -7.982  17.674  20.193  1.00  0.00    -0.402 N 
ATOM     33  H5  UNL     1      -8.073  18.041  19.245  1.00  0.00     0.158 HD
BRANCH  32  34
HETATM   34  C18 UNL     1      -6.702  17.663  20.735  1.00  0.00     0.120 C 
BRANCH  34  35
HETATM   35  C19 UNL     1      -5.881  16.469  20.208  1.00  0.00     0.039 C 
BRANCH  35  36
HETATM   36  C20 UNL     1      -4.479  16.938  19.998  1.00  0.00     0.124 C 
BRANCH  36  37
HETATM   37  N6  UNL     1      -3.726  17.062  21.224  1.00  0.00    -0.361 N 
HETATM   38  C21 UNL     1      -2.559  16.318  21.440  1.00  0.00     0.219 C 
HETATM   39  O2  UNL     1      -2.078  15.514  20.624  1.00  0.00    -0.274 OA
ATOM     40  H6  UNL     1      -4.050  17.705  21.947  1.00  0.00     0.162 HD
BRANCH  38  41
HETATM   41  C22 UNL     1      -1.838  16.505  22.757  1.00  0.00     0.122 C 
BRANCH  41  42
HETATM   42  C23 UNL     1      -2.309  17.772  23.392  1.00  0.00     0.132 C 
BRANCH  42  43
HETATM   43  N7  UNL     1      -2.896  17.512  24.671  1.00  0.00    -0.361 N 
HETATM   44  C24 UNL     1      -4.270  17.628  24.901  1.00  0.00     0.219 C 
HETATM   45  O3  UNL     1      -5.071  17.978  23.976  1.00  0.00    -0.274 OA
ATOM     46  H7  UNL     1      -2.291  17.233  25.444  1.00  0.00     0.162 HD
BRANCH  44  47
HETATM   47  C25 UNL     1      -4.824  17.339  26.248  1.00  0.00     0.124 C 
BRANCH  47  48
HETATM   48  C26 UNL     1      -4.558  18.498  27.170  1.00  0.00     0.150 C 
BRANCH  48  49
HETATM   49  N8  UNL     1      -5.264  19.668  26.700  1.00  0.00    -0.322 N 
ATOM     50  H8  UNL     1      -4.720  20.474  26.389  1.00  0.00     0.181 HD
BRANCH  49  51
HETATM   51  N9  UNL     1      -6.644  19.746  26.652  1.00  0.00    -0.254 N 
HETATM   52  N10 UNL     1      -7.289  20.329  27.586  1.00  0.00    -0.331 N 
ATOM     53 2H10 UNL     1      -6.769  20.736  28.363  1.00  0.00     0.178 HD
ATOM     54 1H10 UNL     1      -8.306  20.386  27.551  1.00  0.00     0.178 HD
ATOM     55  H9  UNL     1      -7.148  19.335  25.867  1.00  0.00     0.207 HD
ENDBRANCH  49  51
ENDBRANCH  48  49
ENDBRANCH  47  48
ENDBRANCH  44  47
ENDBRANCH  42  43
ENDBRANCH  41  42
ENDBRANCH  38  41
ENDBRANCH  36  37
ENDBRANCH  35  36
ENDBRANCH  34  35
ENDBRANCH  32  34
ENDBRANCH  31  32
ENDBRANCH  30  31
ENDBRANCH  29  30
ENDBRANCH   1  29
TORSDOF 20
ENDMDL
MODEL 3
REMARK VINA RESULT: -8.744137796      1.421      2.188
REMARK  20 active torsions:
REMARK  status: ('A' for Active; 'I' for Inactive)
REMARK    1  A    between atoms: C2_3  and  C3_4 
REMARK    2  A    between atoms: C3_4  and  C4_5 
REMARK    3  A    between atoms: C11_12  and  C12_13 
REMARK       I    between atoms: C12_13  and  N2_15 
REMARK       I    between atoms: N2_15  and  C13_17 
REMARK       I    between atoms: C13_17  and  N4_21 
REMARK    4  A    between atoms: N4_21  and  C14_23 
REMARK    5  A    between atoms: C14_23  and  C15_24 
REMARK    6  A    between atoms: C15_24  and  C16_25 
REMARK    7  A    between atoms: C16_25  and  C17_26 
REMARK    8  A    between atoms: C17_26  and  N5_27 
REMARK    9  A    between atoms: N5_27  and  C18_29 
REMARK   10  A    between atoms: C18_29  and  C19_30 
REMARK   11  A    between atoms: C19_30  and  C20_31 
REMARK   12  A    between atoms: C20_31  and  N6_32 
REMARK       I    between atoms: N6_32  and  C21_34 
REMARK   13  A    between atoms: C21_34  and  C22_36 
REMARK   14  A    between atoms: C22_36  and  C23_37 
REMARK   15  A    between atoms: C23_37  and  N7_38 
REMARK       I    between atoms: N7_38  and  C24_40 
REMARK   16  A    between atoms: C24_40  and  C25_42 
REMARK   17  A    between atoms: C25_42  and  C26_43 
REMARK   18  A    between atoms: C26_43  and  N8_44 
REMARK   19  A    between atoms: N8_44  and  N9_46 
REMARK   20  A    between atoms: N11_51  and  O4_52 
ROOT
HETATM    1  C14 UNL     1      -8.307  15.356  23.987  1.00  0.00     0.079 C 
ENDROOT
BRANCH   1   2
HETATM    2  N4  UNL     1      -8.047  15.907  25.232  1.00  0.00    -0.206 N 
HETATM    3  C13 UNL     1      -8.724  16.816  26.024  1.00  0.00     0.678 C 
HETATM    4  N2  UNL     1      -9.767  16.489  26.944  1.00  0.00    -0.158 N 
HETATM    5  N3  UNL     1      -8.361  18.081  25.956  1.00  0.00    -0.234 N 
HETATM    6  C12 UNL     1     -10.279  15.217  27.203  1.00  0.00     0.261 C 
ATOM      7  H2  UNL     1     -10.180  17.264  27.463  1.00  0.00     0.187 HD
HETATM    8  O1  UNL     1      -9.786  14.221  26.584  1.00  0.00    -0.270 OA
ATOM      9  H32 UNL     1      -8.860  18.751  26.540  1.00  0.00     0.174 HD
ATOM     10  H31 UNL     1      -7.617  18.314  25.299  1.00  0.00     0.174 HD
ATOM     11  H4  UNL     1      -7.178  15.573  25.648  1.00  0.00     0.183 HD
BRANCH   6  12
HETATM   12  C11 UNL     1     -11.340  14.945  28.145  1.00  0.00     0.217 C 
HETATM   13  C10 UNL     1     -10.872  14.387  29.493  1.00  0.00     0.090 C 
HETATM   14  C2  UNL     1     -12.042  14.457  30.409  1.00  0.00    -0.000 C 
HETATM   15  N1  UNL     1     -13.252  14.313  30.041  1.00  0.00    -0.309 N 
HETATM   16  C1  UNL     1     -14.384  14.356  30.946  1.00  0.00     0.161 C 
HETATM   17  C27 UNL     1     -13.557  14.124  28.664  1.00  0.00     0.348 C 
HETATM   18  N11 UNL     1     -12.436  14.114  27.751  1.00  0.00    -0.196 N 
HETATM   19  O5  UNL     1     -14.721  13.964  28.207  1.00  0.00    -0.244 OA
BRANCH  14  20
HETATM   20  C3  UNL     1     -11.778  14.685  31.838  1.00  0.00     0.091 C 
BRANCH  20  21
HETATM   21  C4  UNL     1     -10.452  15.355  32.086  1.00  0.00    -0.053 A 
HETATM   22  C5  UNL     1     -10.092  16.479  31.380  1.00  0.00     0.007 A 
HETATM   23  C6  UNL     1      -8.876  17.065  31.628  1.00  0.00     0.001 A 
HETATM   24  C7  UNL     1      -7.990  16.569  32.566  1.00  0.00     0.000 A 
HETATM   25  C8  UNL     1      -8.394  15.443  33.249  1.00  0.00     0.001 A 
HETATM   26  C9  UNL     1      -9.617  14.837  33.013  1.00  0.00     0.007 A 
ENDBRANCH  20  21
ENDBRANCH  14  20
BRANCH  18  27
HETATM   27  O4  UNL     1     -12.485  13.347  26.657  1.00  0.00    -0.283 OA
ATOM     28  H4  UNL     1     -12.827  12.462  26.612  1.00  0.00     0.245 HD
ENDBRANCH  18  27
ENDBRANCH   6  12
ENDBRANCH   1   2
BRANCH   1  29
HETATM   29  C15 UNL     1      -9.520  15.788  23.209  1.00  0.00     0.050 C 
BRANCH  29  30
HETATM   30  C16 UNL     1      -9.666  15.206  21.879  1.00  0.00     0.049 C 
BRANCH  30  31
HETATM   31  C17 UNL     1      -9.255  16.078  20.737  1.00  0.00     0.056 C 
BRANCH  31  32
HETATM   32  N5  UNL     1      -8.866  17.382  20.893  1.00  0.00    -0.402 N 
ATOM     33  H5  UNL     1      -9.604  18.058  21.092  1.00  0.00     0.158 HD
BRANCH  32  34
HETATM   34  C18 UNL     1      -7.571  17.883  20.808  1.00  0.00     0.120 C 
BRANCH  34  35
HETATM   35  C19 UNL     1      -6.535  16.744  20.726  1.00  0.00     0.039 C 
BRANCH  35  36
HETATM   36  C20 UNL     1      -5.259  17.325  20.215  1.00  0.00     0.124 C 
BRANCH  36  37
HETATM   37  N6  UNL     1      -4.110  16.986  21.021  1.00  0.00    -0.361 N 
HETATM   38  C21 UNL     1      -3.648  17.843  22.028  1.00  0.00     0.219 C 
HETATM   39  O2  UNL     1      -4.169  18.934  22.314  1.00  0.00    -0.274 OA
ATOM     40  H6  UNL     1      -3.625  16.104  20.854  1.00  0.00     0.162 HD
BRANCH  38  41
HETATM   41  C22 UNL     1      -2.433  17.412  22.818  1.00  0.00     0.122 C 
BRANCH  41  42
HETATM   42  C23 UNL     1      -2.882  16.821  24.114  1.00  0.00     0.132 C 
BRANCH  42  43
HETATM   43  N7  UNL     1      -3.089  17.843  25.095  1.00  0.00    -0.361 N 
HETATM   44  C24 UNL     1      -4.314  18.018  25.745  1.00  0.00     0.219 C 
HETATM   45  O3  UNL     1      -5.314  17.275  25.489  1.00  0.00    -0.274 OA
ATOM     46  H7  UNL     1      -2.315  18.465  25.329  1.00  0.00     0.162 HD
BRANCH  44  47
HETATM   47  C25 UNL     1      -4.467  19.092  26.760  1.00  0.00     0.124 C 
BRANCH  47  48
HETATM   48  C26 UNL     1      -5.349  20.184  26.219  1.00  0.00     0.150 C 
BRANCH  48  49
HETATM   49  N8  UNL     1      -5.445  20.069  24.783  1.00  0.00    -0.322 N 
ATOM     50  H8  UNL     1      -5.275  19.158  24.354  1.00  0.00     0.181 HD
BRANCH  49  51
HETATM   51  N9  UNL     1      -5.759  21.137  23.962  1.00  0.00    -0.254 N 
HETATM   52  N10 UNL     1      -6.287  20.936  22.818  1.00  0.00    -0.331 N 
ATOM     53 2H10 UNL     1      -6.472  19.978  22.522  1.00  0.00     0.178 HD
ATOM     54 1H10 UNL     1      -6.518  21.723  22.212  1.00  0.00     0.178 HD
ATOM     55  H9  UNL     1      -5.567  22.089  24.272  1.00  0.00     0.207 HD
ENDBRANCH  49  51
ENDBRANCH  48  49
ENDBRANCH  47  48
ENDBRANCH  44  47
ENDBRANCH  42  43
ENDBRANCH  41  42
ENDBRANCH  38  41
ENDBRANCH  36  37
ENDBRANCH  35  36
ENDBRANCH  34  35
ENDBRANCH  32  34
ENDBRANCH  31  32
ENDBRANCH  30  31
ENDBRANCH  29  30
ENDBRANCH   1  29
TORSDOF 20
ENDMDL
MODEL 4
REMARK VINA RESULT: -8.655046240      1.390      1.758
REMARK  20 active torsions:
REMARK  status: ('A' for Active; 'I' for Inactive)
REMARK    1  A    between atoms: C2_3  and  C3_4 
REMARK    2  A    between atoms: C3_4  and  C4_5 
REMARK    3  A    between atoms: C11_12  and  C12_13 
REMARK       I    between atoms: C12_13  and  N2_15 
REMARK       I    between atoms: N2_15  and  C13_17 
REMARK       I    between atoms: C13_17  and  N4_21 
REMARK    4  A    between atoms: N4_21  and  C14_23 
REMARK    5  A    between atoms: C14_23  and  C15_24 
REMARK    6  A    between atoms: C15_24  and  C16_25 
REMARK    7  A    between atoms: C16_25  and  C17_26 
REMARK    8  A    between atoms: C17_26  and  N5_27 
REMARK    9  A    between atoms: N5_27  and  C18_29 
REMARK   10  A    between atoms: C18_29  and  C19_30 
REMARK   11  A    between atoms: C19_30  and  C20_31 
REMARK   12  A    between atoms: C20_31  and  N6_32 
REMARK       I    between atoms: N6_32  and  C21_34 
REMARK   13  A    between atoms: C21_34  and  C22_36 
REMARK   14  A    between atoms: C22_36  and  C23_37 
REMARK   15  A    between atoms: C23_37  and  N7_38 
REMARK       I    between atoms: N7_38  and  C24_40 
REMARK   16  A    between atoms: C24_40  and  C25_42 
REMARK   17  A    between atoms: C25_42  and  C26_43 
REMARK   18  A    between atoms: C26_43  and  N8_44 
REMARK   19  A    between atoms: N8_44  and  N9_46 
REMARK   20  A    between atoms: N11_51  and  O4_52 
ROOT
HETATM    1  C14 UNL     1      -9.150  14.790  23.754  1.00  0.00     0.079 C 
ENDROOT
BRANCH   1   2
HETATM    2  N4  UNL     1      -8.951  15.652  24.820  1.00  0.00    -0.206 N 
HETATM    3  C13 UNL     1      -9.759  16.584  25.447  1.00  0.00     0.678 C 
HETATM    4  N2  UNL     1     -10.680  16.297  26.501  1.00  0.00    -0.158 N 
HETATM    5  N3  UNL     1      -9.652  17.842  25.071  1.00  0.00    -0.234 N 
HETATM    6  C12 UNL     1     -10.922  15.050  27.077  1.00  0.00     0.261 C 
ATOM      7  H2  UNL     1     -11.214  17.084  26.870  1.00  0.00     0.187 HD
HETATM    8  O1  UNL     1     -10.271  14.043  26.653  1.00  0.00    -0.270 OA
ATOM      9  H32 UNL     1     -10.248  18.529  25.533  1.00  0.00     0.174 HD
ATOM     10  H31 UNL     1      -8.996  18.046  24.319  1.00  0.00     0.174 HD
ATOM     11  H4  UNL     1      -8.017  15.587  25.225  1.00  0.00     0.183 HD
BRANCH   6  12
HETATM   12  C11 UNL     1     -11.870  14.817  28.142  1.00  0.00     0.217 C 
HETATM   13  C10 UNL     1     -11.263  14.239  29.425  1.00  0.00     0.090 C 
HETATM   14  C2  UNL     1     -12.310  14.353  30.477  1.00  0.00    -0.000 C 
HETATM   15  N1  UNL     1     -13.560  14.256  30.259  1.00  0.00    -0.309 N 
HETATM   16  C1  UNL     1     -14.570  14.342  31.296  1.00  0.00     0.161 C 
HETATM   17  C27 UNL     1     -14.038  14.082  28.931  1.00  0.00     0.348 C 
HETATM   18  N11 UNL     1     -13.038  14.031  27.887  1.00  0.00    -0.196 N 
HETATM   19  O5  UNL     1     -15.254  13.969  28.619  1.00  0.00    -0.244 OA
BRANCH  14  20
HETATM   20  C3  UNL     1     -11.865  14.568  31.862  1.00  0.00     0.091 C 
BRANCH  20  21
HETATM   21  C4  UNL     1     -10.574  15.339  31.946  1.00  0.00    -0.053 A 
HETATM   22  C5  UNL     1     -10.348  16.420  31.128  1.00  0.00     0.007 A 
HETATM   23  C6  UNL     1      -9.161  17.101  31.228  1.00  0.00     0.001 A 
HETATM   24  C7  UNL     1      -8.172  16.742  32.125  1.00  0.00     0.000 A 
HETATM   25  C8  UNL     1      -8.443  15.654  32.924  1.00  0.00     0.001 A 
HETATM   26  C9  UNL     1      -9.634  14.953  32.839  1.00  0.00     0.007 A 
ENDBRANCH  20  21
ENDBRANCH  14  20
BRANCH  18  27
HETATM   27  O4  UNL     1     -13.250  13.268  26.810  1.00  0.00    -0.283 OA
ATOM     28  H4  UNL     1     -13.000  12.356  26.715  1.00  0.00     0.245 HD
ENDBRANCH  18  27
ENDBRANCH   6  12
ENDBRANCH   1   2
BRANCH   1  29
HETATM   29  C15 UNL     1      -8.660  15.160  22.381  1.00  0.00     0.050 C 
BRANCH  29  30
HETATM   30  C16 UNL     1      -9.665  15.689  21.465  1.00  0.00     0.049 C 
BRANCH  30  31
HETATM   31  C17 UNL     1      -9.437  17.084  20.980  1.00  0.00     0.056 C 
BRANCH  31  32
HETATM   32  N5  UNL     1      -8.375  17.438  20.191  1.00  0.00    -0.402 N 
ATOM     33  H5  UNL     1      -8.522  17.396  19.182  1.00  0.00     0.158 HD
BRANCH  32  34
HETATM   34  C18 UNL     1      -7.116  17.848  20.619  1.00  0.00     0.120 C 
BRANCH  34  35
HETATM   35  C19 UNL     1      -6.014  16.903  20.100  1.00  0.00     0.039 C 
BRANCH  35  36
HETATM   36  C20 UNL     1      -4.696  17.479  20.499  1.00  0.00     0.124 C 
BRANCH  36  37
HETATM   37  N6  UNL     1      -4.791  18.436  21.577  1.00  0.00    -0.361 N 
HETATM   38  C21 UNL     1      -3.994  18.324  22.723  1.00  0.00     0.219 C 
HETATM   39  O2  UNL     1      -3.157  17.425  22.911  1.00  0.00    -0.274 OA
ATOM     40  H6  UNL     1      -5.451  19.210  21.501  1.00  0.00     0.162 HD
BRANCH  38  41
HETATM   41  C22 UNL     1      -4.165  19.366  23.806  1.00  0.00     0.122 C 
BRANCH  41  42
HETATM   42  C23 UNL     1      -3.383  18.950  25.008  1.00  0.00     0.132 C 
BRANCH  42  43
HETATM   43  N7  UNL     1      -4.075  17.934  25.740  1.00  0.00    -0.361 N 
HETATM   44  C24 UNL     1      -4.690  18.185  26.970  1.00  0.00     0.219 C 
HETATM   45  O3  UNL     1      -4.658  19.339  27.505  1.00  0.00    -0.274 OA
ATOM     46  H7  UNL     1      -4.123  16.992  25.350  1.00  0.00     0.162 HD
BRANCH  44  47
HETATM   47  C25 UNL     1      -5.401  17.092  27.681  1.00  0.00     0.124 C 
BRANCH  47  48
HETATM   48  C26 UNL     1      -6.855  17.093  27.295  1.00  0.00     0.150 C 
BRANCH  48  49
HETATM   49  N8  UNL     1      -7.530  18.200  27.933  1.00  0.00    -0.322 N 
ATOM     50  H8  UNL     1      -7.793  18.110  28.915  1.00  0.00     0.181 HD
BRANCH  49  51
HETATM   51  N9  UNL     1      -7.836  19.376  27.272  1.00  0.00    -0.254 N 
HETATM   52  N10 UNL     1      -7.299  20.476  27.634  1.00  0.00    -0.331 N 
ATOM     53 2H10 UNL     1      -6.644  20.470  28.415  1.00  0.00     0.178 HD
ATOM     54 1H10 UNL     1      -7.525  21.344  27.147  1.00  0.00     0.178 HD
ATOM     55  H9  UNL     1      -8.493  19.365  26.493  1.00  0.00     0.207 HD
ENDBRANCH  49  51
ENDBRANCH  48  49
ENDBRANCH  47  48
ENDBRANCH  44  47
ENDBRANCH  42  43
ENDBRANCH  41  42
ENDBRANCH  38  41
ENDBRANCH  36  37
ENDBRANCH  35  36
ENDBRANCH  34  35
ENDBRANCH  32  34
ENDBRANCH  31  32
ENDBRANCH  30  31
ENDBRANCH  29  30
ENDBRANCH   1  29
TORSDOF 20
ENDMDL
MODEL 5
REMARK VINA RESULT: -8.604105120      2.574      4.494
REMARK  20 active torsions:
REMARK  status: ('A' for Active; 'I' for Inactive)
REMARK    1  A    between atoms: C2_3  and  C3_4 
REMARK    2  A    between atoms: C3_4  and  C4_5 
REMARK    3  A    between atoms: C11_12  and  C12_13 
REMARK       I    between atoms: C12_13  and  N2_15 
REMARK       I    between atoms: N2_15  and  C13_17 
REMARK       I    between atoms: C13_17  and  N4_21 
REMARK    4  A    between atoms: N4_21  and  C14_23 
REMARK    5  A    between atoms: C14_23  and  C15_24 
REMARK    6  A    between atoms: C15_24  and  C16_25 
REMARK    7  A    between atoms: C16_25  and  C17_26 
REMARK    8  A    between atoms: C17_26  and  N5_27 
REMARK    9  A    between atoms: N5_27  and  C18_29 
REMARK   10  A    between atoms: C18_29  and  C19_30 
REMARK   11  A    between atoms: C19_30  and  C20_31 
REMARK   12  A    between atoms: C20_31  and  N6_32 
REMARK       I    between atoms: N6_32  and  C21_34 
REMARK   13  A    between atoms: C21_34  and  C22_36 
REMARK   14  A    between atoms: C22_36  and  C23_37 
REMARK   15  A    between atoms: C23_37  and  N7_38 
REMARK       I    between atoms: N7_38  and  C24_40 
REMARK   16  A    between atoms: C24_40  and  C25_42 
REMARK   17  A    between atoms: C25_42  and  C26_43 
REMARK   18  A    between atoms: C26_43  and  N8_44 
REMARK   19  A    between atoms: N8_44  and  N9_46 
REMARK   20  A    between atoms: N11_51  and  O4_52 
ROOT
HETATM    1  C14 UNL     1      -7.520  16.744  25.394  1.00  0.00     0.079 C 
ENDROOT
BRANCH   1   2
HETATM    2  N4  UNL     1      -7.121  17.355  26.572  1.00  0.00    -0.206 N 
HETATM    3  C13 UNL     1      -7.775  18.161  27.487  1.00  0.00     0.678 C 
HETATM    4  N2  UNL     1      -8.558  17.690  28.585  1.00  0.00    -0.158 N 
HETATM    5  N3  UNL     1      -7.641  19.465  27.364  1.00  0.00    -0.234 N 
HETATM    6  C12 UNL     1      -8.798  16.358  28.925  1.00  0.00     0.261 C 
ATOM      7  H2  UNL     1      -8.985  18.399  29.181  1.00  0.00     0.187 HD
HETATM    8  O1  UNL     1      -8.276  15.441  28.213  1.00  0.00    -0.270 OA
ATOM      9  H32 UNL     1      -8.122  20.059  28.039  1.00  0.00     0.174 HD
ATOM     10  H31 UNL     1      -7.082  19.802  26.580  1.00  0.00     0.174 HD
ATOM     11  H4  UNL     1      -6.147  17.175  26.812  1.00  0.00     0.183 HD
BRANCH   6  12
HETATM   12  C11 UNL     1      -9.604  15.939  30.048  1.00  0.00     0.217 C 
HETATM   13  C10 UNL     1     -11.086  15.720  29.726  1.00  0.00     0.090 C 
HETATM   14  C2  UNL     1     -11.674  15.018  30.899  1.00  0.00    -0.000 C 
HETATM   15  N1  UNL     1     -11.299  15.192  32.102  1.00  0.00    -0.309 N 
HETATM   16  C1  UNL     1     -11.897  14.523  33.241  1.00  0.00     0.161 C 
HETATM   17  C27 UNL     1     -10.212  16.065  32.387  1.00  0.00     0.348 C 
HETATM   18  N11 UNL     1      -9.587  16.709  31.254  1.00  0.00    -0.196 N 
HETATM   19  O5  UNL     1      -9.775  16.306  33.545  1.00  0.00    -0.244 OA
BRANCH  14  20
HETATM   20  C3  UNL     1     -12.778  14.078  30.650  1.00  0.00     0.091 C 
BRANCH  20  21
HETATM   21  C4  UNL     1     -12.992  13.806  29.184  1.00  0.00    -0.053 A 
HETATM   22  C5  UNL     1     -14.155  14.193  28.562  1.00  0.00     0.007 A 
HETATM   23  C6  UNL     1     -14.320  13.928  27.225  1.00  0.00     0.001 A 
HETATM   24  C7  UNL     1     -13.358  13.283  26.471  1.00  0.00     0.000 A 
HETATM   25  C8  UNL     1     -12.210  12.914  27.137  1.00  0.00     0.001 A 
HETATM   26  C9  UNL     1     -12.024  13.172  28.485  1.00  0.00     0.007 A 
ENDBRANCH  20  21
ENDBRANCH  14  20
BRANCH  18  27
HETATM   27  O4  UNL     1      -9.078  17.937  31.393  1.00  0.00    -0.283 OA
ATOM     28  H4  UNL     1      -8.361  18.181  31.965  1.00  0.00     0.245 HD
ENDBRANCH  18  27
ENDBRANCH   6  12
ENDBRANCH   1   2
BRANCH   1  29
HETATM   29  C15 UNL     1      -8.964  16.782  24.974  1.00  0.00     0.050 C 
BRANCH  29  30
HETATM   30  C16 UNL     1      -9.475  15.574  24.335  1.00  0.00     0.049 C 
BRANCH  30  31
HETATM   31  C17 UNL     1      -8.589  14.958  23.301  1.00  0.00     0.056 C 
BRANCH  31  32
HETATM   32  N5  UNL     1      -8.640  15.297  21.975  1.00  0.00    -0.402 N 
ATOM     33  H5  UNL     1      -8.032  14.771  21.346  1.00  0.00     0.158 HD
BRANCH  32  34
HETATM   34  C18 UNL     1      -9.432  16.282  21.394  1.00  0.00     0.120 C 
BRANCH  34  35
HETATM   35  C19 UNL     1      -8.577  17.466  20.898  1.00  0.00     0.039 C 
BRANCH  35  36
HETATM   36  C20 UNL     1      -7.390  16.904  20.188  1.00  0.00     0.124 C 
BRANCH  36  37
HETATM   37  N6  UNL     1      -6.208  17.723  20.310  1.00  0.00    -0.361 N 
HETATM   38  C21 UNL     1      -4.924  17.165  20.239  1.00  0.00     0.219 C 
HETATM   39  O2  UNL     1      -4.693  15.956  20.066  1.00  0.00    -0.274 OA
ATOM     40  H6  UNL     1      -6.308  18.728  20.451  1.00  0.00     0.162 HD
BRANCH  38  41
HETATM   41  C22 UNL     1      -3.742  18.096  20.387  1.00  0.00     0.122 C 
BRANCH  41  42
HETATM   42  C23 UNL     1      -2.751  17.478  21.318  1.00  0.00     0.132 C 
BRANCH  42  43
HETATM   43  N7  UNL     1      -3.315  17.310  22.623  1.00  0.00    -0.361 N 
HETATM   44  C24 UNL     1      -3.279  18.320  23.589  1.00  0.00     0.219 C 
HETATM   45  O3  UNL     1      -2.734  19.445  23.353  1.00  0.00    -0.274 OA
ATOM     46  H7  UNL     1      -3.759  16.422  22.857  1.00  0.00     0.162 HD
BRANCH  44  47
HETATM   47  C25 UNL     1      -3.888  18.091  24.924  1.00  0.00     0.124 C 
BRANCH  47  48
HETATM   48  C26 UNL     1      -4.285  19.406  25.537  1.00  0.00     0.150 C 
BRANCH  48  49
HETATM   49  N8  UNL     1      -5.470  19.912  24.883  1.00  0.00    -0.322 N 
ATOM     50  H8  UNL     1      -6.363  19.456  25.070  1.00  0.00     0.181 HD
BRANCH  49  51
HETATM   51  N9  UNL     1      -5.447  20.989  24.015  1.00  0.00    -0.254 N 
HETATM   52  N10 UNL     1      -6.106  20.949  22.923  1.00  0.00    -0.331 N 
ATOM     53 2H10 UNL     1      -6.646  20.112  22.704  1.00  0.00     0.178 HD
ATOM     54 1H10 UNL     1      -6.090  21.743  22.282  1.00  0.00     0.178 HD
ATOM     55  H9  UNL     1      -4.902  21.818  24.248  1.00  0.00     0.207 HD
ENDBRANCH  49  51
ENDBRANCH  48  49
ENDBRANCH  47  48
ENDBRANCH  44  47
ENDBRANCH  42  43
ENDBRANCH  41  42
ENDBRANCH  38  41
ENDBRANCH  36  37
ENDBRANCH  35  36
ENDBRANCH  34  35
ENDBRANCH  32  34
ENDBRANCH  31  32
ENDBRANCH  30  31
ENDBRANCH  29  30
ENDBRANCH   1  29
TORSDOF 20
ENDMDL
