MODEL 1
REMARK VINA RESULT: -8.891194238      0.000      0.000
REMARK  19 active torsions:
REMARK  status: ('A' for Active; 'I' for Inactive)
REMARK    1  A    between atoms: N2_4  and  N3_6 
REMARK       I    between atoms: N3_6  and  C1_8 
REMARK       I    between atoms: C1_8  and  N5_12 
REMARK    2  A    between atoms: N5_12  and  C2_14 
REMARK    3  A    between atoms: C2_14  and  C3_15 
REMARK    4  A    between atoms: C3_15  and  C4_16 
REMARK    5  A    between atoms: C4_16  and  C5_17 
REMARK    6  A    between atoms: C5_17  and  C6_18 
REMARK    7  A    between atoms: C6_18  and  C7_20 
REMARK    8  A    between atoms: C7_20  and  C8_21 
REMARK    9  A    between atoms: C7_20  and  N9_29 
REMARK   10  A    between atoms: C8_21  and  C9_22 
REMARK   11  A    between atoms: N9_29  and  C12_30 
REMARK   12  A    between atoms: C12_30  and  C13_31 
REMARK   13  A    between atoms: C13_31  and  N10_32 
REMARK       I    between atoms: N10_32  and  C14_34 
REMARK   14  A    between atoms: C14_34  and  C15_36 
REMARK   15  A    between atoms: C15_36  and  N11_37 
REMARK       I    between atoms: N11_37  and  C16_39 
REMARK   16  A    between atoms: C16_39  and  C17_41 
REMARK   17  A    between atoms: C17_41  and  N12_42 
REMARK       I    between atoms: N12_42  and  C18_43 
REMARK   18  A    between atoms: C18_43  and  C19_45 
REMARK   19  A    between atoms: C19_45  and  C20_46 
ROOT
HETATM    1  C7  UNL     1     -10.455  15.778  28.730  1.00  0.00     0.144 C 
ENDROOT
BRANCH   1   2
HETATM    2  C6  UNL     1     -10.252  15.518  30.161  1.00  0.00     0.077 C 
HETATM    3  N6  UNL     1     -11.129  14.524  30.740  1.00  0.00    -0.100 NA
BRANCH   2   4
HETATM    4  C5  UNL     1      -9.859  16.575  31.060  1.00  0.00     0.024 C 
BRANCH   4   5
HETATM    5  C4  UNL     1      -8.795  16.672  31.808  1.00  0.00    -0.023 C 
BRANCH   5   6
HETATM    6  C3  UNL     1      -8.474  15.835  32.944  1.00  0.00     0.047 C 
BRANCH   6   7
HETATM    7  C2  UNL     1      -9.660  15.805  33.923  1.00  0.00     0.142 C 
BRANCH   7   8
HETATM    8  N5  UNL     1     -10.186  14.459  33.887  1.00  0.00    -0.225 N 
HETATM    9  C1  UNL     1     -11.437  14.188  34.494  1.00  0.00     0.687 C 
HETATM   10  N3  UNL     1     -12.477  15.117  34.285  1.00  0.00    -0.119 N 
HETATM   11  N4  UNL     1     -11.580  13.125  35.185  1.00  0.00    -0.234 N 
ATOM     12  H3  UNL     1     -12.947  15.546  35.082  1.00  0.00     0.207 HD
ATOM     13  H42 UNL     1     -12.481  12.930  35.622  1.00  0.00     0.174 HD
ATOM     14  H41 UNL     1     -10.828  12.453  35.335  1.00  0.00     0.174 HD
ATOM     15  H5  UNL     1      -9.662  13.713  33.429  1.00  0.00     0.177 HD
BRANCH  10  16
HETATM   16  N2  UNL     1     -12.860  15.448  32.988  1.00  0.00    -0.235 N 
HETATM   17  N1  UNL     1     -13.942  15.078  32.483  1.00  0.00    -0.330 N 
ATOM     18  H12 UNL     1     -14.561  14.509  33.060  1.00  0.00     0.178 HD
ATOM     19  H11 UNL     1     -14.223  15.321  31.532  1.00  0.00     0.178 HD
ATOM     20  H2  UNL     1     -12.229  16.018  32.424  1.00  0.00     0.208 HD
ENDBRANCH  10  16
ENDBRANCH   7   8
ENDBRANCH   6   7
ENDBRANCH   5   6
ENDBRANCH   4   5
ENDBRANCH   2   4
ENDBRANCH   1   2
BRANCH   1  21
HETATM   21  C8  UNL     1     -11.713  16.394  28.267  1.00  0.00     0.126 C 
BRANCH  21  22
HETATM   22  C9  UNL     1     -12.878  15.519  28.092  1.00  0.00     0.031 A 
HETATM   23  C10 UNL     1     -13.213  14.786  26.942  1.00  0.00     0.114 A 
HETATM   24  N7  UNL     1     -14.313  14.076  27.201  1.00  0.00    -0.360 N 
HETATM   25  C11 UNL     1     -14.716  14.311  28.476  1.00  0.00     0.180 A 
ATOM     26  H7  UNL     1     -14.778  13.452  26.542  1.00  0.00     0.166 HD
HETATM   27  N8  UNL     1     -13.833  15.175  28.960  1.00  0.00    -0.354 N 
ATOM     28  H8  UNL     1     -13.879  15.543  29.910  1.00  0.00     0.166 HD
ENDBRANCH  21  22
ENDBRANCH   1  21
BRANCH   1  29
HETATM   29  N9  UNL     1      -9.275  16.206  27.952  1.00  0.00    -0.037 N 
HETATM   30  C26 UNL     1      -8.236  15.265  27.946  1.00  0.00     0.245 A 
HETATM   31  C27 UNL     1      -8.544  14.803  26.546  1.00  0.00     0.057 A 
HETATM   32  C28 UNL     1      -9.582  15.870  26.549  1.00  0.00     0.245 A 
BRANCH  29  33
HETATM   33  C12 UNL     1      -9.046  17.591  28.148  1.00  0.00     0.263 C 
BRANCH  33  34
HETATM   34  C13 UNL     1      -8.586  18.448  27.054  1.00  0.00     0.151 C 
BRANCH  34  35
HETATM   35  N10 UNL     1      -7.156  18.516  26.838  1.00  0.00    -0.355 N 
HETATM   36  C14 UNL     1      -6.389  19.646  27.173  1.00  0.00     0.256 C 
HETATM   37  O1  UNL     1      -6.994  20.638  27.684  1.00  0.00    -0.267 OA
ATOM     38  H10 UNL     1      -6.685  17.711  26.426  1.00  0.00     0.162 HD
BRANCH  36  39
HETATM   39  C15 UNL     1      -4.960  19.743  26.964  1.00  0.00     0.165 C 
BRANCH  39  40
HETATM   40  N11 UNL     1      -4.524  19.847  25.591  1.00  0.00    -0.326 N 
HETATM   41  C16 UNL     1      -4.247  18.602  24.939  1.00  0.00     0.274 C 
HETATM   42  O2  UNL     1      -4.362  17.555  25.555  1.00  0.00    -0.266 OA
ATOM     43  H11 UNL     1      -4.420  20.745  25.119  1.00  0.00     0.168 HD
BRANCH  41  44
HETATM   44  C17 UNL     1      -3.825  18.692  23.487  1.00  0.00     0.260 C 
BRANCH  44  45
HETATM   45  N12 UNL     1      -4.803  18.333  22.584  1.00  0.00    -0.378 NA
HETATM   46  C18 UNL     1      -5.756  17.979  21.700  1.00  0.00     0.295 C 
HETATM   47  O3  UNL     1      -5.653  17.321  20.642  1.00  0.00    -0.257 OA
BRANCH  46  48
HETATM   48  C19 UNL     1      -7.187  18.425  21.974  1.00  0.00     0.157 C 
BRANCH  48  49
HETATM   49  C20 UNL     1      -8.118  17.282  21.876  1.00  0.00    -0.048 A 
HETATM   50  C21 UNL     1      -9.007  17.208  20.834  1.00  0.00     0.007 A 
HETATM   51  C22 UNL     1      -9.842  16.129  20.786  1.00  0.00     0.001 A 
HETATM   52  C23 UNL     1      -9.814  15.127  21.750  1.00  0.00     0.000 A 
HETATM   53  C24 UNL     1      -8.911  15.218  22.787  1.00  0.00     0.001 A 
HETATM   54  C25 UNL     1      -8.060  16.298  22.857  1.00  0.00     0.007 A 
ENDBRANCH  48  49
ENDBRANCH  46  48
ENDBRANCH  44  45
ENDBRANCH  41  44
ENDBRANCH  39  40
ENDBRANCH  36  39
ENDBRANCH  34  35
ENDBRANCH  33  34
ENDBRANCH  29  33
ENDBRANCH   1  29
TORSDOF 19
ENDMDL
MODEL 2
REMARK VINA RESULT: -8.677722337      3.302      9.988
REMARK  19 active torsions:
REMARK  status: ('A' for Active; 'I' for Inactive)
REMARK    1  A    between atoms: N2_4  and  N3_6 
REMARK       I    between atoms: N3_6  and  C1_8 
REMARK       I    between atoms: C1_8  and  N5_12 
REMARK    2  A    between atoms: N5_12  and  C2_14 
REMARK    3  A    between atoms: C2_14  and  C3_15 
REMARK    4  A    between atoms: C3_15  and  C4_16 
REMARK    5  A    between atoms: C4_16  and  C5_17 
REMARK    6  A    between atoms: C5_17  and  C6_18 
REMARK    7  A    between atoms: C6_18  and  C7_20 
REMARK    8  A    between atoms: C7_20  and  C8_21 
REMARK    9  A    between atoms: C7_20  and  N9_29 
REMARK   10  A    between atoms: C8_21  and  C9_22 
REMARK   11  A    between atoms: N9_29  and  C12_30 
REMARK   12  A    between atoms: C12_30  and  C13_31 
REMARK   13  A    between atoms: C13_31  and  N10_32 
REMARK       I    between atoms: N10_32  and  C14_34 
REMARK   14  A    between atoms: C14_34  and  C15_36 
REMARK   15  A    between atoms: C15_36  and  N11_37 
REMARK       I    between atoms: N11_37  and  C16_39 
REMARK   16  A    between atoms: C16_39  and  C17_41 
REMARK   17  A    between atoms: C17_41  and  N12_42 
REMARK       I    between atoms: N12_42  and  C18_43 
REMARK   18  A    between atoms: C18_43  and  C19_45 
REMARK   19  A    between atoms: C19_45  and  C20_46 
ROOT
HETATM    1  C7  UNL     1      -8.868  16.700  27.747  1.00  0.00     0.144 C 
ENDROOT
BRANCH   1   2
HETATM    2  C6  UNL     1      -8.776  15.410  27.051  1.00  0.00     0.077 C 
HETATM    3  N6  UNL     1      -8.078  14.367  27.772  1.00  0.00    -0.100 NA
BRANCH   2   4
HETATM    4  C5  UNL     1      -8.642  15.345  25.617  1.00  0.00     0.024 C 
BRANCH   4   5
HETATM    5  C4  UNL     1      -9.523  15.606  24.691  1.00  0.00    -0.023 C 
BRANCH   5   6
HETATM    6  C3  UNL     1      -9.281  16.339  23.468  1.00  0.00     0.047 C 
BRANCH   6   7
HETATM    7  C2  UNL     1      -7.809  16.784  23.408  1.00  0.00     0.142 C 
BRANCH   7   8
HETATM    8  N5  UNL     1      -7.823  18.215  23.205  1.00  0.00    -0.225 N 
HETATM    9  C1  UNL     1      -6.852  18.804  22.359  1.00  0.00     0.687 C 
HETATM   10  N3  UNL     1      -6.563  18.147  21.144  1.00  0.00    -0.119 N 
HETATM   11  N4  UNL     1      -6.291  19.894  22.712  1.00  0.00    -0.234 N 
ATOM     12  H3  UNL     1      -5.605  17.875  20.926  1.00  0.00     0.207 HD
ATOM     13  H42 UNL     1      -5.592  20.317  22.102  1.00  0.00     0.174 HD
ATOM     14  H41 UNL     1      -6.500  20.368  23.590  1.00  0.00     0.174 HD
ATOM     15  H5  UNL     1      -8.524  18.794  23.666  1.00  0.00     0.177 HD
BRANCH  10  16
HETATM   16  N2  UNL     1      -7.589  17.872  20.244  1.00  0.00    -0.235 N 
HETATM   17  N1  UNL     1      -7.882  16.713  19.880  1.00  0.00    -0.330 N 
ATOM     18  H12 UNL     1      -7.334  15.945  20.269  1.00  0.00     0.178 HD
ATOM     19  H11 UNL     1      -8.634  16.510  19.221  1.00  0.00     0.178 HD
ATOM     20  H2  UNL     1      -8.127  18.652  19.865  1.00  0.00     0.208 HD
ENDBRANCH  10  16
ENDBRANCH   7   8
ENDBRANCH   6   7
ENDBRANCH   5   6
ENDBRANCH   4   5
ENDBRANCH   2   4
ENDBRANCH   1   2
BRANCH   1  21
HETATM   21  C8  UNL     1      -8.653  17.954  27.000  1.00  0.00     0.126 C 
BRANCH  21  22
HETATM   22  C9  UNL     1      -7.394  18.673  27.220  1.00  0.00     0.031 A 
HETATM   23  C10 UNL     1      -6.097  18.143  27.129  1.00  0.00     0.114 A 
HETATM   24  N7  UNL     1      -5.223  19.127  27.348  1.00  0.00    -0.360 N 
HETATM   25  C11 UNL     1      -5.893  20.285  27.580  1.00  0.00     0.180 A 
ATOM     26  H7  UNL     1      -4.209  19.024  27.341  1.00  0.00     0.166 HD
HETATM   27  N8  UNL     1      -7.176  19.961  27.495  1.00  0.00    -0.354 N 
ATOM     28  H8  UNL     1      -7.929  20.636  27.628  1.00  0.00     0.166 HD
ENDBRANCH  21  22
ENDBRANCH   1  21
BRANCH   1  29
HETATM   29  N9  UNL     1      -9.890  16.819  28.806  1.00  0.00    -0.037 N 
HETATM   30  C26 UNL     1     -11.004  17.581  28.427  1.00  0.00     0.245 A 
HETATM   31  C27 UNL     1     -11.874  16.369  28.222  1.00  0.00     0.057 A 
HETATM   32  C28 UNL     1     -10.703  15.592  28.713  1.00  0.00     0.245 A 
BRANCH  29  33
HETATM   33  C12 UNL     1      -9.261  16.968  30.068  1.00  0.00     0.263 C 
BRANCH  33  34
HETATM   34  C13 UNL     1      -8.813  15.805  30.836  1.00  0.00     0.151 C 
BRANCH  34  35
HETATM   35  N10 UNL     1      -9.513  15.536  32.075  1.00  0.00    -0.355 N 
HETATM   36  C14 UNL     1      -8.851  15.395  33.308  1.00  0.00     0.256 C 
HETATM   37  O1  UNL     1      -7.587  15.511  33.314  1.00  0.00    -0.267 OA
ATOM     38  H10 UNL     1     -10.528  15.444  32.053  1.00  0.00     0.162 HD
BRANCH  36  39
HETATM   39  C15 UNL     1      -9.524  15.121  34.559  1.00  0.00     0.165 C 
BRANCH  39  40
HETATM   40  N11 UNL     1     -10.461  14.023  34.550  1.00  0.00    -0.326 N 
HETATM   41  C16 UNL     1     -11.833  14.385  34.750  1.00  0.00     0.274 C 
HETATM   42  O2  UNL     1     -12.132  15.553  34.938  1.00  0.00    -0.266 OA
ATOM     43  H11 UNL     1     -10.168  13.056  34.410  1.00  0.00     0.168 HD
BRANCH  41  44
HETATM   44  C17 UNL     1     -12.834  13.249  34.704  1.00  0.00     0.260 C 
BRANCH  44  45
HETATM   45  N12 UNL     1     -13.687  13.282  33.623  1.00  0.00    -0.378 NA
HETATM   46  C18 UNL     1     -14.524  13.311  32.567  1.00  0.00     0.295 C 
HETATM   47  O3  UNL     1     -15.443  12.521  32.260  1.00  0.00    -0.257 OA
BRANCH  46  48
HETATM   48  C19 UNL     1     -14.368  14.446  31.562  1.00  0.00     0.157 C 
BRANCH  48  49
HETATM   49  C20 UNL     1     -14.019  13.917  30.227  1.00  0.00    -0.048 A 
HETATM   50  C21 UNL     1     -14.702  14.347  29.118  1.00  0.00     0.007 A 
HETATM   51  C22 UNL     1     -14.338  13.832  27.907  1.00  0.00     0.001 A 
HETATM   52  C23 UNL     1     -13.314  12.900  27.777  1.00  0.00     0.000 A 
HETATM   53  C24 UNL     1     -12.638  12.483  28.903  1.00  0.00     0.001 A 
HETATM   54  C25 UNL     1     -12.989  12.988  30.134  1.00  0.00     0.007 A 
ENDBRANCH  48  49
ENDBRANCH  46  48
ENDBRANCH  44  45
ENDBRANCH  41  44
ENDBRANCH  39  40
ENDBRANCH  36  39
ENDBRANCH  34  35
ENDBRANCH  33  34
ENDBRANCH  29  33
ENDBRANCH   1  29
TORSDOF 19
ENDMDL
MODEL 3
REMARK VINA RESULT: -8.646343728      3.351      9.661
REMARK  19 active torsions:
REMARK  status: ('A' for Active; 'I' for Inactive)
REMARK    1  A    between atoms: N2_4  and  N3_6 
REMARK       I    between atoms: N3_6  and  C1_8 
REMARK       I    between atoms: C1_8  and  N5_12 
REMARK    2  A    between atoms: N5_12  and  C2_14 
REMARK    3  A    between atoms: C2_14  and  C3_15 
REMARK    4  A    between atoms: C3_15  and  C4_16 
REMARK    5  A    between atoms: C4_16  and  C5_17 
REMARK    6  A    between atoms: C5_17  and  C6_18 
REMARK    7  A    between atoms: C6_18  and  C7_20 
REMARK    8  A    between atoms: C7_20  and  C8_21 
REMARK    9  A    between atoms: C7_20  and  N9_29 
REMARK   10  A    between atoms: C8_21  and  C9_22 
REMARK   11  A    between atoms: N9_29  and  C12_30 
REMARK   12  A    between atoms: C12_30  and  C13_31 
REMARK   13  A    between atoms: C13_31  and  N10_32 
REMARK       I    between atoms: N10_32  and  C14_34 
REMARK   14  A    between atoms: C14_34  and  C15_36 
REMARK   15  A    between atoms: C15_36  and  N11_37 
REMARK       I    between atoms: N11_37  and  C16_39 
REMARK   16  A    between atoms: C16_39  and  C17_41 
REMARK   17  A    between atoms: C17_41  and  N12_42 
REMARK       I    between atoms: N12_42  and  C18_43 
REMARK   18  A    between atoms: C18_43  and  C19_45 
REMARK   19  A    between atoms: C19_45  and  C20_46 
ROOT
HETATM    1  C7  UNL     1      -8.669  16.617  27.657  1.00  0.00     0.144 C 
ENDROOT
BRANCH   1   2
HETATM    2  C6  UNL     1      -7.511  17.461  27.975  1.00  0.00     0.077 C 
HETATM    3  N6  UNL     1      -7.684  18.874  27.713  1.00  0.00    -0.100 NA
BRANCH   2   4
HETATM    4  C5  UNL     1      -6.165  16.975  27.797  1.00  0.00     0.024 C 
BRANCH   4   5
HETATM    5  C4  UNL     1      -5.129  17.577  27.280  1.00  0.00    -0.023 C 
BRANCH   5   6
HETATM    6  C3  UNL     1      -4.632  17.407  25.932  1.00  0.00     0.047 C 
BRANCH   6   7
HETATM    7  C2  UNL     1      -5.745  17.729  24.920  1.00  0.00     0.142 C 
BRANCH   7   8
HETATM    8  N5  UNL     1      -5.146  17.630  23.608  1.00  0.00    -0.225 N 
HETATM    9  C1  UNL     1      -5.860  18.114  22.484  1.00  0.00     0.687 C 
HETATM   10  N3  UNL     1      -6.528  19.349  22.617  1.00  0.00    -0.119 N 
HETATM   11  N4  UNL     1      -5.862  17.434  21.405  1.00  0.00    -0.234 N 
ATOM     12  H3  UNL     1      -7.527  19.412  22.429  1.00  0.00     0.207 HD
ATOM     13  H42 UNL     1      -6.376  17.782  20.595  1.00  0.00     0.174 HD
ATOM     14  H41 UNL     1      -5.380  16.541  21.308  1.00  0.00     0.174 HD
ATOM     15  H5  UNL     1      -4.221  17.218  23.494  1.00  0.00     0.177 HD
BRANCH  10  16
HETATM   16  N2  UNL     1      -5.817  20.482  23.007  1.00  0.00    -0.235 N 
HETATM   17  N1  UNL     1      -6.320  21.626  23.029  1.00  0.00    -0.330 N 
ATOM     18  H12 UNL     1      -7.296  21.717  22.746  1.00  0.00     0.178 HD
ATOM     19  H11 UNL     1      -5.800  22.456  23.315  1.00  0.00     0.178 HD
ATOM     20  H2  UNL     1      -4.842  20.373  23.287  1.00  0.00     0.208 HD
ENDBRANCH  10  16
ENDBRANCH   7   8
ENDBRANCH   6   7
ENDBRANCH   5   6
ENDBRANCH   4   5
ENDBRANCH   2   4
ENDBRANCH   1   2
BRANCH   1  21
HETATM   21  C8  UNL     1      -8.514  15.472  26.740  1.00  0.00     0.126 C 
BRANCH  21  22
HETATM   22  C9  UNL     1      -8.685  15.719  25.304  1.00  0.00     0.031 A 
HETATM   23  C10 UNL     1      -9.375  16.789  24.712  1.00  0.00     0.114 A 
HETATM   24  N7  UNL     1      -9.256  16.685  23.387  1.00  0.00    -0.360 N 
HETATM   25  C11 UNL     1      -8.515  15.589  23.082  1.00  0.00     0.180 A 
ATOM     26  H7  UNL     1      -9.660  17.330  22.708  1.00  0.00     0.166 HD
HETATM   27  N8  UNL     1      -8.203  15.051  24.253  1.00  0.00    -0.354 N 
ATOM     28  H8  UNL     1      -7.644  14.202  24.343  1.00  0.00     0.166 HD
ENDBRANCH  21  22
ENDBRANCH   1  21
BRANCH   1  29
HETATM   29  N9  UNL     1      -9.635  16.366  28.746  1.00  0.00    -0.037 N 
HETATM   30  C26 UNL     1     -10.698  17.279  28.774  1.00  0.00     0.245 A 
HETATM   31  C27 UNL     1     -11.671  16.300  28.171  1.00  0.00     0.057 A 
HETATM   32  C28 UNL     1     -10.547  15.326  28.235  1.00  0.00     0.245 A 
BRANCH  29  33
HETATM   33  C12 UNL     1      -8.945  15.967  29.918  1.00  0.00     0.263 C 
BRANCH  33  34
HETATM   34  C13 UNL     1      -8.866  16.842  31.089  1.00  0.00     0.151 C 
BRANCH  34  35
HETATM   35  N10 UNL     1      -9.541  16.388  32.287  1.00  0.00    -0.355 N 
HETATM   36  C14 UNL     1      -8.872  15.734  33.336  1.00  0.00     0.256 C 
HETATM   37  O1  UNL     1      -7.624  15.542  33.209  1.00  0.00    -0.267 OA
ATOM     38  H10 UNL     1     -10.544  16.550  32.373  1.00  0.00     0.162 HD
BRANCH  36  39
HETATM   39  C15 UNL     1      -9.522  15.266  34.541  1.00  0.00     0.165 C 
BRANCH  39  40
HETATM   40  N11 UNL     1     -10.405  14.133  34.388  1.00  0.00    -0.326 N 
HETATM   41  C16 UNL     1     -11.761  14.353  34.796  1.00  0.00     0.274 C 
HETATM   42  O2  UNL     1     -12.089  15.433  35.260  1.00  0.00    -0.266 OA
ATOM     43  H11 UNL     1     -10.086  13.239  34.015  1.00  0.00     0.168 HD
BRANCH  41  44
HETATM   44  C17 UNL     1     -12.709  13.186  34.606  1.00  0.00     0.260 C 
BRANCH  44  45
HETATM   45  N12 UNL     1     -13.575  13.321  33.542  1.00  0.00    -0.378 NA
HETATM   46  C18 UNL     1     -14.424  13.450  32.504  1.00  0.00     0.295 C 
HETATM   47  O3  UNL     1     -15.446  12.786  32.227  1.00  0.00    -0.257 OA
BRANCH  46  48
HETATM   48  C19 UNL     1     -14.143  14.546  31.483  1.00  0.00     0.157 C 
BRANCH  48  49
HETATM   49  C20 UNL     1     -13.881  13.962  30.150  1.00  0.00    -0.048 A 
HETATM   50  C21 UNL     1     -12.936  12.979  30.005  1.00  0.00     0.007 A 
HETATM   51  C22 UNL     1     -12.735  12.469  28.754  1.00  0.00     0.001 A 
HETATM   52  C23 UNL     1     -13.451  12.917  27.649  1.00  0.00     0.000 A 
HETATM   53  C24 UNL     1     -14.398  13.903  27.817  1.00  0.00     0.001 A 
HETATM   54  C25 UNL     1     -14.616  14.433  29.068  1.00  0.00     0.007 A 
ENDBRANCH  48  49
ENDBRANCH  46  48
ENDBRANCH  44  45
ENDBRANCH  41  44
ENDBRANCH  39  40
ENDBRANCH  36  39
ENDBRANCH  34  35
ENDBRANCH  33  34
ENDBRANCH  29  33
ENDBRANCH   1  29
TORSDOF 19
ENDMDL
MODEL 4
REMARK VINA RESULT: -8.603486023      3.475     10.116
REMARK  19 active torsions:
REMARK  status: ('A' for Active; 'I' for Inactive)
REMARK    1  A    between atoms: N2_4  and  N3_6 
REMARK       I    between atoms: N3_6  and  C1_8 
REMARK       I    between atoms: C1_8  and  N5_12 
REMARK    2  A    between atoms: N5_12  and  C2_14 
REMARK    3  A    between atoms: C2_14  and  C3_15 
REMARK    4  A    between atoms: C3_15  and  C4_16 
REMARK    5  A    between atoms: C4_16  and  C5_17 
REMARK    6  A    between atoms: C5_17  and  C6_18 
REMARK    7  A    between atoms: C6_18  and  C7_20 
REMARK    8  A    between atoms: C7_20  and  C8_21 
REMARK    9  A    between atoms: C7_20  and  N9_29 
REMARK   10  A    between atoms: C8_21  and  C9_22 
REMARK   11  A    between atoms: N9_29  and  C12_30 
REMARK   12  A    between atoms: C12_30  and  C13_31 
REMARK   13  A    between atoms: C13_31  and  N10_32 
REMARK       I    between atoms: N10_32  and  C14_34 
REMARK   14  A    between atoms: C14_34  and  C15_36 
REMARK   15  A    between atoms: C15_36  and  N11_37 
REMARK       I    between atoms: N11_37  and  C16_39 
REMARK   16  A    between atoms: C16_39  and  C17_41 
REMARK   17  A    between atoms: C17_41  and  N12_42 
REMARK       I    between atoms: N12_42  and  C18_43 
REMARK   18  A    between atoms: C18_43  and  C19_45 
REMARK   19  A    between atoms: C19_45  and  C20_46 
ROOT
HETATM    1  C7  UNL     1      -9.400  16.204  26.919  1.00  0.00     0.144 C 
ENDROOT
BRANCH   1   2
HETATM    2  C6  UNL     1      -8.696  17.307  27.586  1.00  0.00     0.077 C 
HETATM    3  N6  UNL     1      -8.748  18.579  26.898  1.00  0.00    -0.100 NA
BRANCH   2   4
HETATM    4  C5  UNL     1      -7.485  17.073  28.334  1.00  0.00     0.024 C 
BRANCH   4   5
HETATM    5  C4  UNL     1      -6.333  16.620  27.922  1.00  0.00    -0.023 C 
BRANCH   5   6
HETATM    6  C3  UNL     1      -5.117  17.391  27.783  1.00  0.00     0.047 C 
BRANCH   6   7
HETATM    7  C2  UNL     1      -4.813  17.623  26.293  1.00  0.00     0.142 C 
BRANCH   7   8
HETATM    8  N5  UNL     1      -4.068  18.860  26.215  1.00  0.00    -0.225 N 
HETATM    9  C1  UNL     1      -4.683  20.004  25.649  1.00  0.00     0.687 C 
HETATM   10  N3  UNL     1      -6.021  20.269  26.007  1.00  0.00    -0.119 N 
HETATM   11  N4  UNL     1      -4.013  20.748  24.859  1.00  0.00    -0.234 N 
ATOM     12  H3  UNL     1      -6.734  20.363  25.284  1.00  0.00     0.207 HD
ATOM     13  H42 UNL     1      -4.455  21.571  24.451  1.00  0.00     0.174 HD
ATOM     14  H41 UNL     1      -3.045  20.557  24.600  1.00  0.00     0.174 HD
ATOM     15  H5  UNL     1      -3.111  18.908  26.565  1.00  0.00     0.177 HD
BRANCH  10  16
HETATM   16  N2  UNL     1      -6.366  20.401  27.349  1.00  0.00    -0.235 N 
HETATM   17  N1  UNL     1      -7.295  21.138  27.744  1.00  0.00    -0.330 N 
ATOM     18  H12 UNL     1      -7.814  21.660  27.037  1.00  0.00     0.178 HD
ATOM     19  H11 UNL     1      -7.548  21.235  28.727  1.00  0.00     0.178 HD
ATOM     20  H2  UNL     1      -5.837  19.872  28.043  1.00  0.00     0.208 HD
ENDBRANCH  10  16
ENDBRANCH   7   8
ENDBRANCH   6   7
ENDBRANCH   5   6
ENDBRANCH   4   5
ENDBRANCH   2   4
ENDBRANCH   1   2
BRANCH   1  21
HETATM   21  C8  UNL     1      -8.650  15.265  26.064  1.00  0.00     0.126 C 
BRANCH  21  22
HETATM   22  C9  UNL     1      -8.517  15.594  24.641  1.00  0.00     0.031 A 
HETATM   23  C10 UNL     1      -7.660  16.553  24.077  1.00  0.00     0.114 A 
HETATM   24  N7  UNL     1      -7.798  16.513  22.751  1.00  0.00    -0.360 N 
HETATM   25  C11 UNL     1      -8.712  15.566  22.417  1.00  0.00     0.180 A 
ATOM     26  H7  UNL     1      -7.294  17.104  22.089  1.00  0.00     0.166 HD
HETATM   27  N8  UNL     1      -9.109  15.052  23.573  1.00  0.00    -0.354 N 
ATOM     28  H8  UNL     1      -9.805  14.310  23.641  1.00  0.00     0.166 HD
ENDBRANCH  21  22
ENDBRANCH   1  21
BRANCH   1  29
HETATM   29  N9  UNL     1     -10.500  15.561  27.667  1.00  0.00    -0.037 N 
HETATM   30  C26 UNL     1     -10.107  15.045  28.909  1.00  0.00     0.245 A 
HETATM   31  C27 UNL     1     -10.729  16.181  29.677  1.00  0.00     0.057 A 
HETATM   32  C28 UNL     1     -11.209  16.659  28.351  1.00  0.00     0.245 A 
BRANCH  29  33
HETATM   33  C12 UNL     1     -11.333  14.841  26.773  1.00  0.00     0.263 C 
BRANCH  33  34
HETATM   34  C13 UNL     1     -12.671  14.400  27.170  1.00  0.00     0.151 C 
BRANCH  34  35
HETATM   35  N10 UNL     1     -12.745  13.225  28.013  1.00  0.00    -0.355 N 
HETATM   36  C14 UNL     1     -13.386  13.226  29.265  1.00  0.00     0.256 C 
HETATM   37  O1  UNL     1     -13.916  14.311  29.655  1.00  0.00    -0.267 OA
ATOM     38  H10 UNL     1     -12.313  12.361  27.686  1.00  0.00     0.162 HD
BRANCH  36  39
HETATM   39  C15 UNL     1     -13.469  12.068  30.130  1.00  0.00     0.165 C 
BRANCH  39  40
HETATM   40  N11 UNL     1     -13.083  12.273  31.506  1.00  0.00    -0.326 N 
HETATM   41  C16 UNL     1     -14.015  11.795  32.483  1.00  0.00     0.274 C 
HETATM   42  O2  UNL     1     -15.062  11.281  32.124  1.00  0.00    -0.266 OA
ATOM     43  H11 UNL     1     -12.207  12.727  31.765  1.00  0.00     0.168 HD
BRANCH  41  44
HETATM   44  C17 UNL     1     -13.606  11.967  33.931  1.00  0.00     0.260 C 
BRANCH  44  45
HETATM   45  N12 UNL     1     -12.982  13.163  34.211  1.00  0.00    -0.378 NA
HETATM   46  C18 UNL     1     -12.375  14.335  34.483  1.00  0.00     0.295 C 
HETATM   47  O3  UNL     1     -12.756  15.501  34.244  1.00  0.00    -0.257 OA
BRANCH  46  48
HETATM   48  C19 UNL     1     -11.019  14.293  35.178  1.00  0.00     0.157 C 
BRANCH  48  49
HETATM   49  C20 UNL     1     -10.047  15.159  34.478  1.00  0.00    -0.048 A 
HETATM   50  C21 UNL     1      -9.739  16.396  34.985  1.00  0.00     0.007 A 
HETATM   51  C22 UNL     1      -8.831  17.154  34.305  1.00  0.00     0.001 A 
HETATM   52  C23 UNL     1      -8.227  16.712  33.133  1.00  0.00     0.000 A 
HETATM   53  C24 UNL     1      -8.548  15.465  32.641  1.00  0.00     0.001 A 
HETATM   54  C25 UNL     1      -9.462  14.683  33.310  1.00  0.00     0.007 A 
ENDBRANCH  48  49
ENDBRANCH  46  48
ENDBRANCH  44  45
ENDBRANCH  41  44
ENDBRANCH  39  40
ENDBRANCH  36  39
ENDBRANCH  34  35
ENDBRANCH  33  34
ENDBRANCH  29  33
ENDBRANCH   1  29
TORSDOF 19
ENDMDL
MODEL 5
REMARK VINA RESULT: -8.546658131      3.403     10.879
REMARK  19 active torsions:
REMARK  status: ('A' for Active; 'I' for Inactive)
REMARK    1  A    between atoms: N2_4  and  N3_6 
REMARK       I    between atoms: N3_6  and  C1_8 
REMARK       I    between atoms: C1_8  and  N5_12 
REMARK    2  A    between atoms: N5_12  and  C2_14 
REMARK    3  A    between atoms: C2_14  and  C3_15 
REMARK    4  A    between atoms: C3_15  and  C4_16 
REMARK    5  A    between atoms: C4_16  and  C5_17 
REMARK    6  A    between atoms: C5_17  and  C6_18 
REMARK    7  A    between atoms: C6_18  and  C7_20 
REMARK    8  A    between atoms: C7_20  and  C8_21 
REMARK    9  A    between atoms: C7_20  and  N9_29 
REMARK   10  A    between atoms: C8_21  and  C9_22 
REMARK   11  A    between atoms: N9_29  and  C12_30 
REMARK   12  A    between atoms: C12_30  and  C13_31 
REMARK   13  A    between atoms: C13_31  and  N10_32 
REMARK       I    between atoms: N10_32  and  C14_34 
REMARK   14  A    between atoms: C14_34  and  C15_36 
REMARK   15  A    between atoms: C15_36  and  N11_37 
REMARK       I    between atoms: N11_37  and  C16_39 
REMARK   16  A    between atoms: C16_39  and  C17_41 
REMARK   17  A    between atoms: C17_41  and  N12_42 
REMARK       I    between atoms: N12_42  and  C18_43 
REMARK   18  A    between atoms: C18_43  and  C19_45 
REMARK   19  A    between atoms: C19_45  and  C20_46 
ROOT
HETATM    1  C7  UNL     1      -9.345  16.436  27.444  1.00  0.00     0.144 C 
ENDROOT
BRANCH   1   2
HETATM    2  C6  UNL     1      -8.900  15.299  26.628  1.00  0.00     0.077 C 
HETATM    3  N6  UNL     1      -7.997  14.380  27.287  1.00  0.00    -0.100 NA
BRANCH   2   4
HETATM    4  C5  UNL     1      -8.689  15.440  25.208  1.00  0.00     0.024 C 
BRANCH   4   5
HETATM    5  C4  UNL     1      -9.482  15.132  24.219  1.00  0.00    -0.023 C 
BRANCH   5   6
HETATM    6  C3  UNL     1      -9.078  14.874  22.854  1.00  0.00     0.047 C 
BRANCH   6   7
HETATM    7  C2  UNL     1      -8.816  16.205  22.126  1.00  0.00     0.142 C 
BRANCH   7   8
HETATM    8  N5  UNL     1      -7.466  16.132  21.615  1.00  0.00    -0.225 N 
HETATM    9  C1  UNL     1      -6.959  17.207  20.844  1.00  0.00     0.687 C 
HETATM   10  N3  UNL     1      -7.236  18.517  21.291  1.00  0.00    -0.119 N 
HETATM   11  N4  UNL     1      -6.271  16.958  19.800  1.00  0.00    -0.234 N 
ATOM     12  H3  UNL     1      -7.700  19.180  20.671  1.00  0.00     0.207 HD
ATOM     13  H42 UNL     1      -5.906  17.732  19.245  1.00  0.00     0.174 HD
ATOM     14  H41 UNL     1      -6.070  16.012  19.477  1.00  0.00     0.174 HD
ATOM     15  H5  UNL     1      -6.884  15.317  21.808  1.00  0.00     0.177 HD
BRANCH  10  16
HETATM   16  N2  UNL     1      -6.874  18.900  22.580  1.00  0.00    -0.235 N 
HETATM   17  N1  UNL     1      -6.259  19.960  22.826  1.00  0.00    -0.330 N 
ATOM     18  H12 UNL     1      -6.020  20.560  22.037  1.00  0.00     0.178 HD
ATOM     19  H11 UNL     1      -5.994  20.241  23.770  1.00  0.00     0.178 HD
ATOM     20  H2  UNL     1      -7.121  18.288  23.358  1.00  0.00     0.208 HD
ENDBRANCH  10  16
ENDBRANCH   7   8
ENDBRANCH   6   7
ENDBRANCH   5   6
ENDBRANCH   4   5
ENDBRANCH   2   4
ENDBRANCH   1   2
BRANCH   1  21
HETATM   21  C8  UNL     1      -9.150  17.813  26.954  1.00  0.00     0.126 C 
BRANCH  21  22
HETATM   22  C9  UNL     1      -7.863  18.461  27.232  1.00  0.00     0.031 A 
HETATM   23  C10 UNL     1      -6.615  17.830  27.357  1.00  0.00     0.114 A 
HETATM   24  N7  UNL     1      -5.688  18.768  27.557  1.00  0.00    -0.360 N 
HETATM   25  C11 UNL     1      -6.275  19.992  27.569  1.00  0.00     0.180 A 
ATOM     26  H7  UNL     1      -4.691  18.592  27.682  1.00  0.00     0.166 HD
HETATM   27  N8  UNL     1      -7.565  19.755  27.374  1.00  0.00    -0.354 N 
ATOM     28  H8  UNL     1      -8.266  20.494  27.337  1.00  0.00     0.166 HD
ENDBRANCH  21  22
ENDBRANCH   1  21
BRANCH   1  29
HETATM   29  N9  UNL     1     -10.595  16.261  28.211  1.00  0.00    -0.037 N 
HETATM   30  C26 UNL     1     -10.476  15.364  29.282  1.00  0.00     0.245 A 
HETATM   31  C27 UNL     1     -10.420  16.463  30.311  1.00  0.00     0.057 A 
HETATM   32  C28 UNL     1     -10.636  17.387  29.164  1.00  0.00     0.245 A 
BRANCH  29  33
HETATM   33  C12 UNL     1     -11.704  16.247  27.328  1.00  0.00     0.263 C 
BRANCH  33  34
HETATM   34  C13 UNL     1     -12.769  15.251  27.461  1.00  0.00     0.151 C 
BRANCH  34  35
HETATM   35  N10 UNL     1     -13.704  15.442  28.552  1.00  0.00    -0.355 N 
HETATM   36  C14 UNL     1     -14.260  14.370  29.272  1.00  0.00     0.256 C 
HETATM   37  O1  UNL     1     -13.918  13.194  28.937  1.00  0.00    -0.267 OA
ATOM     38  H10 UNL     1     -13.969  16.392  28.808  1.00  0.00     0.162 HD
BRANCH  36  39
HETATM   39  C15 UNL     1     -15.200  14.531  30.361  1.00  0.00     0.165 C 
BRANCH  39  40
HETATM   40  N11 UNL     1     -15.120  13.552  31.420  1.00  0.00    -0.326 N 
HETATM   41  C16 UNL     1     -14.082  13.773  32.382  1.00  0.00     0.274 C 
HETATM   42  O2  UNL     1     -13.326  14.722  32.255  1.00  0.00    -0.266 OA
ATOM     43  H11 UNL     1     -15.758  12.759  31.478  1.00  0.00     0.168 HD
BRANCH  41  44
HETATM   44  C17 UNL     1     -14.009  12.776  33.521  1.00  0.00     0.260 C 
BRANCH  44  45
HETATM   45  N12 UNL     1     -13.014  13.029  34.439  1.00  0.00    -0.378 NA
HETATM   46  C18 UNL     1     -12.039  13.272  35.338  1.00  0.00     0.295 C 
HETATM   47  O3  UNL     1     -11.326  12.466  35.974  1.00  0.00    -0.257 OA
BRANCH  46  48
HETATM   48  C19 UNL     1     -11.721  14.724  35.671  1.00  0.00     0.157 C 
BRANCH  48  49
HETATM   49  C20 UNL     1     -10.562  15.198  34.886  1.00  0.00    -0.048 A 
HETATM   50  C21 UNL     1     -10.208  16.523  34.915  1.00  0.00     0.007 A 
HETATM   51  C22 UNL     1      -9.127  16.909  34.177  1.00  0.00     0.001 A 
HETATM   52  C23 UNL     1      -8.394  16.009  33.411  1.00  0.00     0.000 A 
HETATM   53  C24 UNL     1      -8.763  14.682  33.398  1.00  0.00     0.001 A 
HETATM   54  C25 UNL     1      -9.852  14.270  34.133  1.00  0.00     0.007 A 
ENDBRANCH  48  49
ENDBRANCH  46  48
ENDBRANCH  44  45
ENDBRANCH  41  44
ENDBRANCH  39  40
ENDBRANCH  36  39
ENDBRANCH  34  35
ENDBRANCH  33  34
ENDBRANCH  29  33
ENDBRANCH   1  29
TORSDOF 19
ENDMDL
