MODEL 1
REMARK VINA RESULT: -8.360106693      0.000      0.000
REMARK  19 active torsions:
REMARK  status: ('A' for Active; 'I' for Inactive)
REMARK       I    between atoms: C1_4  and  N2_5 
REMARK       I    between atoms: C1_4  and  N5_10 
REMARK    1  A    between atoms: N5_10  and  C3_12 
REMARK    2  A    between atoms: C3_12  and  C4_13 
REMARK    3  A    between atoms: C4_13  and  C5_14 
REMARK    4  A    between atoms: C5_14  and  N6_15 
REMARK       I    between atoms: C6_17  and  N7_18 
REMARK       I    between atoms: C6_17  and  N10_34 
REMARK    5  A    between atoms: N7_18  and  C7_20 
REMARK    6  A    between atoms: C7_20  and  C8_21 
REMARK    7  A    between atoms: C8_21  and  C9_22 
REMARK    8  A    between atoms: C9_22  and  N8_23 
REMARK    9  A    between atoms: N8_23  and  C10_26 
REMARK   10  A    between atoms: C10_26  and  C11_27 
REMARK   11  A    between atoms: C11_27  and  N9_28 
REMARK   12  A    between atoms: N9_28  and  C12_30 
REMARK   13  A    between atoms: C12_30  and  C13_31 
REMARK   14  A    between atoms: C13_31  and  O1_32 
REMARK       I    between atoms: N11_37  and  C16_38 
REMARK   15  A    between atoms: C16_38  and  C17_40 
REMARK   16  A    between atoms: C17_40  and  C18_41 
REMARK   17  A    between atoms: C18_41  and  N12_42 
REMARK       I    between atoms: N12_42  and  C19_44 
REMARK   18  A    between atoms: C19_44  and  C20_46 
REMARK   19  A    between atoms: C21_47  and  C22_48 
ROOT
HETATM    1  N6  UNL     1      -9.593  17.293  26.351  1.00  0.00    -0.206 N 
ATOM      2  H6  UNL     1      -8.927  18.050  26.500  1.00  0.00     0.183 HD
HETATM    3  C6  UNL     1     -10.049  16.844  27.419  1.00  0.00     0.675 C 
HETATM    4  N7  UNL     1      -9.618  17.400  28.663  1.00  0.00    -0.226 N 
ATOM      5  H7  UNL     1     -10.208  18.072  29.155  1.00  0.00     0.177 HD
HETATM    6  N10 UNL     1     -10.994  15.779  27.447  1.00  0.00    -0.215 N 
HETATM    7  C14 UNL     1     -12.271  15.849  26.781  1.00  0.00     0.161 C 
HETATM    8  C15 UNL     1     -13.439  15.375  27.584  1.00  0.00     0.146 C 
HETATM    9  N11 UNL     1     -13.098  14.250  28.417  1.00  0.00    -0.349 N 
HETATM   10  C16 UNL     1     -13.906  13.783  29.464  1.00  0.00     0.221 C 
HETATM   11  O2  UNL     1     -13.537  12.811  30.152  1.00  0.00    -0.273 OA
HETATM   12  C26 UNL     1     -11.845  13.591  28.132  1.00  0.00     0.146 C 
HETATM   13  C27 UNL     1     -10.687  14.542  28.179  1.00  0.00     0.161 C 
ENDROOT
BRANCH   1  14
HETATM   14  C5  UNL     1      -9.779  17.003  24.989  1.00  0.00     0.080 C 
BRANCH  14  15
HETATM   15  C4  UNL     1      -8.809  15.925  24.513  1.00  0.00     0.065 C 
BRANCH  15  16
HETATM   16  C3  UNL     1      -8.577  16.043  23.023  1.00  0.00     0.143 C 
BRANCH  16  17
HETATM   17  N5  UNL     1      -7.356  16.753  22.778  1.00  0.00    -0.226 N 
HETATM   18  C1  UNL     1      -7.383  17.959  22.032  1.00  0.00     0.673 C 
HETATM   19  N1  UNL     1      -7.939  18.031  20.862  1.00  0.00    -0.235 N 
HETATM   20  N2  UNL     1      -6.804  19.165  22.522  1.00  0.00    -0.166 N 
ATOM     21  H12 UNL     1      -7.958  18.899  20.325  1.00  0.00     0.174 HD
ATOM     22  H11 UNL     1      -8.353  17.168  20.512  1.00  0.00     0.174 HD
HETATM   23  C2  UNL     1      -5.573  19.308  22.844  1.00  0.00     0.215 C 
ATOM     24  H2  UNL     1      -7.416  19.975  22.623  1.00  0.00     0.186 HD
HETATM   25  N3  UNL     1      -4.609  18.266  22.753  1.00  0.00    -0.066 NA
HETATM   26  N4  UNL     1      -5.159  20.589  23.320  1.00  0.00    -0.066 NA
ATOM     27  H5  UNL     1      -6.472  16.393  23.139  1.00  0.00     0.177 HD
ENDBRANCH  16  17
ENDBRANCH  15  16
ENDBRANCH  14  15
ENDBRANCH   1  14
BRANCH   4  28
HETATM   28  C7  UNL     1      -8.345  17.009  29.222  1.00  0.00     0.139 C 
BRANCH  28  29
HETATM   29  C8  UNL     1      -7.488  16.219  28.274  1.00  0.00     0.048 C 
BRANCH  29  30
HETATM   30  C9  UNL     1      -6.202  16.863  27.895  1.00  0.00     0.234 C 
BRANCH  30  31
HETATM   31  N8  UNL     1      -6.191  17.392  26.545  1.00  0.00    -0.074 N 
ATOM     32  H82 UNL     1      -6.785  16.858  25.910  1.00  0.00     0.277 HD
ATOM     33  H81 UNL     1      -6.675  18.287  26.471  1.00  0.00     0.277 HD
BRANCH  31  34
HETATM   34  C10 UNL     1      -4.811  17.463  26.092  1.00  0.00     0.251 C 
BRANCH  34  35
HETATM   35  C11 UNL     1      -4.234  18.782  26.635  1.00  0.00     0.141 C 
BRANCH  35  36
HETATM   36  N9  UNL     1      -5.122  19.865  26.430  1.00  0.00    -0.418 N 
ATOM     37  H9  UNL     1      -5.463  20.123  25.504  1.00  0.00     0.153 HD
BRANCH  36  38
HETATM   38  C12 UNL     1      -5.505  20.566  27.603  1.00  0.00     0.139 C 
BRANCH  38  39
HETATM   39  C13 UNL     1      -6.962  20.841  27.761  1.00  0.00     0.183 C 
BRANCH  39  40
HETATM   40  O1  UNL     1      -7.754  19.778  27.383  1.00  0.00    -0.399 OA
ATOM     41  H1  UNL     1      -8.584  20.049  27.009  1.00  0.00     0.209 HD
ENDBRANCH  39  40
ENDBRANCH  38  39
ENDBRANCH  36  38
ENDBRANCH  35  36
ENDBRANCH  34  35
ENDBRANCH  31  34
ENDBRANCH  30  31
ENDBRANCH  29  30
ENDBRANCH  28  29
ENDBRANCH   4  28
BRANCH  10  42
HETATM   42  C17 UNL     1     -15.201  14.425  29.770  1.00  0.00     0.122 C 
BRANCH  42  43
HETATM   43  C18 UNL     1     -15.394  14.529  31.255  1.00  0.00     0.132 C 
BRANCH  43  44
HETATM   44  N12 UNL     1     -14.205  14.821  31.981  1.00  0.00    -0.357 N 
HETATM   45  C19 UNL     1     -13.814  14.196  33.190  1.00  0.00     0.241 C 
HETATM   46  O3  UNL     1     -14.508  13.308  33.724  1.00  0.00    -0.269 OA
ATOM     47  H12 UNL     1     -13.586  15.538  31.601  1.00  0.00     0.162 HD
BRANCH  45  48
HETATM   48  C20 UNL     1     -12.574  14.579  33.846  1.00  0.00     0.076 C 
HETATM   49  C21 UNL     1     -11.678  15.358  33.311  1.00  0.00     0.035 C 
BRANCH  49  50
HETATM   50  C22 UNL     1     -10.467  15.692  34.036  1.00  0.00     0.032 A 
HETATM   51  C23 UNL     1      -9.248  15.912  33.458  1.00  0.00     0.031 A 
HETATM   52  C24 UNL     1      -8.371  16.197  34.486  1.00  0.00     0.019 A 
HETATM   53  C25 UNL     1      -9.051  16.151  35.686  1.00  0.00     0.088 A 
HETATM   54  N13 UNL     1     -10.306  15.845  35.369  1.00  0.00    -0.366 N 
ATOM     55  H13 UNL     1     -11.057  15.738  36.051  1.00  0.00     0.165 HD
ENDBRANCH  49  50
ENDBRANCH  45  48
ENDBRANCH  43  44
ENDBRANCH  42  43
ENDBRANCH  10  42
TORSDOF 19
ENDMDL
MODEL 2
REMARK VINA RESULT: -8.261467627      2.087     10.795
REMARK  19 active torsions:
REMARK  status: ('A' for Active; 'I' for Inactive)
REMARK       I    between atoms: C1_4  and  N2_5 
REMARK       I    between atoms: C1_4  and  N5_10 
REMARK    1  A    between atoms: N5_10  and  C3_12 
REMARK    2  A    between atoms: C3_12  and  C4_13 
REMARK    3  A    between atoms: C4_13  and  C5_14 
REMARK    4  A    between atoms: C5_14  and  N6_15 
REMARK       I    between atoms: C6_17  and  N7_18 
REMARK       I    between atoms: C6_17  and  N10_34 
REMARK    5  A    between atoms: N7_18  and  C7_20 
REMARK    6  A    between atoms: C7_20  and  C8_21 
REMARK    7  A    between atoms: C8_21  and  C9_22 
REMARK    8  A    between atoms: C9_22  and  N8_23 
REMARK    9  A    between atoms: N8_23  and  C10_26 
REMARK   10  A    between atoms: C10_26  and  C11_27 
REMARK   11  A    between atoms: C11_27  and  N9_28 
REMARK   12  A    between atoms: N9_28  and  C12_30 
REMARK   13  A    between atoms: C12_30  and  C13_31 
REMARK   14  A    between atoms: C13_31  and  O1_32 
REMARK       I    between atoms: N11_37  and  C16_38 
REMARK   15  A    between atoms: C16_38  and  C17_40 
REMARK   16  A    between atoms: C17_40  and  C18_41 
REMARK   17  A    between atoms: C18_41  and  N12_42 
REMARK       I    between atoms: N12_42  and  C19_44 
REMARK   18  A    between atoms: C19_44  and  C20_46 
REMARK   19  A    between atoms: C21_47  and  C22_48 
ROOT
HETATM    1  N6  UNL     1     -10.357  17.400  28.364  1.00  0.00    -0.206 N 
ATOM      2  H6  UNL     1     -11.323  17.232  28.085  1.00  0.00     0.183 HD
HETATM    3  C6  UNL     1      -9.587  17.476  27.388  1.00  0.00     0.675 C 
HETATM    4  N7  UNL     1     -10.104  17.327  26.064  1.00  0.00    -0.226 N 
ATOM      5  H7  UNL     1     -10.277  18.151  25.487  1.00  0.00     0.177 HD
HETATM    6  N10 UNL     1      -8.190  17.705  27.546  1.00  0.00    -0.215 N 
HETATM    7  C14 UNL     1      -7.659  18.863  28.219  1.00  0.00     0.161 C 
HETATM    8  C15 UNL     1      -6.524  19.544  27.525  1.00  0.00     0.146 C 
HETATM    9  N11 UNL     1      -5.652  18.603  26.870  1.00  0.00    -0.349 N 
HETATM   10  C16 UNL     1      -4.681  18.967  25.925  1.00  0.00     0.221 C 
HETATM   11  O2  UNL     1      -3.973  18.093  25.388  1.00  0.00    -0.273 OA
HETATM   12  C26 UNL     1      -5.816  17.213  27.227  1.00  0.00     0.146 C 
HETATM   13  C27 UNL     1      -7.222  16.739  27.008  1.00  0.00     0.161 C 
ENDROOT
BRANCH   1  14
HETATM   14  C5  UNL     1     -10.209  17.492  29.758  1.00  0.00     0.080 C 
BRANCH  14  15
HETATM   15  C4  UNL     1      -9.705  16.179  30.350  1.00  0.00     0.065 C 
BRANCH  15  16
HETATM   16  C3  UNL     1     -10.868  15.295  30.742  1.00  0.00     0.143 C 
BRANCH  16  17
HETATM   17  N5  UNL     1     -11.224  15.541  32.109  1.00  0.00    -0.226 N 
HETATM   18  C1  UNL     1     -12.360  14.899  32.666  1.00  0.00     0.673 C 
HETATM   19  N1  UNL     1     -13.527  14.957  32.102  1.00  0.00    -0.235 N 
HETATM   20  N2  UNL     1     -12.289  14.150  33.875  1.00  0.00    -0.166 N 
ATOM     21  H12 UNL     1     -14.344  14.495  32.502  1.00  0.00     0.174 HD
ATOM     22  H11 UNL     1     -13.578  15.493  31.236  1.00  0.00     0.174 HD
HETATM   23  C2  UNL     1     -11.912  14.619  35.005  1.00  0.00     0.215 C 
ATOM     24  H2  UNL     1     -12.560  13.167  33.838  1.00  0.00     0.186 HD
HETATM   25  N3  UNL     1     -11.508  15.968  35.203  1.00  0.00    -0.066 NA
HETATM   26  N4  UNL     1     -11.899  13.725  36.120  1.00  0.00    -0.066 NA
ATOM     27  H5  UNL     1     -10.664  16.175  32.679  1.00  0.00     0.177 HD
ENDBRANCH  16  17
ENDBRANCH  15  16
ENDBRANCH  14  15
ENDBRANCH   1  14
BRANCH   4  28
HETATM   28  C7  UNL     1     -10.381  16.008  25.546  1.00  0.00     0.139 C 
BRANCH  28  29
HETATM   29  C8  UNL     1     -10.459  14.948  26.607  1.00  0.00     0.048 C 
BRANCH  29  30
HETATM   30  C9  UNL     1     -11.823  14.419  26.876  1.00  0.00     0.234 C 
BRANCH  30  31
HETATM   31  N8  UNL     1     -12.850  15.441  26.897  1.00  0.00    -0.074 N 
ATOM     32  H82 UNL     1     -12.472  16.374  27.060  1.00  0.00     0.277 HD
ATOM     33  H81 UNL     1     -13.252  15.612  25.975  1.00  0.00     0.277 HD
BRANCH  31  34
HETATM   34  C10 UNL     1     -13.852  15.064  27.883  1.00  0.00     0.251 C 
BRANCH  34  35
HETATM   35  C11 UNL     1     -13.872  13.527  27.928  1.00  0.00     0.141 C 
BRANCH  35  36
HETATM   36  N9  UNL     1     -14.070  13.045  29.244  1.00  0.00    -0.418 N 
ATOM     37  H9  UNL     1     -14.917  13.245  29.777  1.00  0.00     0.153 HD
BRANCH  36  38
HETATM   38  C12 UNL     1     -13.009  12.264  29.770  1.00  0.00     0.139 C 
BRANCH  38  39
HETATM   39  C13 UNL     1     -13.378  11.270  30.819  1.00  0.00     0.183 C 
BRANCH  39  40
HETATM   40  O1  UNL     1     -13.162  11.734  32.099  1.00  0.00    -0.399 OA
ATOM     41  H1  UNL     1     -13.263  11.059  32.760  1.00  0.00     0.209 HD
ENDBRANCH  39  40
ENDBRANCH  38  39
ENDBRANCH  36  38
ENDBRANCH  35  36
ENDBRANCH  34  35
ENDBRANCH  31  34
ENDBRANCH  30  31
ENDBRANCH  29  30
ENDBRANCH  28  29
ENDBRANCH   4  28
BRANCH  10  42
HETATM   42  C17 UNL     1      -4.477  20.382  25.550  1.00  0.00     0.122 C 
BRANCH  42  43
HETATM   43  C18 UNL     1      -4.726  20.575  24.083  1.00  0.00     0.132 C 
BRANCH  43  44
HETATM   44  N12 UNL     1      -5.662  19.660  23.522  1.00  0.00    -0.357 N 
HETATM   45  C19 UNL     1      -5.406  18.803  22.426  1.00  0.00     0.241 C 
HETATM   46  O3  UNL     1      -4.299  18.783  21.852  1.00  0.00    -0.269 OA
ATOM     47  H12 UNL     1      -6.590  19.620  23.944  1.00  0.00     0.162 HD
BRANCH  45  48
HETATM   48  C20 UNL     1      -6.443  17.909  21.936  1.00  0.00     0.076 C 
HETATM   49  C21 UNL     1      -7.567  17.688  22.557  1.00  0.00     0.035 C 
BRANCH  49  50
HETATM   50  C22 UNL     1      -8.550  16.780  21.997  1.00  0.00     0.032 A 
HETATM   51  C23 UNL     1      -8.738  15.488  22.403  1.00  0.00     0.031 A 
HETATM   52  C24 UNL     1      -9.758  14.976  21.625  1.00  0.00     0.019 A 
HETATM   53  C25 UNL     1     -10.189  15.950  20.747  1.00  0.00     0.088 A 
HETATM   54  N13 UNL     1      -9.437  17.016  21.006  1.00  0.00    -0.366 N 
ATOM     55  H13 UNL     1      -9.521  17.906  20.515  1.00  0.00     0.165 HD
ENDBRANCH  49  50
ENDBRANCH  45  48
ENDBRANCH  43  44
ENDBRANCH  42  43
ENDBRANCH  10  42
TORSDOF 19
ENDMDL
MODEL 3
REMARK VINA RESULT: -8.188807043      3.381      9.742
REMARK  19 active torsions:
REMARK  status: ('A' for Active; 'I' for Inactive)
REMARK       I    between atoms: C1_4  and  N2_5 
REMARK       I    between atoms: C1_4  and  N5_10 
REMARK    1  A    between atoms: N5_10  and  C3_12 
REMARK    2  A    between atoms: C3_12  and  C4_13 
REMARK    3  A    between atoms: C4_13  and  C5_14 
REMARK    4  A    between atoms: C5_14  and  N6_15 
REMARK       I    between atoms: C6_17  and  N7_18 
REMARK       I    between atoms: C6_17  and  N10_34 
REMARK    5  A    between atoms: N7_18  and  C7_20 
REMARK    6  A    between atoms: C7_20  and  C8_21 
REMARK    7  A    between atoms: C8_21  and  C9_22 
REMARK    8  A    between atoms: C9_22  and  N8_23 
REMARK    9  A    between atoms: N8_23  and  C10_26 
REMARK   10  A    between atoms: C10_26  and  C11_27 
REMARK   11  A    between atoms: C11_27  and  N9_28 
REMARK   12  A    between atoms: N9_28  and  C12_30 
REMARK   13  A    between atoms: C12_30  and  C13_31 
REMARK   14  A    between atoms: C13_31  and  O1_32 
REMARK       I    between atoms: N11_37  and  C16_38 
REMARK   15  A    between atoms: C16_38  and  C17_40 
REMARK   16  A    between atoms: C17_40  and  C18_41 
REMARK   17  A    between atoms: C18_41  and  N12_42 
REMARK       I    between atoms: N12_42  and  C19_44 
REMARK   18  A    between atoms: C19_44  and  C20_46 
REMARK   19  A    between atoms: C21_47  and  C22_48 
ROOT
HETATM    1  N6  UNL     1     -10.993  16.014  25.821  1.00  0.00    -0.206 N 
ATOM      2  H6  UNL     1     -11.507  15.727  24.989  1.00  0.00     0.183 HD
HETATM    3  C6  UNL     1      -9.810  16.309  25.570  1.00  0.00     0.675 C 
HETATM    4  N7  UNL     1      -9.326  16.219  24.228  1.00  0.00    -0.226 N 
ATOM      5  H7  UNL     1      -9.241  17.060  23.657  1.00  0.00     0.177 HD
HETATM    6  N10 UNL     1      -8.907  16.735  26.585  1.00  0.00    -0.215 N 
HETATM    7  C14 UNL     1      -9.152  17.886  27.417  1.00  0.00     0.161 C 
HETATM    8  C15 UNL     1      -7.986  18.804  27.603  1.00  0.00     0.146 C 
HETATM    9  N11 UNL     1      -6.743  18.082  27.685  1.00  0.00    -0.349 N 
HETATM   10  C16 UNL     1      -5.482  18.689  27.581  1.00  0.00     0.221 C 
HETATM   11  O2  UNL     1      -4.448  17.995  27.646  1.00  0.00    -0.273 OA
HETATM   12  C26 UNL     1      -6.835  16.654  27.882  1.00  0.00     0.146 C 
HETATM   13  C27 UNL     1      -7.660  15.993  26.820  1.00  0.00     0.161 C 
ENDROOT
BRANCH   1  14
HETATM   14  C5  UNL     1     -11.786  15.984  26.980  1.00  0.00     0.080 C 
BRANCH  14  15
HETATM   15  C4  UNL     1     -12.299  14.575  27.264  1.00  0.00     0.065 C 
BRANCH  15  16
HETATM   16  C3  UNL     1     -11.384  13.866  28.239  1.00  0.00     0.143 C 
BRANCH  16  17
HETATM   17  N5  UNL     1     -10.781  14.823  29.120  1.00  0.00    -0.226 N 
HETATM   18  C1  UNL     1     -11.137  14.834  30.493  1.00  0.00     0.673 C 
HETATM   19  N1  UNL     1     -12.373  14.899  30.882  1.00  0.00    -0.235 N 
HETATM   20  N2  UNL     1     -10.161  14.774  31.529  1.00  0.00    -0.166 N 
ATOM     21  H12 UNL     1     -12.629  14.907  31.870  1.00  0.00     0.174 HD
ATOM     22  H11 UNL     1     -13.072  14.943  30.141  1.00  0.00     0.174 HD
HETATM   23  C2  UNL     1      -9.214  15.621  31.693  1.00  0.00     0.215 C 
ATOM     24  H2  UNL     1     -10.220  13.998  32.188  1.00  0.00     0.186 HD
HETATM   25  N3  UNL     1      -9.012  16.749  30.850  1.00  0.00    -0.066 NA
HETATM   26  N4  UNL     1      -8.319  15.407  32.785  1.00  0.00    -0.066 NA
ATOM     27  H5  UNL     1     -10.099  15.492  28.761  1.00  0.00     0.177 HD
ENDBRANCH  16  17
ENDBRANCH  15  16
ENDBRANCH  14  15
ENDBRANCH   1  14
BRANCH   4  28
HETATM   28  C7  UNL     1      -8.959  14.933  23.682  1.00  0.00     0.139 C 
BRANCH  28  29
HETATM   29  C8  UNL     1      -9.400  14.735  22.260  1.00  0.00     0.048 C 
BRANCH  29  30
HETATM   30  C9  UNL     1      -9.683  15.985  21.504  1.00  0.00     0.234 C 
BRANCH  30  31
HETATM   31  N8  UNL     1      -8.682  16.301  20.504  1.00  0.00    -0.074 N 
ATOM     32  H82 UNL     1      -7.867  15.689  20.558  1.00  0.00     0.277 HD
ATOM     33  H81 UNL     1      -8.979  16.053  19.560  1.00  0.00     0.277 HD
BRANCH  31  34
HETATM   34  C10 UNL     1      -8.335  17.708  20.630  1.00  0.00     0.251 C 
BRANCH  34  35
HETATM   35  C11 UNL     1      -7.200  17.793  21.664  1.00  0.00     0.141 C 
BRANCH  35  36
HETATM   36  N9  UNL     1      -5.990  18.236  21.078  1.00  0.00    -0.418 N 
ATOM     37  H9  UNL     1      -5.729  19.221  21.044  1.00  0.00     0.153 HD
BRANCH  36  38
HETATM   38  C12 UNL     1      -5.166  17.212  20.540  1.00  0.00     0.139 C 
BRANCH  38  39
HETATM   39  C13 UNL     1      -4.984  17.222  19.060  1.00  0.00     0.183 C 
BRANCH  39  40
HETATM   40  O1  UNL     1      -5.578  18.309  18.453  1.00  0.00    -0.399 OA
ATOM     41  H1  UNL     1      -5.048  19.096  18.502  1.00  0.00     0.209 HD
ENDBRANCH  39  40
ENDBRANCH  38  39
ENDBRANCH  36  38
ENDBRANCH  35  36
ENDBRANCH  34  35
ENDBRANCH  31  34
ENDBRANCH  30  31
ENDBRANCH  29  30
ENDBRANCH  28  29
ENDBRANCH   4  28
BRANCH  10  42
HETATM   42  C17 UNL     1      -5.353  20.149  27.394  1.00  0.00     0.122 C 
BRANCH  42  43
HETATM   43  C18 UNL     1      -5.038  20.467  25.962  1.00  0.00     0.132 C 
BRANCH  43  44
HETATM   44  N12 UNL     1      -4.175  19.529  25.329  1.00  0.00    -0.357 N 
HETATM   45  C19 UNL     1      -4.026  19.373  23.930  1.00  0.00     0.241 C 
HETATM   46  O3  UNL     1      -4.663  20.074  23.120  1.00  0.00    -0.269 OA
ATOM     47  H12 UNL     1      -3.619  18.921  25.932  1.00  0.00     0.162 HD
BRANCH  45  48
HETATM   48  C20 UNL     1      -3.111  18.376  23.397  1.00  0.00     0.076 C 
HETATM   49  C21 UNL     1      -2.985  17.172  23.879  1.00  0.00     0.035 C 
BRANCH  49  50
HETATM   50  C22 UNL     1      -2.048  16.238  23.285  1.00  0.00     0.032 A 
HETATM   51  C23 UNL     1      -1.291  15.340  23.987  1.00  0.00     0.031 A 
HETATM   52  C24 UNL     1      -0.540  14.647  23.058  1.00  0.00     0.019 A 
HETATM   53  C25 UNL     1      -0.836  15.119  21.795  1.00  0.00     0.088 A 
HETATM   54  N13 UNL     1      -1.746  16.072  21.979  1.00  0.00    -0.366 N 
ATOM     55  H13 UNL     1      -2.165  16.614  21.223  1.00  0.00     0.165 HD
ENDBRANCH  49  50
ENDBRANCH  45  48
ENDBRANCH  43  44
ENDBRANCH  42  43
ENDBRANCH  10  42
TORSDOF 19
ENDMDL
MODEL 4
REMARK VINA RESULT: -8.018926728      3.256      7.159
REMARK  19 active torsions:
REMARK  status: ('A' for Active; 'I' for Inactive)
REMARK       I    between atoms: C1_4  and  N2_5 
REMARK       I    between atoms: C1_4  and  N5_10 
REMARK    1  A    between atoms: N5_10  and  C3_12 
REMARK    2  A    between atoms: C3_12  and  C4_13 
REMARK    3  A    between atoms: C4_13  and  C5_14 
REMARK    4  A    between atoms: C5_14  and  N6_15 
REMARK       I    between atoms: C6_17  and  N7_18 
REMARK       I    between atoms: C6_17  and  N10_34 
REMARK    5  A    between atoms: N7_18  and  C7_20 
REMARK    6  A    between atoms: C7_20  and  C8_21 
REMARK    7  A    between atoms: C8_21  and  C9_22 
REMARK    8  A    between atoms: C9_22  and  N8_23 
REMARK    9  A    between atoms: N8_23  and  C10_26 
REMARK   10  A    between atoms: C10_26  and  C11_27 
REMARK   11  A    between atoms: C11_27  and  N9_28 
REMARK   12  A    between atoms: N9_28  and  C12_30 
REMARK   13  A    between atoms: C12_30  and  C13_31 
REMARK   14  A    between atoms: C13_31  and  O1_32 
REMARK       I    between atoms: N11_37  and  C16_38 
REMARK   15  A    between atoms: C16_38  and  C17_40 
REMARK   16  A    between atoms: C17_40  and  C18_41 
REMARK   17  A    between atoms: C18_41  and  N12_42 
REMARK       I    between atoms: N12_42  and  C19_44 
REMARK   18  A    between atoms: C19_44  and  C20_46 
REMARK   19  A    between atoms: C21_47  and  C22_48 
ROOT
HETATM    1  N6  UNL     1      -3.943  17.660  20.775  1.00  0.00    -0.206 N 
ATOM      2  H6  UNL     1      -4.207  17.224  19.892  1.00  0.00     0.183 HD
HETATM    3  C6  UNL     1      -4.869  17.647  21.607  1.00  0.00     0.675 C 
HETATM    4  N7  UNL     1      -6.126  17.062  21.259  1.00  0.00    -0.226 N 
ATOM      5  H7  UNL     1      -6.358  16.120  21.579  1.00  0.00     0.177 HD
HETATM    6  N10 UNL     1      -4.722  18.206  22.909  1.00  0.00    -0.215 N 
HETATM    7  C14 UNL     1      -3.709  17.769  23.837  1.00  0.00     0.161 C 
HETATM    8  C15 UNL     1      -4.178  17.547  25.239  1.00  0.00     0.146 C 
HETATM    9  N11 UNL     1      -5.177  18.508  25.630  1.00  0.00    -0.349 N 
HETATM   10  C16 UNL     1      -5.982  18.374  26.771  1.00  0.00     0.221 C 
HETATM   11  O2  UNL     1      -6.838  19.241  27.037  1.00  0.00    -0.273 OA
HETATM   12  C26 UNL     1      -5.334  19.662  24.775  1.00  0.00     0.146 C 
HETATM   13  C27 UNL     1      -5.626  19.274  23.357  1.00  0.00     0.161 C 
ENDROOT
BRANCH   1  14
HETATM   14  C5  UNL     1      -2.620  18.133  20.766  1.00  0.00     0.080 C 
BRANCH  14  15
HETATM   15  C4  UNL     1      -2.237  18.683  19.395  1.00  0.00     0.065 C 
BRANCH  15  16
HETATM   16  C3  UNL     1      -2.230  17.576  18.364  1.00  0.00     0.143 C 
BRANCH  16  17
HETATM   17  N5  UNL     1      -3.007  17.970  17.225  1.00  0.00    -0.226 N 
HETATM   18  C1  UNL     1      -4.421  17.879  17.274  1.00  0.00     0.673 C 
HETATM   19  N1  UNL     1      -5.028  16.781  17.607  1.00  0.00    -0.235 N 
HETATM   20  N2  UNL     1      -5.263  18.985  16.964  1.00  0.00    -0.166 N 
ATOM     21  H12 UNL     1      -6.046  16.716  17.642  1.00  0.00     0.174 HD
ATOM     22  H11 UNL     1      -4.426  15.989  17.829  1.00  0.00     0.174 HD
HETATM   23  C2  UNL     1      -5.270  19.607  15.844  1.00  0.00     0.215 C 
ATOM     24  H2  UNL     1      -5.907  19.306  17.686  1.00  0.00     0.186 HD
HETATM   25  N3  UNL     1      -4.427  19.269  14.749  1.00  0.00    -0.066 NA
HETATM   26  N4  UNL     1      -6.179  20.700  15.702  1.00  0.00    -0.066 NA
ATOM     27  H5  UNL     1      -2.544  18.314  16.383  1.00  0.00     0.177 HD
ENDBRANCH  16  17
ENDBRANCH  15  16
ENDBRANCH  14  15
ENDBRANCH   1  14
BRANCH   4  28
HETATM   28  C7  UNL     1      -7.066  17.805  20.454  1.00  0.00     0.139 C 
BRANCH  28  29
HETATM   29  C8  UNL     1      -8.500  17.576  20.839  1.00  0.00     0.048 C 
BRANCH  29  30
HETATM   30  C9  UNL     1      -9.047  16.239  20.481  1.00  0.00     0.234 C 
BRANCH  30  31
HETATM   31  N8  UNL     1      -9.696  15.561  21.585  1.00  0.00    -0.074 N 
ATOM     32  H82 UNL     1     -10.177  16.205  22.213  1.00  0.00     0.277 HD
ATOM     33  H81 UNL     1     -10.510  15.021  21.290  1.00  0.00     0.277 HD
BRANCH  31  34
HETATM   34  C10 UNL     1      -8.704  14.747  22.271  1.00  0.00     0.251 C 
BRANCH  34  35
HETATM   35  C11 UNL     1      -8.792  15.107  23.764  1.00  0.00     0.141 C 
BRANCH  35  36
HETATM   36  N9  UNL     1      -7.882  16.134  24.109  1.00  0.00    -0.418 N 
ATOM     37  H9  UNL     1      -6.872  15.988  24.120  1.00  0.00     0.153 HD
BRANCH  36  38
HETATM   38  C12 UNL     1      -8.473  17.382  24.441  1.00  0.00     0.139 C 
BRANCH  38  39
HETATM   39  C13 UNL     1      -9.696  17.327  25.291  1.00  0.00     0.183 C 
BRANCH  39  40
HETATM   40  O1  UNL     1      -9.851  18.445  26.083  1.00  0.00    -0.399 OA
ATOM     41  H1  UNL     1     -10.726  18.813  26.036  1.00  0.00     0.209 HD
ENDBRANCH  39  40
ENDBRANCH  38  39
ENDBRANCH  36  38
ENDBRANCH  35  36
ENDBRANCH  34  35
ENDBRANCH  31  34
ENDBRANCH  30  31
ENDBRANCH  29  30
ENDBRANCH  28  29
ENDBRANCH   4  28
BRANCH  10  42
HETATM   42  C17 UNL     1      -5.835  17.213  27.674  1.00  0.00     0.122 C 
BRANCH  42  43
HETATM   43  C18 UNL     1      -7.123  16.447  27.755  1.00  0.00     0.132 C 
BRANCH  43  44
HETATM   44  N12 UNL     1      -7.650  16.324  29.072  1.00  0.00    -0.357 N 
HETATM   45  C19 UNL     1      -8.921  16.789  29.488  1.00  0.00     0.241 C 
HETATM   46  O3  UNL     1      -9.701  17.359  28.701  1.00  0.00    -0.269 OA
ATOM     47  H12 UNL     1      -7.065  15.865  29.771  1.00  0.00     0.162 HD
BRANCH  45  48
HETATM   48  C20 UNL     1      -9.352  16.609  30.865  1.00  0.00     0.076 C 
HETATM   49  C21 UNL     1      -8.696  15.912  31.748  1.00  0.00     0.035 C 
BRANCH  49  50
HETATM   50  C22 UNL     1      -9.198  15.784  33.103  1.00  0.00     0.032 A 
HETATM   51  C23 UNL     1      -9.099  16.750  34.066  1.00  0.00     0.031 A 
HETATM   52  C24 UNL     1      -9.693  16.236  35.202  1.00  0.00     0.019 A 
HETATM   53  C25 UNL     1     -10.154  14.963  34.934  1.00  0.00     0.088 A 
HETATM   54  N13 UNL     1      -9.835  14.733  33.663  1.00  0.00    -0.366 N 
ATOM     55  H13 UNL     1     -10.047  13.865  33.170  1.00  0.00     0.165 HD
ENDBRANCH  49  50
ENDBRANCH  45  48
ENDBRANCH  43  44
ENDBRANCH  42  43
ENDBRANCH  10  42
TORSDOF 19
ENDMDL
MODEL 5
REMARK VINA RESULT: -7.933374110      1.537      2.034
REMARK  19 active torsions:
REMARK  status: ('A' for Active; 'I' for Inactive)
REMARK       I    between atoms: C1_4  and  N2_5 
REMARK       I    between atoms: C1_4  and  N5_10 
REMARK    1  A    between atoms: N5_10  and  C3_12 
REMARK    2  A    between atoms: C3_12  and  C4_13 
REMARK    3  A    between atoms: C4_13  and  C5_14 
REMARK    4  A    between atoms: C5_14  and  N6_15 
REMARK       I    between atoms: C6_17  and  N7_18 
REMARK       I    between atoms: C6_17  and  N10_34 
REMARK    5  A    between atoms: N7_18  and  C7_20 
REMARK    6  A    between atoms: C7_20  and  C8_21 
REMARK    7  A    between atoms: C8_21  and  C9_22 
REMARK    8  A    between atoms: C9_22  and  N8_23 
REMARK    9  A    between atoms: N8_23  and  C10_26 
REMARK   10  A    between atoms: C10_26  and  C11_27 
REMARK   11  A    between atoms: C11_27  and  N9_28 
REMARK   12  A    between atoms: N9_28  and  C12_30 
REMARK   13  A    between atoms: C12_30  and  C13_31 
REMARK   14  A    between atoms: C13_31  and  O1_32 
REMARK       I    between atoms: N11_37  and  C16_38 
REMARK   15  A    between atoms: C16_38  and  C17_40 
REMARK   16  A    between atoms: C17_40  and  C18_41 
REMARK   17  A    between atoms: C18_41  and  N12_42 
REMARK       I    between atoms: N12_42  and  C19_44 
REMARK   18  A    between atoms: C19_44  and  C20_46 
REMARK   19  A    between atoms: C21_47  and  C22_48 
ROOT
HETATM    1  N6  UNL     1      -9.406  17.051  26.014  1.00  0.00    -0.206 N 
ATOM      2  H6  UNL     1      -8.750  17.827  26.104  1.00  0.00     0.183 HD
HETATM    3  C6  UNL     1      -9.882  16.701  27.109  1.00  0.00     0.675 C 
HETATM    4  N7  UNL     1      -9.483  17.378  28.304  1.00  0.00    -0.226 N 
ATOM      5  H7  UNL     1     -10.089  18.087  28.717  1.00  0.00     0.177 HD
HETATM    6  N10 UNL     1     -10.818  15.634  27.219  1.00  0.00    -0.215 N 
HETATM    7  C14 UNL     1     -12.080  15.627  26.523  1.00  0.00     0.161 C 
HETATM    8  C15 UNL     1     -13.262  15.219  27.342  1.00  0.00     0.146 C 
HETATM    9  N11 UNL     1     -12.929  14.182  28.285  1.00  0.00    -0.349 N 
HETATM   10  C16 UNL     1     -13.757  13.807  29.354  1.00  0.00     0.221 C 
HETATM   11  O2  UNL     1     -13.394  12.909  30.140  1.00  0.00    -0.273 OA
HETATM   12  C26 UNL     1     -11.665  13.512  28.090  1.00  0.00     0.146 C 
HETATM   13  C27 UNL     1     -10.517  14.476  28.071  1.00  0.00     0.161 C 
ENDROOT
BRANCH   1  14
HETATM   14  C5  UNL     1      -9.560  16.631  24.682  1.00  0.00     0.080 C 
BRANCH  14  15
HETATM   15  C4  UNL     1      -8.209  16.362  24.025  1.00  0.00     0.065 C 
BRANCH  15  16
HETATM   16  C3  UNL     1      -7.880  17.450  23.027  1.00  0.00     0.143 C 
BRANCH  16  17
HETATM   17  N5  UNL     1      -6.956  16.949  22.052  1.00  0.00    -0.226 N 
HETATM   18  C1  UNL     1      -7.235  17.113  20.670  1.00  0.00     0.673 C 
HETATM   19  N1  UNL     1      -8.361  16.736  20.147  1.00  0.00    -0.235 N 
HETATM   20  N2  UNL     1      -6.298  17.703  19.774  1.00  0.00    -0.166 N 
ATOM     21  H12 UNL     1      -8.561  16.855  19.153  1.00  0.00     0.174 HD
ATOM     22  H11 UNL     1      -9.031  16.313  20.789  1.00  0.00     0.174 HD
HETATM   23  C2  UNL     1      -5.116  17.262  19.556  1.00  0.00     0.215 C 
ATOM     24  H2  UNL     1      -6.592  18.539  19.268  1.00  0.00     0.186 HD
HETATM   25  N3  UNL     1      -4.576  16.109  20.190  1.00  0.00    -0.066 NA
HETATM   26  N4  UNL     1      -4.305  17.979  18.624  1.00  0.00    -0.066 NA
ATOM     27  H5  UNL     1      -6.103  16.476  22.349  1.00  0.00     0.177 HD
ENDBRANCH  16  17
ENDBRANCH  15  16
ENDBRANCH  14  15
ENDBRANCH   1  14
BRANCH   4  28
HETATM   28  C7  UNL     1      -8.219  17.055  28.924  1.00  0.00     0.139 C 
BRANCH  28  29
HETATM   29  C8  UNL     1      -7.246  16.387  27.996  1.00  0.00     0.048 C 
BRANCH  29  30
HETATM   30  C9  UNL     1      -5.968  17.119  27.783  1.00  0.00     0.234 C 
BRANCH  30  31
HETATM   31  N8  UNL     1      -6.001  18.034  26.659  1.00  0.00    -0.074 N 
ATOM     32  H82 UNL     1      -6.329  17.590  25.801  1.00  0.00     0.277 HD
ATOM     33  H81 UNL     1      -6.738  18.734  26.745  1.00  0.00     0.277 HD
BRANCH  31  34
HETATM   34  C10 UNL     1      -4.681  18.628  26.512  1.00  0.00     0.251 C 
BRANCH  34  35
HETATM   35  C11 UNL     1      -4.891  20.036  25.930  1.00  0.00     0.141 C 
BRANCH  35  36
HETATM   36  N9  UNL     1      -4.141  20.229  24.745  1.00  0.00    -0.418 N 
ATOM     37  H9  UNL     1      -3.248  20.721  24.738  1.00  0.00     0.153 HD
BRANCH  36  38
HETATM   38  C12 UNL     1      -4.719  19.688  23.566  1.00  0.00     0.139 C 
BRANCH  38  39
HETATM   39  C13 UNL     1      -3.897  18.686  22.829  1.00  0.00     0.183 C 
BRANCH  39  40
HETATM   40  O1  UNL     1      -4.295  17.387  23.063  1.00  0.00    -0.399 OA
ATOM     41  H1  UNL     1      -3.565  16.785  23.145  1.00  0.00     0.209 HD
ENDBRANCH  39  40
ENDBRANCH  38  39
ENDBRANCH  36  38
ENDBRANCH  35  36
ENDBRANCH  34  35
ENDBRANCH  31  34
ENDBRANCH  30  31
ENDBRANCH  29  30
ENDBRANCH  28  29
ENDBRANCH   4  28
BRANCH  10  42
HETATM   42  C17 UNL     1     -15.064  14.462  29.571  1.00  0.00     0.122 C 
BRANCH  42  43
HETATM   43  C18 UNL     1     -15.333  14.618  31.039  1.00  0.00     0.132 C 
BRANCH  43  44
HETATM   44  N12 UNL     1     -14.183  14.937  31.815  1.00  0.00    -0.357 N 
HETATM   45  C19 UNL     1     -13.857  14.358  33.066  1.00  0.00     0.241 C 
HETATM   46  O3  UNL     1     -14.581  13.493  33.597  1.00  0.00    -0.269 OA
ATOM     47  H12 UNL     1     -13.542  15.637  31.440  1.00  0.00     0.162 HD
BRANCH  45  48
HETATM   48  C20 UNL     1     -12.652  14.765  33.771  1.00  0.00     0.076 C 
HETATM   49  C21 UNL     1     -11.636  15.346  33.200  1.00  0.00     0.035 C 
BRANCH  49  50
HETATM   50  C22 UNL     1     -10.471  15.720  33.979  1.00  0.00     0.032 A 
HETATM   51  C23 UNL     1      -9.227  15.952  33.459  1.00  0.00     0.031 A 
HETATM   52  C24 UNL     1      -8.411  16.279  34.524  1.00  0.00     0.019 A 
HETATM   53  C25 UNL     1      -9.151  16.246  35.688  1.00  0.00     0.088 A 
HETATM   54  N13 UNL     1     -10.382  15.907  35.314  1.00  0.00    -0.366 N 
ATOM     55  H13 UNL     1     -11.165  15.800  35.958  1.00  0.00     0.165 HD
ENDBRANCH  49  50
ENDBRANCH  45  48
ENDBRANCH  43  44
ENDBRANCH  42  43
ENDBRANCH  10  42
TORSDOF 19
ENDMDL
