MODEL 1
REMARK VINA RESULT: -8.381566830      0.000      0.000
REMARK  20 active torsions:
REMARK  status: ('A' for Active; 'I' for Inactive)
REMARK    1  A    between atoms: C2_5  and  C3_6 
REMARK    2  A    between atoms: N4_14  and  C10_15 
REMARK    3  A    between atoms: C10_15  and  C11_16 
REMARK    4  A    between atoms: C11_16  and  C12_17 
REMARK    5  A    between atoms: C12_17  and  C13_18 
REMARK    6  A    between atoms: C13_18  and  N5_19 
REMARK    7  A    between atoms: C16_22  and  C17_23 
REMARK       I    between atoms: C17_23  and  N6_25 
REMARK    8  A    between atoms: N6_25  and  C18_27 
REMARK    9  A    between atoms: C18_27  and  C19_28 
REMARK   10  A    between atoms: C19_28  and  C20_29 
REMARK   11  A    between atoms: C20_29  and  N7_30 
REMARK   12  A    between atoms: N7_30  and  C21_33 
REMARK   13  A    between atoms: C21_33  and  C22_34 
REMARK   14  A    between atoms: C22_34  and  C23_35 
REMARK   15  A    between atoms: C23_35  and  N8_36 
REMARK   16  A    between atoms: C25_41  and  N11_42 
REMARK   17  A    between atoms: N11_42  and  C26_44 
REMARK   18  A    between atoms: C26_44  and  C27_45 
REMARK   19  A    between atoms: C27_45  and  N12_46 
REMARK   20  A    between atoms: N12_46  and  C28_48 
ROOT
HETATM    1  N5  UNL     1     -11.476  15.524  27.023  1.00  0.00    -0.302 N 
HETATM    2  C14 UNL     1     -11.447  16.469  27.969  1.00  0.00     0.111 A 
HETATM    3  C15 UNL     1     -10.334  17.236  28.180  1.00  0.00     0.039 A 
HETATM    4  C16 UNL     1      -9.160  17.070  27.410  1.00  0.00     0.078 A 
HETATM    5  C25 UNL     1      -9.249  16.093  26.461  1.00  0.00     0.132 A 
HETATM    6  N14 UNL     1     -10.399  15.360  26.306  1.00  0.00    -0.283 N 
ATOM      7  H14 UNL     1     -10.413  14.641  25.583  1.00  0.00     0.189 HD
ENDROOT
BRANCH   1   8
HETATM    8  C13 UNL     1     -12.675  14.700  26.799  1.00  0.00     0.148 C 
BRANCH   8   9
HETATM    9  C12 UNL     1     -13.844  15.286  27.511  1.00  0.00     0.023 C 
BRANCH   9  10
HETATM   10  C11 UNL     1     -14.549  14.442  28.482  1.00  0.00     0.024 C 
BRANCH  10  11
HETATM   11  C10 UNL     1     -13.825  13.600  29.445  1.00  0.00     0.152 C 
BRANCH  11  12
HETATM   12  N4  UNL     1     -13.473  14.223  30.704  1.00  0.00    -0.261 N 
HETATM   13  N1  UNL     1     -14.195  14.704  31.686  1.00  0.00    -0.235 N 
HETATM   14  C1  UNL     1     -15.632  14.739  31.825  1.00  0.00     0.200 C 
HETATM   15  N2  UNL     1     -13.406  15.232  32.618  1.00  0.00    -0.280 N 
HETATM   16  C2  UNL     1     -12.116  15.106  32.259  1.00  0.00     0.102 A 
ATOM     17  H2  UNL     1     -13.732  15.668  33.480  1.00  0.00     0.189 HD
HETATM   18  C9  UNL     1     -12.150  14.473  31.056  1.00  0.00     0.163 A 
HETATM   19  N3  UNL     1     -11.065  14.101  30.247  1.00  0.00    -0.079 NA
BRANCH  16  20
HETATM   20  C3  UNL     1     -10.984  15.580  33.044  1.00  0.00    -0.005 A 
HETATM   21  C4  UNL     1      -9.844  16.098  32.523  1.00  0.00     0.014 A 
HETATM   22  C5  UNL     1      -8.788  16.548  33.320  1.00  0.00     0.001 A 
HETATM   23  C6  UNL     1      -8.871  16.481  34.683  1.00  0.00     0.000 A 
HETATM   24  C7  UNL     1     -10.021  15.959  35.231  1.00  0.00     0.001 A 
HETATM   25  C8  UNL     1     -11.043  15.523  34.439  1.00  0.00     0.014 A 
ENDBRANCH  16  20
ENDBRANCH  11  12
ENDBRANCH  10  11
ENDBRANCH   9  10
ENDBRANCH   8   9
ENDBRANCH   1   8
BRANCH   5  26
HETATM   26  N11 UNL     1      -8.261  15.846  25.674  1.00  0.00    -0.373 N 
ATOM     27  H11 UNL     1      -7.459  15.365  26.082  1.00  0.00     0.161 HD
BRANCH  26  28
HETATM   28  C26 UNL     1      -8.175  16.176  24.289  1.00  0.00     0.141 C 
BRANCH  28  29
HETATM   29  C27 UNL     1      -8.665  15.043  23.405  1.00  0.00     0.140 C 
BRANCH  29  30
HETATM   30  N12 UNL     1      -8.669  15.383  22.005  1.00  0.00    -0.385 N 
ATOM     31  H12 UNL     1      -7.819  15.272  21.453  1.00  0.00     0.160 HD
BRANCH  30  32
HETATM   32  C28 UNL     1      -9.842  15.868  21.399  1.00  0.00     0.168 C 
HETATM   33  N13 UNL     1      -9.880  16.962  20.683  1.00  0.00    -0.396 N 
ATOM     34 2H13 UNL     1      -9.007  17.477  20.569  1.00  0.00     0.156 HD
ATOM     35 1H13 UNL     1     -10.730  17.314  20.244  1.00  0.00     0.156 HD
ENDBRANCH  30  32
ENDBRANCH  29  30
ENDBRANCH  28  29
ENDBRANCH  26  28
ENDBRANCH   5  26
BRANCH   4  36
HETATM   36  C17 UNL     1      -8.011  17.882  27.677  1.00  0.00     0.255 C 
HETATM   37  O1  UNL     1      -7.071  17.308  28.350  1.00  0.00    -0.268 OA
HETATM   38  N6  UNL     1      -7.814  19.197  27.289  1.00  0.00    -0.357 N 
ATOM     39  H6  UNL     1      -8.552  19.661  26.760  1.00  0.00     0.162 HD
BRANCH  38  40
HETATM   40  C18 UNL     1      -6.595  19.963  27.602  1.00  0.00     0.124 C 
BRANCH  40  41
HETATM   41  C19 UNL     1      -5.627  19.812  26.463  1.00  0.00     0.047 C 
BRANCH  41  42
HETATM   42  C20 UNL     1      -4.420  18.988  26.883  1.00  0.00     0.234 C 
BRANCH  42  43
HETATM   43  N7  UNL     1      -3.501  18.874  25.801  1.00  0.00    -0.075 N 
ATOM     44  H72 UNL     1      -3.438  19.757  25.295  1.00  0.00     0.277 HD
ATOM     45  H71 UNL     1      -2.546  18.805  26.152  1.00  0.00     0.277 HD
BRANCH  43  46
HETATM   46  C21 UNL     1      -3.777  17.803  24.898  1.00  0.00     0.234 C 
BRANCH  46  47
HETATM   47  C22 UNL     1      -3.588  18.237  23.449  1.00  0.00     0.047 C 
BRANCH  47  48
HETATM   48  C23 UNL     1      -4.891  18.513  22.764  1.00  0.00     0.123 C 
BRANCH  48  49
HETATM   49  N8  UNL     1      -5.177  17.586  21.709  1.00  0.00    -0.367 N 
HETATM   50  C24 UNL     1      -6.328  17.567  21.139  1.00  0.00     0.196 C 
HETATM   51  N9  UNL     1      -7.310  18.504  21.594  1.00  0.00    -0.067 NA
HETATM   52  N10 UNL     1      -6.607  16.647  20.089  1.00  0.00    -0.067 NA
ATOM     53  H8  UNL     1      -4.456  16.931  21.407  1.00  0.00     0.161 HD
ENDBRANCH  48  49
ENDBRANCH  47  48
ENDBRANCH  46  47
ENDBRANCH  43  46
ENDBRANCH  42  43
ENDBRANCH  41  42
ENDBRANCH  40  41
ENDBRANCH  38  40
ENDBRANCH   4  36
TORSDOF 20
ENDMDL
MODEL 2
REMARK VINA RESULT: -8.311515058      2.303      4.763
REMARK  20 active torsions:
REMARK  status: ('A' for Active; 'I' for Inactive)
REMARK    1  A    between atoms: C2_5  and  C3_6 
REMARK    2  A    between atoms: N4_14  and  C10_15 
REMARK    3  A    between atoms: C10_15  and  C11_16 
REMARK    4  A    between atoms: C11_16  and  C12_17 
REMARK    5  A    between atoms: C12_17  and  C13_18 
REMARK    6  A    between atoms: C13_18  and  N5_19 
REMARK    7  A    between atoms: C16_22  and  C17_23 
REMARK       I    between atoms: C17_23  and  N6_25 
REMARK    8  A    between atoms: N6_25  and  C18_27 
REMARK    9  A    between atoms: C18_27  and  C19_28 
REMARK   10  A    between atoms: C19_28  and  C20_29 
REMARK   11  A    between atoms: C20_29  and  N7_30 
REMARK   12  A    between atoms: N7_30  and  C21_33 
REMARK   13  A    between atoms: C21_33  and  C22_34 
REMARK   14  A    between atoms: C22_34  and  C23_35 
REMARK   15  A    between atoms: C23_35  and  N8_36 
REMARK   16  A    between atoms: C25_41  and  N11_42 
REMARK   17  A    between atoms: N11_42  and  C26_44 
REMARK   18  A    between atoms: C26_44  and  C27_45 
REMARK   19  A    between atoms: C27_45  and  N12_46 
REMARK   20  A    between atoms: N12_46  and  C28_48 
ROOT
HETATM    1  N5  UNL     1      -9.193  16.606  25.209  1.00  0.00    -0.302 N 
HETATM    2  C14 UNL     1      -9.587  16.042  24.063  1.00  0.00     0.111 A 
HETATM    3  C15 UNL     1      -8.939  16.292  22.884  1.00  0.00     0.039 A 
HETATM    4  C16 UNL     1      -7.822  17.156  22.818  1.00  0.00     0.078 A 
HETATM    5  C25 UNL     1      -7.467  17.701  24.018  1.00  0.00     0.132 A 
HETATM    6  N14 UNL     1      -8.164  17.405  25.163  1.00  0.00    -0.283 N 
ATOM      7  H14 UNL     1      -7.858  17.840  26.034  1.00  0.00     0.189 HD
ENDROOT
BRANCH   1   8
HETATM    8  C13 UNL     1      -9.893  16.335  26.476  1.00  0.00     0.148 C 
BRANCH   8   9
HETATM    9  C12 UNL     1     -10.480  14.967  26.459  1.00  0.00     0.023 C 
BRANCH   9  10
HETATM   10  C11 UNL     1     -11.883  14.817  26.860  1.00  0.00     0.024 C 
BRANCH  10  11
HETATM   11  C10 UNL     1     -12.438  15.531  28.019  1.00  0.00     0.152 C 
BRANCH  11  12
HETATM   12  N4  UNL     1     -12.071  15.020  29.323  1.00  0.00    -0.261 N 
HETATM   13  N1  UNL     1     -12.425  13.945  29.983  1.00  0.00    -0.235 N 
HETATM   14  C1  UNL     1     -13.317  12.882  29.579  1.00  0.00     0.200 C 
HETATM   15  N2  UNL     1     -11.855  13.938  31.185  1.00  0.00    -0.280 N 
HETATM   16  C2  UNL     1     -11.095  15.036  31.344  1.00  0.00     0.102 A 
ATOM     17  H2  UNL     1     -11.976  13.205  31.885  1.00  0.00     0.189 HD
HETATM   18  C9  UNL     1     -11.226  15.721  30.177  1.00  0.00     0.163 A 
HETATM   19  N3  UNL     1     -10.633  16.944  29.825  1.00  0.00    -0.079 NA
BRANCH  16  20
HETATM   20  C3  UNL     1     -10.332  15.352  32.543  1.00  0.00    -0.005 A 
HETATM   21  C4  UNL     1      -8.978  15.330  32.628  1.00  0.00     0.014 A 
HETATM   22  C5  UNL     1      -8.290  15.651  33.801  1.00  0.00     0.001 A 
HETATM   23  C6  UNL     1      -8.975  16.006  34.930  1.00  0.00     0.000 A 
HETATM   24  C7  UNL     1     -10.350  16.035  34.865  1.00  0.00     0.001 A 
HETATM   25  C8  UNL     1     -11.007  15.718  33.711  1.00  0.00     0.014 A 
ENDBRANCH  16  20
ENDBRANCH  11  12
ENDBRANCH  10  11
ENDBRANCH   9  10
ENDBRANCH   8   9
ENDBRANCH   1   8
BRANCH   5  26
HETATM   26  N11 UNL     1      -6.456  18.491  24.111  1.00  0.00    -0.373 N 
ATOM     27  H11 UNL     1      -6.520  19.378  23.611  1.00  0.00     0.161 HD
BRANCH  26  28
HETATM   28  C26 UNL     1      -5.254  18.252  24.842  1.00  0.00     0.141 C 
BRANCH  28  29
HETATM   29  C27 UNL     1      -4.786  19.493  25.581  1.00  0.00     0.140 C 
BRANCH  29  30
HETATM   30  N12 UNL     1      -5.875  20.288  26.091  1.00  0.00    -0.385 N 
ATOM     31  H12 UNL     1      -6.273  21.032  25.519  1.00  0.00     0.160 HD
BRANCH  30  32
HETATM   32  C28 UNL     1      -6.390  20.039  27.376  1.00  0.00     0.168 C 
HETATM   33  N13 UNL     1      -7.637  19.712  27.598  1.00  0.00    -0.396 N 
ATOM     34 2H13 UNL     1      -8.252  19.638  26.788  1.00  0.00     0.156 HD
ATOM     35 1H13 UNL     1      -8.010  19.531  28.529  1.00  0.00     0.156 HD
ENDBRANCH  30  32
ENDBRANCH  29  30
ENDBRANCH  28  29
ENDBRANCH  26  28
ENDBRANCH   5  26
BRANCH   4  36
HETATM   36  C17 UNL     1      -7.185  17.404  21.560  1.00  0.00     0.255 C 
HETATM   37  O1  UNL     1      -7.562  18.477  20.950  1.00  0.00    -0.268 OA
HETATM   38  N6  UNL     1      -6.221  16.620  20.947  1.00  0.00    -0.357 N 
ATOM     39  H6  UNL     1      -5.919  15.769  21.420  1.00  0.00     0.162 HD
BRANCH  38  40
HETATM   40  C18 UNL     1      -5.611  16.951  19.648  1.00  0.00     0.124 C 
BRANCH  40  41
HETATM   41  C19 UNL     1      -4.322  16.190  19.515  1.00  0.00     0.047 C 
BRANCH  41  42
HETATM   42  C20 UNL     1      -3.193  16.902  20.243  1.00  0.00     0.234 C 
BRANCH  42  43
HETATM   43  N7  UNL     1      -2.943  16.275  21.497  1.00  0.00    -0.075 N 
ATOM     44  H72 UNL     1      -3.216  16.890  22.262  1.00  0.00     0.277 HD
ATOM     45  H71 UNL     1      -3.597  15.507  21.647  1.00  0.00     0.277 HD
BRANCH  43  46
HETATM   46  C21 UNL     1      -1.600  15.824  21.677  1.00  0.00     0.234 C 
BRANCH  46  47
HETATM   47  C22 UNL     1      -1.229  15.765  23.155  1.00  0.00     0.047 C 
BRANCH  47  48
HETATM   48  C23 UNL     1      -1.701  16.970  23.908  1.00  0.00     0.123 C 
BRANCH  48  49
HETATM   49  N8  UNL     1      -0.832  18.099  23.762  1.00  0.00    -0.367 N 
HETATM   50  C24 UNL     1      -1.242  19.182  23.204  1.00  0.00     0.196 C 
HETATM   51  N9  UNL     1      -2.594  19.218  22.738  1.00  0.00    -0.067 NA
HETATM   52  N10 UNL     1      -0.376  20.303  23.064  1.00  0.00    -0.067 NA
ATOM     53  H8  UNL     1       0.127  18.043  24.105  1.00  0.00     0.161 HD
ENDBRANCH  48  49
ENDBRANCH  47  48
ENDBRANCH  46  47
ENDBRANCH  43  46
ENDBRANCH  42  43
ENDBRANCH  41  42
ENDBRANCH  40  41
ENDBRANCH  38  40
ENDBRANCH   4  36
TORSDOF 20
ENDMDL
MODEL 3
REMARK VINA RESULT: -8.210650329      1.981      9.997
REMARK  20 active torsions:
REMARK  status: ('A' for Active; 'I' for Inactive)
REMARK    1  A    between atoms: C2_5  and  C3_6 
REMARK    2  A    between atoms: N4_14  and  C10_15 
REMARK    3  A    between atoms: C10_15  and  C11_16 
REMARK    4  A    between atoms: C11_16  and  C12_17 
REMARK    5  A    between atoms: C12_17  and  C13_18 
REMARK    6  A    between atoms: C13_18  and  N5_19 
REMARK    7  A    between atoms: C16_22  and  C17_23 
REMARK       I    between atoms: C17_23  and  N6_25 
REMARK    8  A    between atoms: N6_25  and  C18_27 
REMARK    9  A    between atoms: C18_27  and  C19_28 
REMARK   10  A    between atoms: C19_28  and  C20_29 
REMARK   11  A    between atoms: C20_29  and  N7_30 
REMARK   12  A    between atoms: N7_30  and  C21_33 
REMARK   13  A    between atoms: C21_33  and  C22_34 
REMARK   14  A    between atoms: C22_34  and  C23_35 
REMARK   15  A    between atoms: C23_35  and  N8_36 
REMARK   16  A    between atoms: C25_41  and  N11_42 
REMARK   17  A    between atoms: N11_42  and  C26_44 
REMARK   18  A    between atoms: C26_44  and  C27_45 
REMARK   19  A    between atoms: C27_45  and  N12_46 
REMARK   20  A    between atoms: N12_46  and  C28_48 
ROOT
HETATM    1  N5  UNL     1      -5.529  18.843  26.530  1.00  0.00    -0.302 N 
HETATM    2  C14 UNL     1      -5.004  17.860  27.268  1.00  0.00     0.111 A 
HETATM    3  C15 UNL     1      -5.793  17.019  28.005  1.00  0.00     0.039 A 
HETATM    4  C16 UNL     1      -7.201  17.147  28.023  1.00  0.00     0.078 A 
HETATM    5  C25 UNL     1      -7.679  18.167  27.252  1.00  0.00     0.132 A 
HETATM    6  N14 UNL     1      -6.827  18.972  26.538  1.00  0.00    -0.283 N 
ATOM      7  H14 UNL     1      -7.235  19.721  25.978  1.00  0.00     0.189 HD
ENDROOT
BRANCH   1   8
HETATM    8  C13 UNL     1      -4.678  19.746  25.738  1.00  0.00     0.148 C 
BRANCH   8   9
HETATM    9  C12 UNL     1      -3.471  19.021  25.252  1.00  0.00     0.023 C 
BRANCH   9  10
HETATM   10  C11 UNL     1      -3.339  18.801  23.807  1.00  0.00     0.024 C 
BRANCH  10  11
HETATM   11  C10 UNL     1      -4.351  19.279  22.856  1.00  0.00     0.152 C 
BRANCH  11  12
HETATM   12  N4  UNL     1      -5.056  18.262  22.103  1.00  0.00    -0.261 N 
HETATM   13  N1  UNL     1      -4.758  17.607  21.009  1.00  0.00    -0.235 N 
HETATM   14  C1  UNL     1      -3.569  17.689  20.194  1.00  0.00     0.200 C 
HETATM   15  N2  UNL     1      -5.763  16.802  20.671  1.00  0.00    -0.280 N 
HETATM   16  C2  UNL     1      -6.767  16.915  21.559  1.00  0.00     0.102 A 
ATOM     17  H2  UNL     1      -5.770  16.188  19.856  1.00  0.00     0.189 HD
HETATM   18  C9  UNL     1      -6.330  17.833  22.462  1.00  0.00     0.163 A 
HETATM   19  N3  UNL     1      -7.003  18.313  23.597  1.00  0.00    -0.079 NA
BRANCH  16  20
HETATM   20  C3  UNL     1      -8.023  16.182  21.490  1.00  0.00    -0.005 A 
HETATM   21  C4  UNL     1      -8.381  15.180  22.332  1.00  0.00     0.014 A 
HETATM   22  C5  UNL     1      -9.604  14.512  22.231  1.00  0.00     0.001 A 
HETATM   23  C6  UNL     1     -10.502  14.854  21.258  1.00  0.00     0.000 A 
HETATM   24  C7  UNL     1     -10.158  15.869  20.394  1.00  0.00     0.001 A 
HETATM   25  C8  UNL     1      -8.959  16.512  20.506  1.00  0.00     0.014 A 
ENDBRANCH  16  20
ENDBRANCH  11  12
ENDBRANCH  10  11
ENDBRANCH   9  10
ENDBRANCH   8   9
ENDBRANCH   1   8
BRANCH   5  26
HETATM   26  N11 UNL     1      -8.943  18.387  27.159  1.00  0.00    -0.373 N 
ATOM     27  H11 UNL     1      -9.420  18.689  28.008  1.00  0.00     0.161 HD
BRANCH  26  28
HETATM   28  C26 UNL     1      -9.745  18.252  25.987  1.00  0.00     0.141 C 
BRANCH  28  29
HETATM   29  C27 UNL     1      -9.882  16.802  25.558  1.00  0.00     0.140 C 
BRANCH  29  30
HETATM   30  N12 UNL     1     -10.860  16.078  26.330  1.00  0.00    -0.385 N 
ATOM     31  H12 UNL     1     -11.621  16.580  26.786  1.00  0.00     0.160 HD
BRANCH  30  32
HETATM   32  C28 UNL     1     -10.767  14.680  26.456  1.00  0.00     0.168 C 
HETATM   33  N13 UNL     1     -10.977  14.045  27.580  1.00  0.00    -0.396 N 
ATOM     34 2H13 UNL     1     -11.219  14.607  28.396  1.00  0.00     0.156 HD
ATOM     35 1H13 UNL     1     -10.909  13.032  27.672  1.00  0.00     0.156 HD
ENDBRANCH  30  32
ENDBRANCH  29  30
ENDBRANCH  28  29
ENDBRANCH  26  28
ENDBRANCH   5  26
BRANCH   4  36
HETATM   36  C17 UNL     1      -7.988  16.258  28.824  1.00  0.00     0.255 C 
HETATM   37  O1  UNL     1      -8.328  15.151  28.252  1.00  0.00    -0.268 OA
HETATM   38  N6  UNL     1      -8.410  16.465  30.127  1.00  0.00    -0.357 N 
ATOM     39  H6  UNL     1      -8.149  17.338  30.586  1.00  0.00     0.162 HD
BRANCH  38  40
HETATM   40  C18 UNL     1      -9.217  15.493  30.884  1.00  0.00     0.124 C 
BRANCH  40  41
HETATM   41  C19 UNL     1     -10.662  15.891  30.791  1.00  0.00     0.047 C 
BRANCH  41  42
HETATM   42  C20 UNL     1     -11.405  15.543  32.071  1.00  0.00     0.234 C 
BRANCH  42  43
HETATM   43  N7  UNL     1     -11.838  14.187  32.036  1.00  0.00    -0.075 N 
ATOM     44  H72 UNL     1     -11.064  13.562  32.260  1.00  0.00     0.277 HD
ATOM     45  H71 UNL     1     -12.455  13.990  32.825  1.00  0.00     0.277 HD
BRANCH  43  46
HETATM   46  C21 UNL     1     -12.458  13.793  30.812  1.00  0.00     0.234 C 
BRANCH  46  47
HETATM   47  C22 UNL     1     -13.966  14.016  30.857  1.00  0.00     0.047 C 
BRANCH  47  48
HETATM   48  C23 UNL     1     -14.502  14.541  29.561  1.00  0.00     0.123 C 
BRANCH  48  49
HETATM   49  N8  UNL     1     -14.578  13.540  28.539  1.00  0.00    -0.367 N 
HETATM   50  C24 UNL     1     -14.369  13.836  27.307  1.00  0.00     0.196 C 
HETATM   51  N9  UNL     1     -14.057  15.197  26.994  1.00  0.00    -0.067 NA
HETATM   52  N10 UNL     1     -14.442  12.837  26.294  1.00  0.00    -0.067 NA
ATOM     53  H8  UNL     1     -14.802  12.578  28.794  1.00  0.00     0.161 HD
ENDBRANCH  48  49
ENDBRANCH  47  48
ENDBRANCH  46  47
ENDBRANCH  43  46
ENDBRANCH  42  43
ENDBRANCH  41  42
ENDBRANCH  40  41
ENDBRANCH  38  40
ENDBRANCH   4  36
TORSDOF 20
ENDMDL
MODEL 4
REMARK VINA RESULT: -8.159939931      2.826      5.122
REMARK  20 active torsions:
REMARK  status: ('A' for Active; 'I' for Inactive)
REMARK    1  A    between atoms: C2_5  and  C3_6 
REMARK    2  A    between atoms: N4_14  and  C10_15 
REMARK    3  A    between atoms: C10_15  and  C11_16 
REMARK    4  A    between atoms: C11_16  and  C12_17 
REMARK    5  A    between atoms: C12_17  and  C13_18 
REMARK    6  A    between atoms: C13_18  and  N5_19 
REMARK    7  A    between atoms: C16_22  and  C17_23 
REMARK       I    between atoms: C17_23  and  N6_25 
REMARK    8  A    between atoms: N6_25  and  C18_27 
REMARK    9  A    between atoms: C18_27  and  C19_28 
REMARK   10  A    between atoms: C19_28  and  C20_29 
REMARK   11  A    between atoms: C20_29  and  N7_30 
REMARK   12  A    between atoms: N7_30  and  C21_33 
REMARK   13  A    between atoms: C21_33  and  C22_34 
REMARK   14  A    between atoms: C22_34  and  C23_35 
REMARK   15  A    between atoms: C23_35  and  N8_36 
REMARK   16  A    between atoms: C25_41  and  N11_42 
REMARK   17  A    between atoms: N11_42  and  C26_44 
REMARK   18  A    between atoms: C26_44  and  C27_45 
REMARK   19  A    between atoms: C27_45  and  N12_46 
REMARK   20  A    between atoms: N12_46  and  C28_48 
ROOT
HETATM    1  N5  UNL     1      -9.140  16.684  25.099  1.00  0.00    -0.302 N 
HETATM    2  C14 UNL     1      -9.443  15.984  24.001  1.00  0.00     0.111 A 
HETATM    3  C15 UNL     1      -8.779  16.182  22.821  1.00  0.00     0.039 A 
HETATM    4  C16 UNL     1      -7.741  17.134  22.703  1.00  0.00     0.078 A 
HETATM    5  C25 UNL     1      -7.477  17.818  23.855  1.00  0.00     0.132 A 
HETATM    6  N14 UNL     1      -8.185  17.567  25.004  1.00  0.00    -0.283 N 
ATOM      7  H14 UNL     1      -7.948  18.105  25.837  1.00  0.00     0.189 HD
ENDROOT
BRANCH   1   8
HETATM    8  C13 UNL     1      -9.856  16.469  26.367  1.00  0.00     0.148 C 
BRANCH   8   9
HETATM    9  C12 UNL     1     -10.307  15.053  26.471  1.00  0.00     0.023 C 
BRANCH   9  10
HETATM   10  C11 UNL     1     -11.703  14.804  26.847  1.00  0.00     0.024 C 
BRANCH  10  11
HETATM   11  C10 UNL     1     -12.334  15.490  27.983  1.00  0.00     0.152 C 
BRANCH  11  12
HETATM   12  N4  UNL     1     -11.996  14.993  29.300  1.00  0.00    -0.261 N 
HETATM   13  N1  UNL     1     -12.357  13.920  29.960  1.00  0.00    -0.235 N 
HETATM   14  C1  UNL     1     -13.227  12.846  29.543  1.00  0.00     0.200 C 
HETATM   15  N2  UNL     1     -11.818  13.929  31.177  1.00  0.00    -0.280 N 
HETATM   16  C2  UNL     1     -11.073  15.036  31.346  1.00  0.00     0.102 A 
ATOM     17  H2  UNL     1     -11.951  13.201  31.879  1.00  0.00     0.189 HD
HETATM   18  C9  UNL     1     -11.181  15.710  30.170  1.00  0.00     0.163 A 
HETATM   19  N3  UNL     1     -10.590  16.936  29.823  1.00  0.00    -0.079 NA
BRANCH  16  20
HETATM   20  C3  UNL     1     -10.344  15.369  32.562  1.00  0.00    -0.005 A 
HETATM   21  C4  UNL     1      -8.993  15.390  32.673  1.00  0.00     0.014 A 
HETATM   22  C5  UNL     1      -8.339  15.726  33.862  1.00  0.00     0.001 A 
HETATM   23  C6  UNL     1      -9.058  16.053  34.978  1.00  0.00     0.000 A 
HETATM   24  C7  UNL     1     -10.431  16.039  34.886  1.00  0.00     0.001 A 
HETATM   25  C8  UNL     1     -11.054  15.708  33.717  1.00  0.00     0.014 A 
ENDBRANCH  16  20
ENDBRANCH  11  12
ENDBRANCH  10  11
ENDBRANCH   9  10
ENDBRANCH   8   9
ENDBRANCH   1   8
BRANCH   5  26
HETATM   26  N11 UNL     1      -6.544  18.702  23.898  1.00  0.00    -0.373 N 
ATOM     27  H11 UNL     1      -6.641  19.502  23.274  1.00  0.00     0.161 HD
BRANCH  26  28
HETATM   28  C26 UNL     1      -5.386  18.676  24.732  1.00  0.00     0.141 C 
BRANCH  28  29
HETATM   29  C27 UNL     1      -5.067  20.046  25.301  1.00  0.00     0.140 C 
BRANCH  29  30
HETATM   30  N12 UNL     1      -5.080  20.073  26.742  1.00  0.00    -0.385 N 
ATOM     31  H12 UNL     1      -4.301  20.490  27.250  1.00  0.00     0.160 HD
BRANCH  30  32
HETATM   32  C28 UNL     1      -6.167  19.526  27.449  1.00  0.00     0.168 C 
HETATM   33  N13 UNL     1      -7.331  20.113  27.540  1.00  0.00    -0.396 N 
ATOM     34 2H13 UNL     1      -7.440  21.012  27.070  1.00  0.00     0.156 HD
ATOM     35 1H13 UNL     1      -8.119  19.717  28.052  1.00  0.00     0.156 HD
ENDBRANCH  30  32
ENDBRANCH  29  30
ENDBRANCH  28  29
ENDBRANCH  26  28
ENDBRANCH   5  26
BRANCH   4  36
HETATM   36  C17 UNL     1      -7.086  17.323  21.443  1.00  0.00     0.255 C 
HETATM   37  O1  UNL     1      -7.480  18.345  20.761  1.00  0.00    -0.268 OA
HETATM   38  N6  UNL     1      -6.089  16.531  20.898  1.00  0.00    -0.357 N 
ATOM     39  H6  UNL     1      -5.773  15.719  21.429  1.00  0.00     0.162 HD
BRANCH  38  40
HETATM   40  C18 UNL     1      -5.461  16.798  19.593  1.00  0.00     0.124 C 
BRANCH  40  41
HETATM   41  C19 UNL     1      -4.086  16.193  19.588  1.00  0.00     0.047 C 
BRANCH  41  42
HETATM   42  C20 UNL     1      -3.125  17.022  20.427  1.00  0.00     0.234 C 
BRANCH  42  43
HETATM   43  N7  UNL     1      -2.771  16.316  21.612  1.00  0.00    -0.075 N 
ATOM     44  H72 UNL     1      -3.415  15.541  21.768  1.00  0.00     0.277 HD
ATOM     45  H71 UNL     1      -1.904  15.798  21.471  1.00  0.00     0.277 HD
BRANCH  43  46
HETATM   46  C21 UNL     1      -2.679  17.129  22.782  1.00  0.00     0.234 C 
BRANCH  46  47
HETATM   47  C22 UNL     1      -2.301  16.301  24.005  1.00  0.00     0.047 C 
BRANCH  47  48
HETATM   48  C23 UNL     1      -1.230  15.298  23.703  1.00  0.00     0.123 C 
BRANCH  48  49
HETATM   49  N8  UNL     1      -1.205  14.208  24.632  1.00  0.00    -0.367 N 
HETATM   50  C24 UNL     1      -0.556  13.131  24.371  1.00  0.00     0.196 C 
HETATM   51  N9  UNL     1       0.139  13.061  23.122  1.00  0.00    -0.067 NA
HETATM   52  N10 UNL     1      -0.531  12.051  25.298  1.00  0.00    -0.067 NA
ATOM     53  H8  UNL     1      -1.711  14.288  25.515  1.00  0.00     0.161 HD
ENDBRANCH  48  49
ENDBRANCH  47  48
ENDBRANCH  46  47
ENDBRANCH  43  46
ENDBRANCH  42  43
ENDBRANCH  41  42
ENDBRANCH  40  41
ENDBRANCH  38  40
ENDBRANCH   4  36
TORSDOF 20
ENDMDL
MODEL 5
REMARK VINA RESULT: -7.994453758      1.846     10.454
REMARK  20 active torsions:
REMARK  status: ('A' for Active; 'I' for Inactive)
REMARK    1  A    between atoms: C2_5  and  C3_6 
REMARK    2  A    between atoms: N4_14  and  C10_15 
REMARK    3  A    between atoms: C10_15  and  C11_16 
REMARK    4  A    between atoms: C11_16  and  C12_17 
REMARK    5  A    between atoms: C12_17  and  C13_18 
REMARK    6  A    between atoms: C13_18  and  N5_19 
REMARK    7  A    between atoms: C16_22  and  C17_23 
REMARK       I    between atoms: C17_23  and  N6_25 
REMARK    8  A    between atoms: N6_25  and  C18_27 
REMARK    9  A    between atoms: C18_27  and  C19_28 
REMARK   10  A    between atoms: C19_28  and  C20_29 
REMARK   11  A    between atoms: C20_29  and  N7_30 
REMARK   12  A    between atoms: N7_30  and  C21_33 
REMARK   13  A    between atoms: C21_33  and  C22_34 
REMARK   14  A    between atoms: C22_34  and  C23_35 
REMARK   15  A    between atoms: C23_35  and  N8_36 
REMARK   16  A    between atoms: C25_41  and  N11_42 
REMARK   17  A    between atoms: N11_42  and  C26_44 
REMARK   18  A    between atoms: C26_44  and  C27_45 
REMARK   19  A    between atoms: C27_45  and  N12_46 
REMARK   20  A    between atoms: N12_46  and  C28_48 
ROOT
HETATM    1  N5  UNL     1      -5.143  18.658  26.047  1.00  0.00    -0.302 N 
HETATM    2  C14 UNL     1      -4.749  18.061  27.177  1.00  0.00     0.111 A 
HETATM    3  C15 UNL     1      -5.642  17.434  28.003  1.00  0.00     0.039 A 
HETATM    4  C16 UNL     1      -7.022  17.386  27.705  1.00  0.00     0.078 A 
HETATM    5  C25 UNL     1      -7.365  18.011  26.541  1.00  0.00     0.132 A 
HETATM    6  N14 UNL     1      -6.414  18.621  25.760  1.00  0.00    -0.283 N 
ATOM      7  H14 UNL     1      -6.723  19.075  24.901  1.00  0.00     0.189 HD
ENDROOT
BRANCH   1   8
HETATM    8  C13 UNL     1      -4.180  19.332  25.160  1.00  0.00     0.148 C 
BRANCH   8   9
HETATM    9  C12 UNL     1      -3.261  18.335  24.545  1.00  0.00     0.023 C 
BRANCH   9  10
HETATM   10  C11 UNL     1      -2.763  18.606  23.192  1.00  0.00     0.024 C 
BRANCH  10  11
HETATM   11  C10 UNL     1      -3.670  18.942  22.085  1.00  0.00     0.152 C 
BRANCH  11  12
HETATM   12  N4  UNL     1      -4.513  17.870  21.599  1.00  0.00    -0.261 N 
HETATM   13  N1  UNL     1      -4.285  16.862  20.793  1.00  0.00    -0.235 N 
HETATM   14  C1  UNL     1      -3.058  16.485  20.132  1.00  0.00     0.200 C 
HETATM   15  N2  UNL     1      -5.405  16.168  20.602  1.00  0.00    -0.280 N 
HETATM   16  C2  UNL     1      -6.417  16.721  21.294  1.00  0.00     0.102 A 
ATOM     17  H2  UNL     1      -5.483  15.338  20.014  1.00  0.00     0.189 HD
HETATM   18  C9  UNL     1      -5.863  17.791  21.923  1.00  0.00     0.163 A 
HETATM   19  N3  UNL     1      -6.495  18.710  22.777  1.00  0.00    -0.079 NA
BRANCH  16  20
HETATM   20  C3  UNL     1      -7.785  16.221  21.308  1.00  0.00    -0.005 A 
HETATM   21  C4  UNL     1      -8.235  15.220  22.104  1.00  0.00     0.014 A 
HETATM   22  C5  UNL     1      -9.562  14.781  22.087  1.00  0.00     0.001 A 
HETATM   23  C6  UNL     1     -10.471  15.361  21.247  1.00  0.00     0.000 A 
HETATM   24  C7  UNL     1     -10.035  16.380  20.431  1.00  0.00     0.001 A 
HETATM   25  C8  UNL     1      -8.735  16.796  20.460  1.00  0.00     0.014 A 
ENDBRANCH  16  20
ENDBRANCH  11  12
ENDBRANCH  10  11
ENDBRANCH   9  10
ENDBRANCH   8   9
ENDBRANCH   1   8
BRANCH   5  26
HETATM   26  N11 UNL     1      -8.585  18.028  26.136  1.00  0.00    -0.373 N 
ATOM     27  H11 UNL     1      -9.219  18.666  26.616  1.00  0.00     0.161 HD
BRANCH  26  28
HETATM   28  C26 UNL     1      -9.142  17.245  25.081  1.00  0.00     0.141 C 
BRANCH  28  29
HETATM   29  C27 UNL     1     -10.186  16.268  25.592  1.00  0.00     0.140 C 
BRANCH  29  30
HETATM   30  N12 UNL     1     -10.816  16.706  26.812  1.00  0.00    -0.385 N 
ATOM     31  H12 UNL     1     -10.687  17.664  27.134  1.00  0.00     0.160 HD
BRANCH  30  32
HETATM   32  C28 UNL     1     -11.608  15.814  27.557  1.00  0.00     0.168 C 
HETATM   33  N13 UNL     1     -12.695  16.176  28.188  1.00  0.00    -0.396 N 
ATOM     34 2H13 UNL     1     -12.968  17.157  28.125  1.00  0.00     0.156 HD
ATOM     35 1H13 UNL     1     -13.270  15.530  28.728  1.00  0.00     0.156 HD
ENDBRANCH  30  32
ENDBRANCH  29  30
ENDBRANCH  28  29
ENDBRANCH  26  28
ENDBRANCH   5  26
BRANCH   4  36
HETATM   36  C17 UNL     1      -7.925  16.735  28.608  1.00  0.00     0.255 C 
HETATM   37  O1  UNL     1      -8.214  15.512  28.316  1.00  0.00    -0.268 OA
HETATM   38  N6  UNL     1      -8.504  17.281  29.741  1.00  0.00    -0.357 N 
ATOM     39  H6  UNL     1      -8.284  18.248  29.978  1.00  0.00     0.162 HD
BRANCH  38  40
HETATM   40  C18 UNL     1      -9.422  16.540  30.622  1.00  0.00     0.124 C 
BRANCH  40  41
HETATM   41  C19 UNL     1      -8.752  16.332  31.950  1.00  0.00     0.047 C 
BRANCH  41  42
HETATM   42  C20 UNL     1      -9.326  15.117  32.663  1.00  0.00     0.234 C 
BRANCH  42  43
HETATM   43  N7  UNL     1     -10.748  15.138  32.606  1.00  0.00    -0.075 N 
ATOM     44  H72 UNL     1     -11.066  15.864  31.965  1.00  0.00     0.277 HD
ATOM     45  H71 UNL     1     -11.096  14.311  32.120  1.00  0.00     0.277 HD
BRANCH  43  46
HETATM   46  C21 UNL     1     -11.391  15.277  33.873  1.00  0.00     0.234 C 
BRANCH  46  47
HETATM   47  C22 UNL     1     -12.611  14.368  33.979  1.00  0.00     0.047 C 
BRANCH  47  48
HETATM   48  C23 UNL     1     -13.513  14.486  32.789  1.00  0.00     0.123 C 
BRANCH  48  49
HETATM   49  N8  UNL     1     -13.799  13.225  32.174  1.00  0.00    -0.367 N 
HETATM   50  C24 UNL     1     -13.277  12.906  31.044  1.00  0.00     0.196 C 
HETATM   51  N9  UNL     1     -12.402  13.854  30.426  1.00  0.00    -0.067 NA
HETATM   52  N10 UNL     1     -13.560  11.649  30.438  1.00  0.00    -0.067 NA
ATOM     53  H8  UNL     1     -14.426  12.569  32.640  1.00  0.00     0.161 HD
ENDBRANCH  48  49
ENDBRANCH  47  48
ENDBRANCH  46  47
ENDBRANCH  43  46
ENDBRANCH  42  43
ENDBRANCH  41  42
ENDBRANCH  40  41
ENDBRANCH  38  40
ENDBRANCH   4  36
TORSDOF 20
ENDMDL
