MODEL 1
REMARK VINA RESULT: -8.525827838      0.000      0.000
REMARK  21 active torsions:
REMARK  status: ('A' for Active; 'I' for Inactive)
REMARK       I    between atoms: C1_4  and  N3_6 
REMARK    1  A    between atoms: N3_6  and  C2_8 
REMARK    2  A    between atoms: C2_8  and  C3_9 
REMARK    3  A    between atoms: C3_9  and  C4_10 
REMARK    4  A    between atoms: C4_10  and  C5_11 
REMARK    5  A    between atoms: C5_11  and  C6_12 
REMARK    6  A    between atoms: C5_11  and  N8_36 
REMARK    7  A    between atoms: C6_12  and  C7_13 
REMARK    8  A    between atoms: N4_16  and  C10_17 
REMARK    9  A    between atoms: C10_17  and  C11_18 
REMARK   10  A    between atoms: C11_18  and  C12_19 
REMARK   11  A    between atoms: C12_19  and  C13_20 
REMARK   12  A    between atoms: C13_20  and  C14_21 
REMARK   13  A    between atoms: C14_21  and  N5_22 
REMARK   14  A    between atoms: C18_26  and  S1_27 
REMARK   15  A    between atoms: S1_27  and  N6_28 
REMARK       I    between atoms: N8_36  and  C20_38 
REMARK   16  A    between atoms: C20_38  and  C21_40 
REMARK   17  A    between atoms: C21_40  and  N9_41 
REMARK       I    between atoms: N9_41  and  C22_43 
REMARK   18  A    between atoms: C22_43  and  C23_45 
REMARK   19  A    between atoms: C23_45  and  N10_46 
REMARK       I    between atoms: N10_46  and  C24_48 
REMARK   20  A    between atoms: C24_48  and  C25_50 
REMARK   21  A    between atoms: C25_50  and  N11_51 
ROOT
HETATM    1  C5  UNL     1      -8.193  17.699  27.604  1.00  0.00     0.090 C 
ENDROOT
BRANCH   1   2
HETATM    2  C4  UNL     1      -9.640  17.624  27.106  1.00  0.00     0.027 C 
BRANCH   2   3
HETATM    3  C3  UNL     1      -9.895  16.467  26.224  1.00  0.00     0.022 C 
BRANCH   3   4
HETATM    4  C2  UNL     1     -10.899  15.453  26.605  1.00  0.00     0.122 C 
BRANCH   4   5
HETATM    5  N3  UNL     1     -12.037  15.843  27.351  1.00  0.00    -0.365 N 
HETATM    6  C1  UNL     1     -12.895  15.032  28.124  1.00  0.00     0.181 C 
HETATM    7  N1  UNL     1     -12.892  15.103  29.406  1.00  0.00    -0.374 N 
HETATM    8  N2  UNL     1     -13.799  14.132  27.497  1.00  0.00    -0.064 NA
ATOM      9  H12 UNL     1     -13.512  14.517  29.965  1.00  0.00     0.158 HD
ATOM     10  H11 UNL     1     -12.243  15.749  29.856  1.00  0.00     0.158 HD
ATOM     11  H3  UNL     1     -12.266  16.836  27.327  1.00  0.00     0.162 HD
ENDBRANCH   4   5
ENDBRANCH   3   4
ENDBRANCH   2   3
ENDBRANCH   1   2
BRANCH   1  12
HETATM   12  C6  UNL     1      -7.722  16.361  28.091  1.00  0.00     0.083 C 
BRANCH  12  13
HETATM   13  C7  UNL     1      -8.261  16.072  29.440  1.00  0.00     0.029 A 
HETATM   14  C8  UNL     1      -9.296  15.186  29.751  1.00  0.00     0.045 A 
HETATM   15  C9  UNL     1      -9.459  15.293  31.121  1.00  0.00     0.112 A 
HETATM   16  N4  UNL     1      -8.582  16.184  31.615  1.00  0.00    -0.303 N 
HETATM   17  N7  UNL     1      -7.875  16.639  30.605  1.00  0.00    -0.303 N 
ATOM     18  H7  UNL     1      -7.131  17.331  30.689  1.00  0.00     0.186 HD
BRANCH  16  19
HETATM   19  C10 UNL     1      -8.445  16.620  33.022  1.00  0.00     0.148 C 
BRANCH  19  20
HETATM   20  C11 UNL     1      -8.166  15.410  33.888  1.00  0.00     0.022 C 
BRANCH  20  21
HETATM   21  C12 UNL     1      -9.056  15.426  35.088  1.00  0.00     0.003 C 
BRANCH  21  22
HETATM   22  C13 UNL     1     -10.292  14.593  34.791  1.00  0.00     0.020 C 
BRANCH  22  23
HETATM   23  C14 UNL     1     -11.452  15.484  34.395  1.00  0.00     0.128 C 
BRANCH  23  24
HETATM   24  N5  UNL     1     -12.537  14.556  34.041  1.00  0.00    -0.365 N 
HETATM   25  C15 UNL     1     -12.487  13.328  34.580  1.00  0.00     0.090 A 
HETATM   26  C16 UNL     1     -13.468  12.378  34.317  1.00  0.00     0.019 A 
HETATM   27  C17 UNL     1     -14.513  12.713  33.480  1.00  0.00     0.028 A 
HETATM   28  C18 UNL     1     -14.566  13.979  32.921  1.00  0.00     0.094 A 
HETATM   29  C19 UNL     1     -13.550  14.869  33.232  1.00  0.00     0.115 A 
BRANCH  28  30
HETATM   30  S1  UNL     1     -15.900  14.387  31.866  1.00  0.00     0.258 S 
HETATM   31  O1  UNL     1     -17.179  13.727  32.273  1.00  0.00    -0.201 OA
HETATM   32  O2  UNL     1     -15.555  13.993  30.473  1.00  0.00    -0.201 OA
BRANCH  30  33
HETATM   33  N6  UNL     1     -16.044  16.131  31.933  1.00  0.00    -0.324 N 
ATOM     34  H62 UNL     1     -16.137  16.698  32.776  1.00  0.00     0.169 HD
ATOM     35  H61 UNL     1     -16.016  16.449  30.964  1.00  0.00     0.169 HD
ENDBRANCH  30  33
ENDBRANCH  28  30
ENDBRANCH  23  24
ENDBRANCH  22  23
ENDBRANCH  21  22
ENDBRANCH  20  21
ENDBRANCH  19  20
ENDBRANCH  16  19
ENDBRANCH  12  13
ENDBRANCH   1  12
BRANCH   1  36
HETATM   36  N8  UNL     1      -7.328  18.049  26.485  1.00  0.00    -0.355 N 
HETATM   37  C20 UNL     1      -6.332  19.031  26.640  1.00  0.00     0.235 C 
HETATM   38  O3  UNL     1      -6.206  19.589  27.756  1.00  0.00    -0.272 OA
ATOM     39  H8  UNL     1      -7.445  17.581  25.586  1.00  0.00     0.162 HD
BRANCH  37  40
HETATM   40  C21 UNL     1      -5.442  19.405  25.494  1.00  0.00     0.225 C 
BRANCH  40  41
HETATM   41  N9  UNL     1      -5.846  18.636  24.344  1.00  0.00    -0.351 N 
HETATM   42  C22 UNL     1      -5.808  19.146  23.050  1.00  0.00     0.235 C 
HETATM   43  O4  UNL     1      -5.375  20.346  22.842  1.00  0.00    -0.272 OA
ATOM     44  H9  UNL     1      -6.173  17.680  24.484  1.00  0.00     0.163 HD
BRANCH  42  45
HETATM   45  C23 UNL     1      -6.240  18.410  21.842  1.00  0.00     0.225 C 
BRANCH  45  46
HETATM   46  N10 UNL     1      -7.221  17.396  22.075  1.00  0.00    -0.351 N 
HETATM   47  C24 UNL     1      -8.369  17.300  21.199  1.00  0.00     0.243 C 
HETATM   48  O5  UNL     1      -8.486  18.097  20.253  1.00  0.00    -0.272 OA
ATOM     49  H10 UNL     1      -7.113  16.745  22.853  1.00  0.00     0.163 HD
BRANCH  47  50
HETATM   50  C25 UNL     1      -9.393  16.247  21.443  1.00  0.00     0.332 C 
BRANCH  50  51
HETATM   51  N11 UNL     1     -10.542  16.509  20.622  1.00  0.00    -0.071 N 
ATOM     52 3H11 UNL     1     -11.366  16.751  21.173  1.00  0.00     0.274 HD
ATOM     53 2H11 UNL     1     -10.457  17.383  20.102  1.00  0.00     0.274 HD
ATOM     54 1H11 UNL     1     -10.706  15.709  20.011  1.00  0.00     0.274 HD
ENDBRANCH  50  51
ENDBRANCH  47  50
ENDBRANCH  45  46
ENDBRANCH  42  45
ENDBRANCH  40  41
ENDBRANCH  37  40
ENDBRANCH   1  36
TORSDOF 21
ENDMDL
MODEL 2
REMARK VINA RESULT: -8.512247461      2.898     10.767
REMARK  21 active torsions:
REMARK  status: ('A' for Active; 'I' for Inactive)
REMARK       I    between atoms: C1_4  and  N3_6 
REMARK    1  A    between atoms: N3_6  and  C2_8 
REMARK    2  A    between atoms: C2_8  and  C3_9 
REMARK    3  A    between atoms: C3_9  and  C4_10 
REMARK    4  A    between atoms: C4_10  and  C5_11 
REMARK    5  A    between atoms: C5_11  and  C6_12 
REMARK    6  A    between atoms: C5_11  and  N8_36 
REMARK    7  A    between atoms: C6_12  and  C7_13 
REMARK    8  A    between atoms: N4_16  and  C10_17 
REMARK    9  A    between atoms: C10_17  and  C11_18 
REMARK   10  A    between atoms: C11_18  and  C12_19 
REMARK   11  A    between atoms: C12_19  and  C13_20 
REMARK   12  A    between atoms: C13_20  and  C14_21 
REMARK   13  A    between atoms: C14_21  and  N5_22 
REMARK   14  A    between atoms: C18_26  and  S1_27 
REMARK   15  A    between atoms: S1_27  and  N6_28 
REMARK       I    between atoms: N8_36  and  C20_38 
REMARK   16  A    between atoms: C20_38  and  C21_40 
REMARK   17  A    between atoms: C21_40  and  N9_41 
REMARK       I    between atoms: N9_41  and  C22_43 
REMARK   18  A    between atoms: C22_43  and  C23_45 
REMARK   19  A    between atoms: C23_45  and  N10_46 
REMARK       I    between atoms: N10_46  and  C24_48 
REMARK   20  A    between atoms: C24_48  and  C25_50 
REMARK   21  A    between atoms: C25_50  and  N11_51 
ROOT
HETATM    1  C5  UNL     1      -9.365  15.568  28.250  1.00  0.00     0.090 C 
ENDROOT
BRANCH   1   2
HETATM    2  C4  UNL     1      -8.541  15.704  29.536  1.00  0.00     0.027 C 
BRANCH   2   3
HETATM    3  C3  UNL     1      -8.935  16.864  30.362  1.00  0.00     0.022 C 
BRANCH   3   4
HETATM    4  C2  UNL     1      -9.667  16.657  31.627  1.00  0.00     0.122 C 
BRANCH   4   5
HETATM    5  N3  UNL     1      -8.965  16.700  32.855  1.00  0.00    -0.365 N 
HETATM    6  C1  UNL     1      -9.385  16.232  34.119  1.00  0.00     0.181 C 
HETATM    7  N1  UNL     1      -8.849  15.192  34.648  1.00  0.00    -0.374 N 
HETATM    8  N2  UNL     1     -10.396  16.918  34.845  1.00  0.00    -0.064 NA
ATOM      9  H12 UNL     1      -9.153  14.854  35.562  1.00  0.00     0.158 HD
ATOM     10  H11 UNL     1      -8.124  14.700  34.127  1.00  0.00     0.158 HD
ATOM     11  H3  UNL     1      -8.037  17.122  32.823  1.00  0.00     0.162 HD
ENDBRANCH   4   5
ENDBRANCH   3   4
ENDBRANCH   2   3
ENDBRANCH   1   2
BRANCH   1  12
HETATM   12  C6  UNL     1      -8.571  14.894  27.172  1.00  0.00     0.083 C 
BRANCH  12  13
HETATM   13  C7  UNL     1      -8.841  15.513  25.854  1.00  0.00     0.029 A 
HETATM   14  C8  UNL     1      -9.676  16.605  25.602  1.00  0.00     0.045 A 
HETATM   15  C9  UNL     1      -9.632  16.780  24.230  1.00  0.00     0.112 A 
HETATM   16  N4  UNL     1      -8.823  15.857  23.679  1.00  0.00    -0.303 N 
HETATM   17  N7  UNL     1      -8.359  15.111  24.656  1.00  0.00    -0.303 N 
ATOM     18  H7  UNL     1      -7.717  14.329  24.528  1.00  0.00     0.186 HD
BRANCH  16  19
HETATM   19  C10 UNL     1      -8.527  15.669  22.242  1.00  0.00     0.148 C 
BRANCH  19  20
HETATM   20  C11 UNL     1      -9.095  16.837  21.465  1.00  0.00     0.022 C 
BRANCH  20  21
HETATM   21  C12 UNL     1      -8.077  17.349  20.497  1.00  0.00     0.003 C 
BRANCH  21  22
HETATM   22  C13 UNL     1      -6.753  17.515  21.223  1.00  0.00     0.020 C 
BRANCH  22  23
HETATM   23  C14 UNL     1      -6.812  18.692  22.176  1.00  0.00     0.128 C 
BRANCH  23  24
HETATM   24  N5  UNL     1      -5.903  18.333  23.275  1.00  0.00    -0.365 N 
HETATM   25  C15 UNL     1      -4.668  17.930  22.937  1.00  0.00     0.090 A 
HETATM   26  C16 UNL     1      -3.729  17.576  23.900  1.00  0.00     0.019 A 
HETATM   27  C17 UNL     1      -4.083  17.643  25.233  1.00  0.00     0.028 A 
HETATM   28  C18 UNL     1      -5.356  18.058  25.584  1.00  0.00     0.094 A 
HETATM   29  C19 UNL     1      -6.235  18.393  24.565  1.00  0.00     0.115 A 
BRANCH  28  30
HETATM   30  S1  UNL     1      -5.785  18.142  27.277  1.00  0.00     0.258 S 
HETATM   31  O1  UNL     1      -4.868  19.028  28.060  1.00  0.00    -0.201 OA
HETATM   32  O2  UNL     1      -5.765  16.769  27.852  1.00  0.00    -0.201 OA
BRANCH  30  33
HETATM   33  N6  UNL     1      -7.430  18.742  27.324  1.00  0.00    -0.324 N 
ATOM     34  H62 UNL     1      -8.098  18.736  26.552  1.00  0.00     0.169 HD
ATOM     35  H61 UNL     1      -7.571  19.093  28.271  1.00  0.00     0.169 HD
ENDBRANCH  30  33
ENDBRANCH  28  30
ENDBRANCH  23  24
ENDBRANCH  22  23
ENDBRANCH  21  22
ENDBRANCH  20  21
ENDBRANCH  19  20
ENDBRANCH  16  19
ENDBRANCH  12  13
ENDBRANCH   1  12
BRANCH   1  36
HETATM   36  N8  UNL     1     -10.506  14.700  28.514  1.00  0.00    -0.355 N 
HETATM   37  C20 UNL     1     -11.803  15.241  28.591  1.00  0.00     0.235 C 
HETATM   38  O3  UNL     1     -11.951  16.476  28.425  1.00  0.00    -0.272 OA
ATOM     39  H8  UNL     1     -10.364  13.698  28.643  1.00  0.00     0.162 HD
BRANCH  37  40
HETATM   40  C21 UNL     1     -12.983  14.361  28.869  1.00  0.00     0.225 C 
BRANCH  40  41
HETATM   41  N9  UNL     1     -13.368  14.551  30.246  1.00  0.00    -0.351 N 
HETATM   42  C22 UNL     1     -14.670  14.353  30.694  1.00  0.00     0.235 C 
HETATM   43  O4  UNL     1     -15.584  13.962  29.869  1.00  0.00    -0.272 OA
ATOM     44  H9  UNL     1     -12.657  14.842  30.917  1.00  0.00     0.163 HD
BRANCH  42  45
HETATM   45  C23 UNL     1     -15.121  14.564  32.086  1.00  0.00     0.225 C 
BRANCH  45  46
HETATM   46  N10 UNL     1     -14.356  13.871  33.077  1.00  0.00    -0.351 N 
HETATM   47  C24 UNL     1     -13.172  14.494  33.629  1.00  0.00     0.243 C 
HETATM   48  O5  UNL     1     -12.836  15.623  33.237  1.00  0.00    -0.272 OA
ATOM     49  H10 UNL     1     -14.644  12.945  33.394  1.00  0.00     0.163 HD
BRANCH  47  50
HETATM   50  C25 UNL     1     -12.374  13.772  34.658  1.00  0.00     0.332 C 
BRANCH  50  51
HETATM   51  N11 UNL     1     -12.392  14.525  35.881  1.00  0.00    -0.071 N 
ATOM     52 3H11 UNL     1     -11.540  14.397  36.428  1.00  0.00     0.274 HD
ATOM     53 2H11 UNL     1     -12.307  15.529  35.719  1.00  0.00     0.274 HD
ATOM     54 1H11 UNL     1     -13.231  14.287  36.408  1.00  0.00     0.274 HD
ENDBRANCH  50  51
ENDBRANCH  47  50
ENDBRANCH  45  46
ENDBRANCH  42  45
ENDBRANCH  40  41
ENDBRANCH  37  40
ENDBRANCH   1  36
TORSDOF 21
ENDMDL
MODEL 3
REMARK VINA RESULT: -8.494348815      2.773     10.122
REMARK  21 active torsions:
REMARK  status: ('A' for Active; 'I' for Inactive)
REMARK       I    between atoms: C1_4  and  N3_6 
REMARK    1  A    between atoms: N3_6  and  C2_8 
REMARK    2  A    between atoms: C2_8  and  C3_9 
REMARK    3  A    between atoms: C3_9  and  C4_10 
REMARK    4  A    between atoms: C4_10  and  C5_11 
REMARK    5  A    between atoms: C5_11  and  C6_12 
REMARK    6  A    between atoms: C5_11  and  N8_36 
REMARK    7  A    between atoms: C6_12  and  C7_13 
REMARK    8  A    between atoms: N4_16  and  C10_17 
REMARK    9  A    between atoms: C10_17  and  C11_18 
REMARK   10  A    between atoms: C11_18  and  C12_19 
REMARK   11  A    between atoms: C12_19  and  C13_20 
REMARK   12  A    between atoms: C13_20  and  C14_21 
REMARK   13  A    between atoms: C14_21  and  N5_22 
REMARK   14  A    between atoms: C18_26  and  S1_27 
REMARK   15  A    between atoms: S1_27  and  N6_28 
REMARK       I    between atoms: N8_36  and  C20_38 
REMARK   16  A    between atoms: C20_38  and  C21_40 
REMARK   17  A    between atoms: C21_40  and  N9_41 
REMARK       I    between atoms: N9_41  and  C22_43 
REMARK   18  A    between atoms: C22_43  and  C23_45 
REMARK   19  A    between atoms: C23_45  and  N10_46 
REMARK       I    between atoms: N10_46  and  C24_48 
REMARK   20  A    between atoms: C24_48  and  C25_50 
REMARK   21  A    between atoms: C25_50  and  N11_51 
ROOT
HETATM    1  C5  UNL     1      -8.691  16.906  29.264  1.00  0.00     0.090 C 
ENDROOT
BRANCH   1   2
HETATM    2  C4  UNL     1      -8.907  17.498  30.661  1.00  0.00     0.027 C 
BRANCH   2   3
HETATM    3  C3  UNL     1      -8.560  16.564  31.751  1.00  0.00     0.022 C 
BRANCH   3   4
HETATM    4  C2  UNL     1      -8.581  17.023  33.155  1.00  0.00     0.122 C 
BRANCH   4   5
HETATM    5  N3  UNL     1      -9.056  16.155  34.167  1.00  0.00    -0.365 N 
HETATM    6  C1  UNL     1     -10.150  15.265  34.112  1.00  0.00     0.181 C 
HETATM    7  N1  UNL     1      -9.966  13.995  34.078  1.00  0.00    -0.374 N 
HETATM    8  N2  UNL     1     -11.483  15.757  34.115  1.00  0.00    -0.064 NA
ATOM      9  H12 UNL     1     -10.757  13.352  34.039  1.00  0.00     0.158 HD
ATOM     10  H11 UNL     1      -9.008  13.642  34.076  1.00  0.00     0.158 HD
ATOM     11  H3  UNL     1      -8.543  16.175  35.048  1.00  0.00     0.162 HD
ENDBRANCH   4   5
ENDBRANCH   3   4
ENDBRANCH   2   3
ENDBRANCH   1   2
BRANCH   1  12
HETATM   12  C6  UNL     1      -7.242  16.609  29.024  1.00  0.00     0.083 C 
BRANCH  12  13
HETATM   13  C7  UNL     1      -6.685  17.505  27.984  1.00  0.00     0.029 A 
HETATM   14  C8  UNL     1      -6.783  18.898  27.946  1.00  0.00     0.045 A 
HETATM   15  C9  UNL     1      -6.147  19.270  26.774  1.00  0.00     0.112 A 
HETATM   16  N4  UNL     1      -5.691  18.176  26.138  1.00  0.00    -0.303 N 
HETATM   17  N7  UNL     1      -6.017  17.134  26.869  1.00  0.00    -0.303 N 
ATOM     18  H7  UNL     1      -5.794  16.168  26.626  1.00  0.00     0.186 HD
BRANCH  16  19
HETATM   19  C10 UNL     1      -4.988  18.125  24.838  1.00  0.00     0.148 C 
BRANCH  19  20
HETATM   20  C11 UNL     1      -4.879  19.528  24.280  1.00  0.00     0.022 C 
BRANCH  20  21
HETATM   21  C12 UNL     1      -5.418  19.566  22.887  1.00  0.00     0.003 C 
BRANCH  21  22
HETATM   22  C13 UNL     1      -5.743  18.148  22.449  1.00  0.00     0.020 C 
BRANCH  22  23
HETATM   23  C14 UNL     1      -6.751  18.156  21.318  1.00  0.00     0.128 C 
BRANCH  23  24
HETATM   24  N5  UNL     1      -7.912  17.420  21.841  1.00  0.00    -0.365 N 
HETATM   25  C15 UNL     1      -8.751  16.887  20.939  1.00  0.00     0.090 A 
HETATM   26  C16 UNL     1      -9.874  16.163  21.329  1.00  0.00     0.019 A 
HETATM   27  C17 UNL     1     -10.123  15.995  22.677  1.00  0.00     0.028 A 
HETATM   28  C18 UNL     1      -9.259  16.544  23.609  1.00  0.00     0.094 A 
HETATM   29  C19 UNL     1      -8.162  17.252  23.140  1.00  0.00     0.115 A 
BRANCH  28  30
HETATM   30  S1  UNL     1      -9.588  16.317  25.311  1.00  0.00     0.258 S 
HETATM   31  O1  UNL     1      -8.540  15.498  25.995  1.00  0.00    -0.201 OA
HETATM   32  O2  UNL     1     -10.915  15.660  25.465  1.00  0.00    -0.201 OA
BRANCH  30  33
HETATM   33  N6  UNL     1      -9.678  17.925  25.999  1.00  0.00    -0.324 N 
ATOM     34  H62 UNL     1      -8.910  18.591  26.081  1.00  0.00     0.169 HD
ATOM     35  H61 UNL     1     -10.647  18.047  26.293  1.00  0.00     0.169 HD
ENDBRANCH  30  33
ENDBRANCH  28  30
ENDBRANCH  23  24
ENDBRANCH  22  23
ENDBRANCH  21  22
ENDBRANCH  20  21
ENDBRANCH  19  20
ENDBRANCH  16  19
ENDBRANCH  12  13
ENDBRANCH   1  12
BRANCH   1  36
HETATM   36  N8  UNL     1      -9.385  15.627  29.184  1.00  0.00    -0.355 N 
HETATM   37  C20 UNL     1     -10.741  15.579  28.810  1.00  0.00     0.235 C 
HETATM   38  O3  UNL     1     -11.330  16.654  28.546  1.00  0.00    -0.272 OA
ATOM     39  H8  UNL     1      -8.886  14.764  29.400  1.00  0.00     0.162 HD
BRANCH  37  40
HETATM   40  C21 UNL     1     -11.467  14.271  28.732  1.00  0.00     0.225 C 
BRANCH  40  41
HETATM   41  N9  UNL     1     -12.113  14.042  30.001  1.00  0.00    -0.351 N 
HETATM   42  C22 UNL     1     -13.485  14.184  30.179  1.00  0.00     0.235 C 
HETATM   43  O4  UNL     1     -14.236  14.510  29.180  1.00  0.00    -0.272 OA
ATOM     44  H9  UNL     1     -11.541  13.765  30.798  1.00  0.00     0.163 HD
BRANCH  42  45
HETATM   45  C23 UNL     1     -14.190  13.990  31.465  1.00  0.00     0.225 C 
BRANCH  45  46
HETATM   46  N10 UNL     1     -13.356  13.584  32.553  1.00  0.00    -0.351 N 
HETATM   47  C24 UNL     1     -13.950  12.947  33.708  1.00  0.00     0.243 C 
HETATM   48  O5  UNL     1     -15.177  12.758  33.740  1.00  0.00    -0.272 OA
ATOM     49  H10 UNL     1     -12.349  13.742  32.515  1.00  0.00     0.163 HD
BRANCH  47  50
HETATM   50  C25 UNL     1     -13.082  12.527  34.843  1.00  0.00     0.332 C 
BRANCH  50  51
HETATM   51  N11 UNL     1     -13.062  13.570  35.831  1.00  0.00    -0.071 N 
ATOM     52 3H11 UNL     1     -13.624  14.376  35.556  1.00  0.00     0.274 HD
ATOM     53 2H11 UNL     1     -13.580  13.317  36.673  1.00  0.00     0.274 HD
ATOM     54 1H11 UNL     1     -12.095  13.822  36.032  1.00  0.00     0.274 HD
ENDBRANCH  50  51
ENDBRANCH  47  50
ENDBRANCH  45  46
ENDBRANCH  42  45
ENDBRANCH  40  41
ENDBRANCH  37  40
ENDBRANCH   1  36
TORSDOF 21
ENDMDL
MODEL 4
REMARK VINA RESULT: -8.455426412      2.536      4.600
REMARK  21 active torsions:
REMARK  status: ('A' for Active; 'I' for Inactive)
REMARK       I    between atoms: C1_4  and  N3_6 
REMARK    1  A    between atoms: N3_6  and  C2_8 
REMARK    2  A    between atoms: C2_8  and  C3_9 
REMARK    3  A    between atoms: C3_9  and  C4_10 
REMARK    4  A    between atoms: C4_10  and  C5_11 
REMARK    5  A    between atoms: C5_11  and  C6_12 
REMARK    6  A    between atoms: C5_11  and  N8_36 
REMARK    7  A    between atoms: C6_12  and  C7_13 
REMARK    8  A    between atoms: N4_16  and  C10_17 
REMARK    9  A    between atoms: C10_17  and  C11_18 
REMARK   10  A    between atoms: C11_18  and  C12_19 
REMARK   11  A    between atoms: C12_19  and  C13_20 
REMARK   12  A    between atoms: C13_20  and  C14_21 
REMARK   13  A    between atoms: C14_21  and  N5_22 
REMARK   14  A    between atoms: C18_26  and  S1_27 
REMARK   15  A    between atoms: S1_27  and  N6_28 
REMARK       I    between atoms: N8_36  and  C20_38 
REMARK   16  A    between atoms: C20_38  and  C21_40 
REMARK   17  A    between atoms: C21_40  and  N9_41 
REMARK       I    between atoms: N9_41  and  C22_43 
REMARK   18  A    between atoms: C22_43  and  C23_45 
REMARK   19  A    between atoms: C23_45  and  N10_46 
REMARK       I    between atoms: N10_46  and  C24_48 
REMARK   20  A    between atoms: C24_48  and  C25_50 
REMARK   21  A    between atoms: C25_50  and  N11_51 
ROOT
HETATM    1  C5  UNL     1      -8.981  16.981  29.677  1.00  0.00     0.090 C 
ENDROOT
BRANCH   1   2
HETATM    2  C4  UNL     1      -8.822  17.293  31.169  1.00  0.00     0.027 C 
BRANCH   2   3
HETATM    3  C3  UNL     1      -8.085  16.248  31.909  1.00  0.00     0.022 C 
BRANCH   3   4
HETATM    4  C2  UNL     1      -8.695  15.607  33.091  1.00  0.00     0.122 C 
BRANCH   4   5
HETATM    5  N3  UNL     1      -9.912  14.899  32.952  1.00  0.00    -0.365 N 
HETATM    6  C1  UNL     1     -11.225  15.365  33.178  1.00  0.00     0.181 C 
HETATM    7  N1  UNL     1     -12.033  15.562  32.200  1.00  0.00    -0.374 N 
HETATM    8  N2  UNL     1     -11.689  15.606  34.500  1.00  0.00    -0.064 NA
ATOM      9  H12 UNL     1     -12.982  15.899  32.364  1.00  0.00     0.158 HD
ATOM     10  H11 UNL     1     -11.699  15.389  31.252  1.00  0.00     0.158 HD
ATOM     11  H3  UNL     1      -9.831  13.929  32.649  1.00  0.00     0.162 HD
ENDBRANCH   4   5
ENDBRANCH   3   4
ENDBRANCH   2   3
ENDBRANCH   1   2
BRANCH   1  12
HETATM   12  C6  UNL     1     -10.393  17.210  29.228  1.00  0.00     0.083 C 
BRANCH  12  13
HETATM   13  C7  UNL     1     -11.001  15.952  28.737  1.00  0.00     0.029 A 
HETATM   14  C8  UNL     1     -10.340  14.905  28.089  1.00  0.00     0.045 A 
HETATM   15  C9  UNL     1     -11.330  13.983  27.795  1.00  0.00     0.112 A 
HETATM   16  N4  UNL     1     -12.517  14.437  28.235  1.00  0.00    -0.303 N 
HETATM   17  N7  UNL     1     -12.307  15.607  28.793  1.00  0.00    -0.303 N 
ATOM     18  H7  UNL     1     -13.036  16.182  29.216  1.00  0.00     0.186 HD
BRANCH  16  19
HETATM   19  C10 UNL     1     -13.834  13.779  28.092  1.00  0.00     0.148 C 
BRANCH  19  20
HETATM   20  C11 UNL     1     -14.385  13.473  29.469  1.00  0.00     0.022 C 
BRANCH  20  21
HETATM   21  C12 UNL     1     -15.459  14.451  29.818  1.00  0.00     0.003 C 
BRANCH  21  22
HETATM   22  C13 UNL     1     -16.172  13.969  31.070  1.00  0.00     0.020 C 
BRANCH  22  23
HETATM   23  C14 UNL     1     -15.365  14.309  32.308  1.00  0.00     0.128 C 
BRANCH  23  24
HETATM   24  N5  UNL     1     -15.106  13.014  32.956  1.00  0.00    -0.365 N 
HETATM   25  C15 UNL     1     -15.916  11.996  32.626  1.00  0.00     0.090 A 
HETATM   26  C16 UNL     1     -15.751  10.728  33.176  1.00  0.00     0.019 A 
HETATM   27  C17 UNL     1     -14.729  10.522  34.081  1.00  0.00     0.028 A 
HETATM   28  C18 UNL     1     -13.893  11.572  34.424  1.00  0.00     0.094 A 
HETATM   29  C19 UNL     1     -14.123  12.805  33.833  1.00  0.00     0.115 A 
BRANCH  28  30
HETATM   30  S1  UNL     1     -12.602  11.291  35.568  1.00  0.00     0.258 S 
HETATM   31  O1  UNL     1     -11.989   9.934  35.424  1.00  0.00    -0.201 OA
HETATM   32  O2  UNL     1     -13.132  11.456  36.949  1.00  0.00    -0.201 OA
BRANCH  30  33
HETATM   33  N6  UNL     1     -11.419  12.548  35.271  1.00  0.00    -0.324 N 
ATOM     34  H62 UNL     1     -11.568  13.553  35.369  1.00  0.00     0.169 HD
ATOM     35  H61 UNL     1     -10.567  12.066  34.986  1.00  0.00     0.169 HD
ENDBRANCH  30  33
ENDBRANCH  28  30
ENDBRANCH  23  24
ENDBRANCH  22  23
ENDBRANCH  21  22
ENDBRANCH  20  21
ENDBRANCH  19  20
ENDBRANCH  16  19
ENDBRANCH  12  13
ENDBRANCH   1  12
BRANCH   1  36
HETATM   36  N8  UNL     1      -8.159  17.910  28.913  1.00  0.00    -0.355 N 
HETATM   37  C20 UNL     1      -7.140  17.426  28.072  1.00  0.00     0.235 C 
HETATM   38  O3  UNL     1      -6.962  16.186  27.994  1.00  0.00    -0.272 OA
ATOM     39  H8  UNL     1      -8.321  18.914  28.989  1.00  0.00     0.162 HD
BRANCH  37  40
HETATM   40  C21 UNL     1      -6.282  18.371  27.287  1.00  0.00     0.225 C 
BRANCH  40  41
HETATM   41  N9  UNL     1      -6.781  18.411  25.935  1.00  0.00    -0.351 N 
HETATM   42  C22 UNL     1      -6.107  17.822  24.870  1.00  0.00     0.235 C 
HETATM   43  O4  UNL     1      -5.000  17.189  25.077  1.00  0.00    -0.272 OA
ATOM     44  H9  UNL     1      -7.663  18.889  25.753  1.00  0.00     0.163 HD
BRANCH  42  45
HETATM   45  C23 UNL     1      -6.560  17.862  23.463  1.00  0.00     0.225 C 
BRANCH  45  46
HETATM   46  N10 UNL     1      -7.567  16.903  23.128  1.00  0.00    -0.351 N 
HETATM   47  C24 UNL     1      -8.369  17.096  21.940  1.00  0.00     0.243 C 
HETATM   48  O5  UNL     1      -8.173  18.091  21.223  1.00  0.00    -0.272 OA
ATOM     49  H10 UNL     1      -7.718  16.087  23.723  1.00  0.00     0.163 HD
BRANCH  47  50
HETATM   50  C25 UNL     1      -9.420  16.099  21.593  1.00  0.00     0.332 C 
BRANCH  50  51
HETATM   51  N11 UNL     1     -10.288  16.659  20.595  1.00  0.00    -0.071 N 
ATOM     52 3H11 UNL     1     -10.602  15.962  19.918  1.00  0.00     0.274 HD
ATOM     53 2H11 UNL     1     -11.202  16.912  20.972  1.00  0.00     0.274 HD
ATOM     54 1H11 UNL     1      -9.821  17.448  20.150  1.00  0.00     0.274 HD
ENDBRANCH  50  51
ENDBRANCH  47  50
ENDBRANCH  45  46
ENDBRANCH  42  45
ENDBRANCH  40  41
ENDBRANCH  37  40
ENDBRANCH   1  36
TORSDOF 21
ENDMDL
MODEL 5
REMARK VINA RESULT: -8.339254675      2.303      4.520
REMARK  21 active torsions:
REMARK  status: ('A' for Active; 'I' for Inactive)
REMARK       I    between atoms: C1_4  and  N3_6 
REMARK    1  A    between atoms: N3_6  and  C2_8 
REMARK    2  A    between atoms: C2_8  and  C3_9 
REMARK    3  A    between atoms: C3_9  and  C4_10 
REMARK    4  A    between atoms: C4_10  and  C5_11 
REMARK    5  A    between atoms: C5_11  and  C6_12 
REMARK    6  A    between atoms: C5_11  and  N8_36 
REMARK    7  A    between atoms: C6_12  and  C7_13 
REMARK    8  A    between atoms: N4_16  and  C10_17 
REMARK    9  A    between atoms: C10_17  and  C11_18 
REMARK   10  A    between atoms: C11_18  and  C12_19 
REMARK   11  A    between atoms: C12_19  and  C13_20 
REMARK   12  A    between atoms: C13_20  and  C14_21 
REMARK   13  A    between atoms: C14_21  and  N5_22 
REMARK   14  A    between atoms: C18_26  and  S1_27 
REMARK   15  A    between atoms: S1_27  and  N6_28 
REMARK       I    between atoms: N8_36  and  C20_38 
REMARK   16  A    between atoms: C20_38  and  C21_40 
REMARK   17  A    between atoms: C21_40  and  N9_41 
REMARK       I    between atoms: N9_41  and  C22_43 
REMARK   18  A    between atoms: C22_43  and  C23_45 
REMARK   19  A    between atoms: C23_45  and  N10_46 
REMARK       I    between atoms: N10_46  and  C24_48 
REMARK   20  A    between atoms: C24_48  and  C25_50 
REMARK   21  A    between atoms: C25_50  and  N11_51 
ROOT
HETATM    1  C5  UNL     1      -7.629  16.720  28.744  1.00  0.00     0.090 C 
ENDROOT
BRANCH   1   2
HETATM    2  C4  UNL     1      -6.392  17.410  28.159  1.00  0.00     0.027 C 
BRANCH   2   3
HETATM    3  C3  UNL     1      -6.698  18.691  27.490  1.00  0.00     0.022 C 
BRANCH   3   4
HETATM    4  C2  UNL     1      -5.610  19.634  27.163  1.00  0.00     0.122 C 
BRANCH   4   5
HETATM    5  N3  UNL     1      -5.031  19.611  25.871  1.00  0.00    -0.365 N 
HETATM    6  C1  UNL     1      -5.502  18.955  24.714  1.00  0.00     0.181 C 
HETATM    7  N1  UNL     1      -5.982  19.622  23.727  1.00  0.00    -0.374 N 
HETATM    8  N2  UNL     1      -5.435  17.539  24.607  1.00  0.00    -0.064 NA
ATOM      9  H12 UNL     1      -6.322  19.148  22.891  1.00  0.00     0.158 HD
ATOM     10  H11 UNL     1      -6.030  20.638  23.805  1.00  0.00     0.158 HD
ATOM     11  H3  UNL     1      -4.162  20.135  25.763  1.00  0.00     0.162 HD
ENDBRANCH   4   5
ENDBRANCH   3   4
ENDBRANCH   2   3
ENDBRANCH   1   2
BRANCH   1  12
HETATM   12  C6  UNL     1      -8.208  17.521  29.871  1.00  0.00     0.083 C 
BRANCH  12  13
HETATM   13  C7  UNL     1      -8.726  16.633  30.937  1.00  0.00     0.029 A 
HETATM   14  C8  UNL     1      -9.050  15.279  30.809  1.00  0.00     0.045 A 
HETATM   15  C9  UNL     1      -9.524  14.905  32.055  1.00  0.00     0.112 A 
HETATM   16  N4  UNL     1      -9.491  15.960  32.889  1.00  0.00    -0.303 N 
HETATM   17  N7  UNL     1      -9.014  16.979  32.212  1.00  0.00    -0.303 N 
ATOM     18  H7  UNL     1      -8.878  17.913  32.599  1.00  0.00     0.186 HD
BRANCH  16  19
HETATM   19  C10 UNL     1      -9.940  16.000  34.298  1.00  0.00     0.148 C 
BRANCH  19  20
HETATM   20  C11 UNL     1     -10.470  14.637  34.687  1.00  0.00     0.022 C 
BRANCH  20  21
HETATM   21  C12 UNL     1     -11.909  14.741  35.077  1.00  0.00     0.003 C 
BRANCH  21  22
HETATM   22  C13 UNL     1     -12.746  14.911  33.820  1.00  0.00     0.020 C 
BRANCH  22  23
HETATM   23  C14 UNL     1     -13.542  13.653  33.537  1.00  0.00     0.128 C 
BRANCH  23  24
HETATM   24  N5  UNL     1     -14.156  13.884  32.220  1.00  0.00    -0.365 N 
HETATM   25  C15 UNL     1     -15.493  14.002  32.184  1.00  0.00     0.090 A 
HETATM   26  C16 UNL     1     -16.171  14.231  30.991  1.00  0.00     0.019 A 
HETATM   27  C17 UNL     1     -15.445  14.338  29.822  1.00  0.00     0.028 A 
HETATM   28  C18 UNL     1     -14.066  14.216  29.856  1.00  0.00     0.094 A 
HETATM   29  C19 UNL     1     -13.464  13.987  31.085  1.00  0.00     0.115 A 
BRANCH  28  30
HETATM   30  S1  UNL     1     -13.163  14.358  28.366  1.00  0.00     0.258 S 
HETATM   31  O1  UNL     1     -13.780  13.587  27.242  1.00  0.00    -0.201 OA
HETATM   32  O2  UNL     1     -11.771  13.881  28.594  1.00  0.00    -0.201 OA
BRANCH  30  33
HETATM   33  N6  UNL     1     -13.113  16.070  28.000  1.00  0.00    -0.324 N 
ATOM     34  H62 UNL     1     -13.611  16.809  28.495  1.00  0.00     0.169 HD
ATOM     35  H61 UNL     1     -12.488  16.164  27.199  1.00  0.00     0.169 HD
ENDBRANCH  30  33
ENDBRANCH  28  30
ENDBRANCH  23  24
ENDBRANCH  22  23
ENDBRANCH  21  22
ENDBRANCH  20  21
ENDBRANCH  19  20
ENDBRANCH  16  19
ENDBRANCH  12  13
ENDBRANCH   1  12
BRANCH   1  36
HETATM   36  N8  UNL     1      -8.662  16.661  27.718  1.00  0.00    -0.355 N 
HETATM   37  C20 UNL     1      -8.942  15.447  27.064  1.00  0.00     0.235 C 
HETATM   38  O3  UNL     1      -8.288  14.426  27.386  1.00  0.00    -0.272 OA
ATOM     39  H8  UNL     1      -9.184  17.503  27.473  1.00  0.00     0.162 HD
BRANCH  37  40
HETATM   40  C21 UNL     1      -9.996  15.375  26.002  1.00  0.00     0.225 C 
BRANCH  40  41
HETATM   41  N9  UNL     1      -9.704  16.383  25.014  1.00  0.00    -0.351 N 
HETATM   42  C22 UNL     1      -8.844  16.157  23.944  1.00  0.00     0.235 C 
HETATM   43  O4  UNL     1      -8.289  14.999  23.795  1.00  0.00    -0.272 OA
ATOM     44  H9  UNL     1     -10.146  17.298  25.102  1.00  0.00     0.163 HD
BRANCH  42  45
HETATM   45  C23 UNL     1      -8.489  17.166  22.923  1.00  0.00     0.225 C 
BRANCH  45  46
HETATM   46  N10 UNL     1      -7.404  16.799  22.066  1.00  0.00    -0.351 N 
HETATM   47  C24 UNL     1      -7.392  17.257  20.693  1.00  0.00     0.243 C 
HETATM   48  O5  UNL     1      -8.323  17.965  20.276  1.00  0.00    -0.272 OA
ATOM     49  H10 UNL     1      -6.643  16.219  22.420  1.00  0.00     0.163 HD
BRANCH  47  50
HETATM   50  C25 UNL     1      -6.264  16.872  19.801  1.00  0.00     0.332 C 
BRANCH  50  51
HETATM   51  N11 UNL     1      -6.007  17.943  18.879  1.00  0.00    -0.071 N 
ATOM     52 3H11 UNL     1      -6.836  18.511  18.702  1.00  0.00     0.274 HD
ATOM     53 2H11 UNL     1      -5.419  18.672  19.284  1.00  0.00     0.274 HD
ATOM     54 1H11 UNL     1      -5.611  17.558  18.021  1.00  0.00     0.274 HD
ENDBRANCH  50  51
ENDBRANCH  47  50
ENDBRANCH  45  46
ENDBRANCH  42  45
ENDBRANCH  40  41
ENDBRANCH  37  40
ENDBRANCH   1  36
TORSDOF 21
ENDMDL
