MODEL 1
REMARK VINA RESULT: -8.170749468      0.000      0.000
REMARK  25 active torsions:
REMARK  status: ('A' for Active; 'I' for Inactive)
REMARK    1  A    between atoms: C2_2  and  C3_3 
REMARK    2  A    between atoms: C3_3  and  N1_4 
REMARK       I    between atoms: N1_4  and  C4_6 
REMARK    3  A    between atoms: C4_6  and  C5_8 
REMARK       I    between atoms: C5_8  and  N2_10 
REMARK    4  A    between atoms: N2_10  and  C6_12 
REMARK    5  A    between atoms: C6_12  and  C7_13 
REMARK    6  A    between atoms: C7_13  and  C8_14 
REMARK    7  A    between atoms: C8_14  and  N3_15 
REMARK    8  A    between atoms: N3_15  and  C9_17 
REMARK    9  A    between atoms: C9_17  and  O3_18 
REMARK   10  A    between atoms: C9_17  and  N4_20 
REMARK   11  A    between atoms: N4_20  and  C10_22 
REMARK   12  A    between atoms: C10_22  and  O4_23 
REMARK   13  A    between atoms: C10_22  and  C11_25 
REMARK   14  A    between atoms: C11_25  and  C12_26 
REMARK   15  A    between atoms: C12_26  and  C13_27 
REMARK   16  A    between atoms: C13_27  and  C14_28 
REMARK   17  A    between atoms: C14_28  and  N5_29 
REMARK       I    between atoms: N5_29  and  C15_31 
REMARK   18  A    between atoms: C15_31  and  C16_33 
REMARK   19  A    between atoms: C16_33  and  C17_34 
REMARK   20  A    between atoms: C17_34  and  C18_35 
REMARK   21  A    between atoms: N6_38  and  C21_39 
REMARK   22  A    between atoms: C21_39  and  C22_40 
REMARK   23  A    between atoms: C22_40  and  C23_41 
REMARK   24  A    between atoms: C23_41  and  N7_42 
REMARK   25  A    between atoms: C25_46  and  N9_47 
ROOT
HETATM    1  C13 UNL     1      -8.983  14.829  27.963  1.00  0.00     0.047 C 
ENDROOT
BRANCH   1   2
HETATM    2  C12 UNL     1      -9.229  15.151  26.567  1.00  0.00    -0.021 C 
BRANCH   2   3
HETATM    3  C11 UNL     1      -9.610  16.402  25.949  1.00  0.00     0.052 C 
BRANCH   3   4
HETATM    4  C10 UNL     1      -9.181  17.711  26.385  1.00  0.00     0.142 C 
BRANCH   4   5
HETATM    5  N4  UNL     1      -7.891  18.245  26.375  1.00  0.00    -0.303 N 
ATOM      6  H4  UNL     1      -7.479  18.308  25.444  1.00  0.00     0.171 HD
BRANCH   5   7
HETATM    7  C9  UNL     1      -7.072  18.699  27.374  1.00  0.00     0.218 C 
BRANCH   7   8
HETATM    8  N3  UNL     1      -5.804  19.284  27.446  1.00  0.00    -0.356 N 
ATOM      9  H3  UNL     1      -5.672  20.278  27.255  1.00  0.00     0.163 HD
BRANCH   8  10
HETATM   10  C8  UNL     1      -4.664  18.420  27.809  1.00  0.00     0.125 C 
BRANCH  10  11
HETATM   11  C7  UNL     1      -4.640  17.195  26.965  1.00  0.00     0.039 C 
BRANCH  11  12
HETATM   12  C6  UNL     1      -4.039  17.374  25.610  1.00  0.00     0.125 C 
BRANCH  12  13
HETATM   13  N2  UNL     1      -4.990  17.235  24.543  1.00  0.00    -0.353 N 
HETATM   14  C5  UNL     1      -5.720  18.280  23.939  1.00  0.00     0.309 C 
HETATM   15  O2  UNL     1      -5.560  19.450  24.344  1.00  0.00    -0.262 OA
ATOM     16  H2  UNL     1      -5.152  16.292  24.188  1.00  0.00     0.162 HD
BRANCH  14  17
HETATM   17  C4  UNL     1      -6.675  18.058  22.852  1.00  0.00     0.309 C 
HETATM   18  N1  UNL     1      -7.174  16.760  22.601  1.00  0.00    -0.349 N 
ATOM     19  H1  UNL     1      -6.864  15.980  23.180  1.00  0.00     0.163 HD
HETATM   20  O1  UNL     1      -7.039  19.049  22.135  1.00  0.00    -0.262 OA
BRANCH  18  21
HETATM   21  C3  UNL     1      -8.121  16.523  21.534  1.00  0.00     0.149 C 
BRANCH  21  22
HETATM   22  C2  UNL     1      -9.134  15.547  22.010  1.00  0.00    -0.018 C 
HETATM   23  C1  UNL     1     -10.369  15.948  22.145  1.00  0.00     0.008 C 
ENDBRANCH  21  22
ENDBRANCH  18  21
ENDBRANCH  14  17
ENDBRANCH  12  13
ENDBRANCH  11  12
ENDBRANCH  10  11
ENDBRANCH   8  10
ENDBRANCH   7   8
BRANCH   7  24
HETATM   24  O3  UNL     1      -7.603  18.542  28.590  1.00  0.00    -0.332 OA
ATOM     25  H3  UNL     1      -8.009  19.345  28.894  1.00  0.00     0.220 HD
ENDBRANCH   7  24
ENDBRANCH   5   7
ENDBRANCH   4   5
BRANCH   4  26
HETATM   26  O4  UNL     1     -10.053  18.564  26.865  1.00  0.00    -0.346 OA
ATOM     27  H4  UNL     1     -10.072  19.367  26.358  1.00  0.00     0.219 HD
ENDBRANCH   4  26
ENDBRANCH   3   4
ENDBRANCH   2   3
ENDBRANCH   1   2
BRANCH   1  28
HETATM   28  C14 UNL     1      -9.742  15.483  29.061  1.00  0.00     0.126 C 
BRANCH  28  29
HETATM   29  N5  UNL     1      -9.076  15.385  30.362  1.00  0.00    -0.361 N 
HETATM   30  C15 UNL     1      -8.740  16.469  31.168  1.00  0.00     0.217 C 
HETATM   31  O5  UNL     1      -8.974  17.661  30.866  1.00  0.00    -0.274 OA
ATOM     32  H5  UNL     1      -8.842  14.453  30.704  1.00  0.00     0.162 HD
BRANCH  30  33
HETATM   33  C16 UNL     1      -8.053  16.248  32.477  1.00  0.00     0.107 C 
BRANCH  33  34
HETATM   34  C17 UNL     1      -8.883  16.747  33.643  1.00  0.00     0.048 C 
BRANCH  34  35
HETATM   35  C18 UNL     1      -9.972  15.774  33.929  1.00  0.00    -0.055 A 
HETATM   36  C19 UNL     1      -9.773  14.735  34.821  1.00  0.00     0.024 A 
HETATM   37  C20 UNL     1     -10.766  13.831  35.109  1.00  0.00     0.091 A 
HETATM   38  N6  UNL     1     -12.013  13.903  34.527  1.00  0.00    -0.366 N 
HETATM   39  C26 UNL     1     -12.202  14.902  33.672  1.00  0.00     0.091 A 
HETATM   40  C27 UNL     1     -11.219  15.848  33.348  1.00  0.00     0.024 A 
BRANCH  38  41
HETATM   41  C21 UNL     1     -13.015  12.928  34.906  1.00  0.00     0.129 C 
BRANCH  41  42
HETATM   42  C22 UNL     1     -13.462  12.001  33.854  1.00  0.00     0.042 C 
BRANCH  42  43
HETATM   43  C23 UNL     1     -14.806  12.096  33.259  1.00  0.00     0.152 C 
BRANCH  43  44
HETATM   44  N7  UNL     1     -15.125  13.296  32.543  1.00  0.00    -0.273 N 
HETATM   45  C24 UNL     1     -14.757  13.433  31.230  1.00  0.00     0.218 A 
HETATM   46  N8  UNL     1     -15.145  14.636  30.809  1.00  0.00    -0.185 N 
HETATM   47  C25 UNL     1     -15.756  15.286  31.814  1.00  0.00     0.691 A 
ATOM     48  H8  UNL     1     -15.001  15.007  29.869  1.00  0.00     0.185 HD
HETATM   49  N10 UNL     1     -15.716  14.422  32.857  1.00  0.00    -0.129 N 
ATOM     50  H10 UNL     1     -16.102  14.625  33.780  1.00  0.00     0.206 HD
BRANCH  47  51
HETATM   51  N9  UNL     1     -16.258  16.462  31.801  1.00  0.00    -0.233 N 
ATOM     52  H92 UNL     1     -16.340  17.090  31.001  1.00  0.00     0.174 HD
ATOM     53  H91 UNL     1     -16.670  16.977  32.579  1.00  0.00     0.174 HD
ENDBRANCH  47  51
ENDBRANCH  43  44
ENDBRANCH  42  43
ENDBRANCH  41  42
ENDBRANCH  38  41
ENDBRANCH  34  35
ENDBRANCH  33  34
ENDBRANCH  30  33
ENDBRANCH  28  29
ENDBRANCH   1  28
TORSDOF 25
ENDMDL
MODEL 2
REMARK VINA RESULT: -8.012430794      2.261     10.351
REMARK  25 active torsions:
REMARK  status: ('A' for Active; 'I' for Inactive)
REMARK    1  A    between atoms: C2_2  and  C3_3 
REMARK    2  A    between atoms: C3_3  and  N1_4 
REMARK       I    between atoms: N1_4  and  C4_6 
REMARK    3  A    between atoms: C4_6  and  C5_8 
REMARK       I    between atoms: C5_8  and  N2_10 
REMARK    4  A    between atoms: N2_10  and  C6_12 
REMARK    5  A    between atoms: C6_12  and  C7_13 
REMARK    6  A    between atoms: C7_13  and  C8_14 
REMARK    7  A    between atoms: C8_14  and  N3_15 
REMARK    8  A    between atoms: N3_15  and  C9_17 
REMARK    9  A    between atoms: C9_17  and  O3_18 
REMARK   10  A    between atoms: C9_17  and  N4_20 
REMARK   11  A    between atoms: N4_20  and  C10_22 
REMARK   12  A    between atoms: C10_22  and  O4_23 
REMARK   13  A    between atoms: C10_22  and  C11_25 
REMARK   14  A    between atoms: C11_25  and  C12_26 
REMARK   15  A    between atoms: C12_26  and  C13_27 
REMARK   16  A    between atoms: C13_27  and  C14_28 
REMARK   17  A    between atoms: C14_28  and  N5_29 
REMARK       I    between atoms: N5_29  and  C15_31 
REMARK   18  A    between atoms: C15_31  and  C16_33 
REMARK   19  A    between atoms: C16_33  and  C17_34 
REMARK   20  A    between atoms: C17_34  and  C18_35 
REMARK   21  A    between atoms: N6_38  and  C21_39 
REMARK   22  A    between atoms: C21_39  and  C22_40 
REMARK   23  A    between atoms: C22_40  and  C23_41 
REMARK   24  A    between atoms: C23_41  and  N7_42 
REMARK   25  A    between atoms: C25_46  and  N9_47 
ROOT
HETATM    1  C13 UNL     1      -9.785  14.530  27.357  1.00  0.00     0.047 C 
ENDROOT
BRANCH   1   2
HETATM    2  C12 UNL     1     -11.103  15.139  27.283  1.00  0.00    -0.021 C 
BRANCH   2   3
HETATM    3  C11 UNL     1     -11.662  16.251  28.019  1.00  0.00     0.052 C 
BRANCH   3   4
HETATM    4  C10 UNL     1     -10.914  17.386  28.508  1.00  0.00     0.142 C 
BRANCH   4   5
HETATM    5  N4  UNL     1     -10.477  17.636  29.810  1.00  0.00    -0.303 N 
ATOM      6  H4  UNL     1     -10.498  18.623  30.069  1.00  0.00     0.171 HD
BRANCH   5   7
HETATM    7  C9  UNL     1     -10.026  16.813  30.807  1.00  0.00     0.218 C 
BRANCH   7   8
HETATM    8  N3  UNL     1      -8.782  16.490  31.358  1.00  0.00    -0.356 N 
ATOM      9  H3  UNL     1      -7.998  17.142  31.307  1.00  0.00     0.163 HD
BRANCH   8  10
HETATM   10  C8  UNL     1      -8.638  15.177  32.016  1.00  0.00     0.125 C 
BRANCH  10  11
HETATM   11  C7  UNL     1      -8.048  15.326  33.373  1.00  0.00     0.039 C 
BRANCH  11  12
HETATM   12  C6  UNL     1      -8.993  15.074  34.503  1.00  0.00     0.125 C 
BRANCH  12  13
HETATM   13  N2  UNL     1     -10.257  14.541  34.080  1.00  0.00    -0.353 N 
HETATM   14  C5  UNL     1     -11.526  15.087  34.364  1.00  0.00     0.309 C 
HETATM   15  O2  UNL     1     -11.604  16.127  35.051  1.00  0.00    -0.262 OA
ATOM     16  H2  UNL     1     -10.235  13.687  33.521  1.00  0.00     0.162 HD
BRANCH  14  17
HETATM   17  C4  UNL     1     -12.774  14.482  33.896  1.00  0.00     0.309 C 
HETATM   18  N1  UNL     1     -13.483  15.060  32.818  1.00  0.00    -0.349 N 
ATOM     19  H1  UNL     1     -13.120  15.902  32.372  1.00  0.00     0.163 HD
HETATM   20  O1  UNL     1     -13.211  13.433  34.479  1.00  0.00    -0.262 OA
BRANCH  18  21
HETATM   21  C3  UNL     1     -14.715  14.473  32.340  1.00  0.00     0.149 C 
BRANCH  21  22
HETATM   22  C2  UNL     1     -14.534  14.091  30.917  1.00  0.00    -0.018 C 
HETATM   23  C1  UNL     1     -15.440  14.463  30.053  1.00  0.00     0.008 C 
ENDBRANCH  21  22
ENDBRANCH  18  21
ENDBRANCH  14  17
ENDBRANCH  12  13
ENDBRANCH  11  12
ENDBRANCH  10  11
ENDBRANCH   8  10
ENDBRANCH   7   8
BRANCH   7  24
HETATM   24  O3  UNL     1     -11.011  16.139  31.407  1.00  0.00    -0.332 OA
ATOM     25  H3  UNL     1     -11.849  16.567  31.278  1.00  0.00     0.220 HD
ENDBRANCH   7  24
ENDBRANCH   5   7
ENDBRANCH   4   5
BRANCH   4  26
HETATM   26  O4  UNL     1     -10.565  18.348  27.688  1.00  0.00    -0.346 OA
ATOM     27  H4  UNL     1     -11.158  19.087  27.744  1.00  0.00     0.219 HD
ENDBRANCH   4  26
ENDBRANCH   3   4
ENDBRANCH   2   3
ENDBRANCH   1   2
BRANCH   1  28
HETATM   28  C14 UNL     1      -8.688  14.932  26.438  1.00  0.00     0.126 C 
BRANCH  28  29
HETATM   29  N5  UNL     1      -8.206  16.295  26.674  1.00  0.00    -0.361 N 
HETATM   30  C15 UNL     1      -7.481  16.702  27.790  1.00  0.00     0.217 C 
HETATM   31  O5  UNL     1      -7.156  15.937  28.726  1.00  0.00    -0.274 OA
ATOM     32  H5  UNL     1      -8.417  16.999  25.967  1.00  0.00     0.162 HD
BRANCH  30  33
HETATM   33  C16 UNL     1      -7.047  18.125  27.928  1.00  0.00     0.107 C 
BRANCH  33  34
HETATM   34  C17 UNL     1      -5.539  18.265  27.881  1.00  0.00     0.048 C 
BRANCH  34  35
HETATM   35  C18 UNL     1      -5.088  18.304  26.464  1.00  0.00    -0.055 A 
HETATM   36  C19 UNL     1      -5.389  19.387  25.657  1.00  0.00     0.024 A 
HETATM   37  C20 UNL     1      -4.974  19.450  24.349  1.00  0.00     0.091 A 
HETATM   38  N6  UNL     1      -4.239  18.441  23.765  1.00  0.00    -0.366 N 
HETATM   39  C26 UNL     1      -3.951  17.403  24.541  1.00  0.00     0.091 A 
HETATM   40  C27 UNL     1      -4.352  17.295  25.880  1.00  0.00     0.024 A 
BRANCH  38  41
HETATM   41  C21 UNL     1      -3.815  18.597  22.389  1.00  0.00     0.129 C 
BRANCH  41  42
HETATM   42  C22 UNL     1      -4.143  17.494  21.470  1.00  0.00     0.042 C 
BRANCH  42  43
HETATM   43  C23 UNL     1      -5.266  17.586  20.521  1.00  0.00     0.152 C 
BRANCH  43  44
HETATM   44  N7  UNL     1      -6.582  17.351  21.037  1.00  0.00    -0.273 N 
HETATM   45  C24 UNL     1      -7.683  17.629  20.269  1.00  0.00     0.218 A 
HETATM   46  N8  UNL     1      -8.773  17.347  20.981  1.00  0.00    -0.185 N 
HETATM   47  C25 UNL     1      -8.411  16.893  22.193  1.00  0.00     0.691 A 
ATOM     48  H8  UNL     1      -9.734  17.458  20.657  1.00  0.00     0.185 HD
HETATM   49  N10 UNL     1      -7.056  16.916  22.178  1.00  0.00    -0.129 N 
ATOM     50  H10 UNL     1      -6.473  16.628  22.965  1.00  0.00     0.206 HD
BRANCH  47  51
HETATM   51  N9  UNL     1      -9.169  16.527  23.156  1.00  0.00    -0.233 N 
ATOM     52  H92 UNL     1      -9.895  17.078  23.614  1.00  0.00     0.174 HD
ATOM     53  H91 UNL     1      -9.190  15.625  23.630  1.00  0.00     0.174 HD
ENDBRANCH  47  51
ENDBRANCH  43  44
ENDBRANCH  42  43
ENDBRANCH  41  42
ENDBRANCH  38  41
ENDBRANCH  34  35
ENDBRANCH  33  34
ENDBRANCH  30  33
ENDBRANCH  28  29
ENDBRANCH   1  28
TORSDOF 25
ENDMDL
MODEL 3
REMARK VINA RESULT: -7.917951102      1.984      3.890
REMARK  25 active torsions:
REMARK  status: ('A' for Active; 'I' for Inactive)
REMARK    1  A    between atoms: C2_2  and  C3_3 
REMARK    2  A    between atoms: C3_3  and  N1_4 
REMARK       I    between atoms: N1_4  and  C4_6 
REMARK    3  A    between atoms: C4_6  and  C5_8 
REMARK       I    between atoms: C5_8  and  N2_10 
REMARK    4  A    between atoms: N2_10  and  C6_12 
REMARK    5  A    between atoms: C6_12  and  C7_13 
REMARK    6  A    between atoms: C7_13  and  C8_14 
REMARK    7  A    between atoms: C8_14  and  N3_15 
REMARK    8  A    between atoms: N3_15  and  C9_17 
REMARK    9  A    between atoms: C9_17  and  O3_18 
REMARK   10  A    between atoms: C9_17  and  N4_20 
REMARK   11  A    between atoms: N4_20  and  C10_22 
REMARK   12  A    between atoms: C10_22  and  O4_23 
REMARK   13  A    between atoms: C10_22  and  C11_25 
REMARK   14  A    between atoms: C11_25  and  C12_26 
REMARK   15  A    between atoms: C12_26  and  C13_27 
REMARK   16  A    between atoms: C13_27  and  C14_28 
REMARK   17  A    between atoms: C14_28  and  N5_29 
REMARK       I    between atoms: N5_29  and  C15_31 
REMARK   18  A    between atoms: C15_31  and  C16_33 
REMARK   19  A    between atoms: C16_33  and  C17_34 
REMARK   20  A    between atoms: C17_34  and  C18_35 
REMARK   21  A    between atoms: N6_38  and  C21_39 
REMARK   22  A    between atoms: C21_39  and  C22_40 
REMARK   23  A    between atoms: C22_40  and  C23_41 
REMARK   24  A    between atoms: C23_41  and  N7_42 
REMARK   25  A    between atoms: C25_46  and  N9_47 
ROOT
HETATM    1  C13 UNL     1      -9.160  15.589  30.263  1.00  0.00     0.047 C 
ENDROOT
BRANCH   1   2
HETATM    2  C12 UNL     1      -9.056  15.657  28.815  1.00  0.00    -0.021 C 
BRANCH   2   3
HETATM    3  C11 UNL     1      -8.674  16.756  27.955  1.00  0.00     0.052 C 
BRANCH   3   4
HETATM    4  C10 UNL     1      -9.591  17.589  27.212  1.00  0.00     0.142 C 
BRANCH   4   5
HETATM    5  N4  UNL     1      -9.652  17.789  25.832  1.00  0.00    -0.303 N 
ATOM      6  H4  UNL     1     -10.087  18.671  25.562  1.00  0.00     0.171 HD
BRANCH   5   7
HETATM    7  C9  UNL     1      -9.240  17.028  24.770  1.00  0.00     0.218 C 
BRANCH   7   8
HETATM    8  N3  UNL     1      -9.864  16.316  23.741  1.00  0.00    -0.356 N 
ATOM      9  H3  UNL     1     -10.869  16.141  23.756  1.00  0.00     0.163 HD
BRANCH   8  10
HETATM   10  C8  UNL     1      -9.023  15.825  22.632  1.00  0.00     0.125 C 
BRANCH  10  11
HETATM   11  C7  UNL     1      -9.287  16.595  21.387  1.00  0.00     0.039 C 
BRANCH  11  12
HETATM   12  C6  UNL     1      -8.134  17.403  20.888  1.00  0.00     0.125 C 
BRANCH  12  13
HETATM   13  N2  UNL     1      -7.516  18.203  21.908  1.00  0.00    -0.353 N 
HETATM   14  C5  UNL     1      -6.129  18.387  22.092  1.00  0.00     0.309 C 
HETATM   15  O2  UNL     1      -5.329  17.814  21.324  1.00  0.00    -0.262 OA
ATOM     16  H2  UNL     1      -8.137  18.683  22.559  1.00  0.00     0.162 HD
BRANCH  14  17
HETATM   17  C4  UNL     1      -5.574  19.222  23.160  1.00  0.00     0.309 C 
HETATM   18  N1  UNL     1      -5.892  18.951  24.510  1.00  0.00    -0.349 N 
ATOM     19  H1  UNL     1      -6.511  18.173  24.736  1.00  0.00     0.163 HD
HETATM   20  O1  UNL     1      -4.810  20.196  22.849  1.00  0.00    -0.262 OA
BRANCH  18  21
HETATM   21  C3  UNL     1      -5.349  19.763  25.577  1.00  0.00     0.149 C 
BRANCH  21  22
HETATM   22  C2  UNL     1      -5.758  19.170  26.875  1.00  0.00    -0.018 C 
HETATM   23  C1  UNL     1      -6.561  19.854  27.646  1.00  0.00     0.008 C 
ENDBRANCH  21  22
ENDBRANCH  18  21
ENDBRANCH  14  17
ENDBRANCH  12  13
ENDBRANCH  11  12
ENDBRANCH  10  11
ENDBRANCH   8  10
ENDBRANCH   7   8
BRANCH   7  24
HETATM   24  O3  UNL     1      -7.910  16.929  24.690  1.00  0.00    -0.332 OA
ATOM     25  H3  UNL     1      -7.553  16.469  25.441  1.00  0.00     0.220 HD
ENDBRANCH   7  24
ENDBRANCH   5   7
ENDBRANCH   4   5
BRANCH   4  26
HETATM   26  O4  UNL     1     -10.510  18.281  27.841  1.00  0.00    -0.346 OA
ATOM     27  H4  UNL     1     -10.297  19.206  27.865  1.00  0.00     0.219 HD
ENDBRANCH   4  26
ENDBRANCH   3   4
ENDBRANCH   2   3
ENDBRANCH   1   2
BRANCH   1  28
HETATM   28  C14 UNL     1      -8.181  16.272  31.149  1.00  0.00     0.126 C 
BRANCH  28  29
HETATM   29  N5  UNL     1      -8.626  16.360  32.542  1.00  0.00    -0.361 N 
HETATM   30  C15 UNL     1      -8.501  15.344  33.484  1.00  0.00     0.217 C 
HETATM   31  O5  UNL     1      -7.986  14.229  33.243  1.00  0.00    -0.274 OA
ATOM     32  H5  UNL     1      -9.060  17.233  32.844  1.00  0.00     0.162 HD
BRANCH  30  33
HETATM   33  C16 UNL     1      -9.000  15.546  34.878  1.00  0.00     0.107 C 
BRANCH  33  34
HETATM   34  C17 UNL     1     -10.365  16.202  34.903  1.00  0.00     0.048 C 
BRANCH  34  35
HETATM   35  C18 UNL     1     -11.390  15.231  34.432  1.00  0.00    -0.055 A 
HETATM   36  C19 UNL     1     -12.121  15.478  33.282  1.00  0.00     0.024 A 
HETATM   37  C20 UNL     1     -13.064  14.592  32.823  1.00  0.00     0.091 A 
HETATM   38  N6  UNL     1     -13.340  13.411  33.478  1.00  0.00    -0.366 N 
HETATM   39  C26 UNL     1     -12.637  13.176  34.580  1.00  0.00     0.091 A 
HETATM   40  C27 UNL     1     -11.665  14.050  35.087  1.00  0.00     0.024 A 
BRANCH  38  41
HETATM   41  C21 UNL     1     -14.329  12.516  32.913  1.00  0.00     0.129 C 
BRANCH  41  42
HETATM   42  C22 UNL     1     -14.972  12.953  31.662  1.00  0.00     0.042 C 
BRANCH  42  43
HETATM   43  C23 UNL     1     -14.513  12.472  30.348  1.00  0.00     0.152 C 
BRANCH  43  44
HETATM   44  N7  UNL     1     -13.843  13.415  29.501  1.00  0.00    -0.273 N 
HETATM   45  C24 UNL     1     -12.871  12.991  28.633  1.00  0.00     0.218 A 
HETATM   46  N8  UNL     1     -12.395  14.054  27.985  1.00  0.00    -0.185 N 
HETATM   47  C25 UNL     1     -13.032  15.158  28.410  1.00  0.00     0.691 A 
ATOM     48  H8  UNL     1     -11.661  14.033  27.278  1.00  0.00     0.185 HD
HETATM   49  N10 UNL     1     -13.910  14.713  29.341  1.00  0.00    -0.129 N 
ATOM     50  H10 UNL     1     -14.549  15.318  29.857  1.00  0.00     0.206 HD
BRANCH  47  51
HETATM   51  N9  UNL     1     -12.851  16.366  28.031  1.00  0.00    -0.233 N 
ATOM     52  H92 UNL     1     -11.965  16.869  27.975  1.00  0.00     0.174 HD
ATOM     53  H91 UNL     1     -13.551  17.036  27.714  1.00  0.00     0.174 HD
ENDBRANCH  47  51
ENDBRANCH  43  44
ENDBRANCH  42  43
ENDBRANCH  41  42
ENDBRANCH  38  41
ENDBRANCH  34  35
ENDBRANCH  33  34
ENDBRANCH  30  33
ENDBRANCH  28  29
ENDBRANCH   1  28
TORSDOF 25
ENDMDL
MODEL 4
REMARK VINA RESULT: -7.777541912      2.118      3.970
REMARK  25 active torsions:
REMARK  status: ('A' for Active; 'I' for Inactive)
REMARK    1  A    between atoms: C2_2  and  C3_3 
REMARK    2  A    between atoms: C3_3  and  N1_4 
REMARK       I    between atoms: N1_4  and  C4_6 
REMARK    3  A    between atoms: C4_6  and  C5_8 
REMARK       I    between atoms: C5_8  and  N2_10 
REMARK    4  A    between atoms: N2_10  and  C6_12 
REMARK    5  A    between atoms: C6_12  and  C7_13 
REMARK    6  A    between atoms: C7_13  and  C8_14 
REMARK    7  A    between atoms: C8_14  and  N3_15 
REMARK    8  A    between atoms: N3_15  and  C9_17 
REMARK    9  A    between atoms: C9_17  and  O3_18 
REMARK   10  A    between atoms: C9_17  and  N4_20 
REMARK   11  A    between atoms: N4_20  and  C10_22 
REMARK   12  A    between atoms: C10_22  and  O4_23 
REMARK   13  A    between atoms: C10_22  and  C11_25 
REMARK   14  A    between atoms: C11_25  and  C12_26 
REMARK   15  A    between atoms: C12_26  and  C13_27 
REMARK   16  A    between atoms: C13_27  and  C14_28 
REMARK   17  A    between atoms: C14_28  and  N5_29 
REMARK       I    between atoms: N5_29  and  C15_31 
REMARK   18  A    between atoms: C15_31  and  C16_33 
REMARK   19  A    between atoms: C16_33  and  C17_34 
REMARK   20  A    between atoms: C17_34  and  C18_35 
REMARK   21  A    between atoms: N6_38  and  C21_39 
REMARK   22  A    between atoms: C21_39  and  C22_40 
REMARK   23  A    between atoms: C22_40  and  C23_41 
REMARK   24  A    between atoms: C23_41  and  N7_42 
REMARK   25  A    between atoms: C25_46  and  N9_47 
ROOT
HETATM    1  C13 UNL     1      -8.184  15.749  32.290  1.00  0.00     0.047 C 
ENDROOT
BRANCH   1   2
HETATM    2  C12 UNL     1      -9.359  15.441  31.492  1.00  0.00    -0.021 C 
BRANCH   2   3
HETATM    3  C11 UNL     1     -10.246  16.316  30.757  1.00  0.00     0.052 C 
BRANCH   3   4
HETATM    4  C10 UNL     1      -9.833  17.267  29.751  1.00  0.00     0.142 C 
BRANCH   4   5
HETATM    5  N4  UNL     1      -8.539  17.691  29.443  1.00  0.00    -0.303 N 
ATOM      6  H4  UNL     1      -8.240  18.514  29.967  1.00  0.00     0.171 HD
BRANCH   5   7
HETATM    7  C9  UNL     1      -7.594  17.217  28.573  1.00  0.00     0.218 C 
BRANCH   7   8
HETATM    8  N3  UNL     1      -6.634  17.779  27.727  1.00  0.00    -0.356 N 
ATOM      9  H3  UNL     1      -5.976  17.192  27.214  1.00  0.00     0.163 HD
BRANCH   8  10
HETATM   10  C8  UNL     1      -6.603  19.249  27.598  1.00  0.00     0.125 C 
BRANCH  10  11
HETATM   11  C7  UNL     1      -5.545  19.675  26.643  1.00  0.00     0.039 C 
BRANCH  11  12
HETATM   12  C6  UNL     1      -4.984  18.581  25.794  1.00  0.00     0.125 C 
BRANCH  12  13
HETATM   13  N2  UNL     1      -5.530  18.555  24.466  1.00  0.00    -0.353 N 
HETATM   14  C5  UNL     1      -6.647  17.804  24.042  1.00  0.00     0.309 C 
HETATM   15  O2  UNL     1      -7.242  17.076  24.864  1.00  0.00    -0.262 OA
ATOM     16  H2  UNL     1      -5.067  19.132  23.764  1.00  0.00     0.162 HD
BRANCH  14  17
HETATM   17  C4  UNL     1      -7.145  17.829  22.665  1.00  0.00     0.309 C 
HETATM   18  N1  UNL     1      -7.501  16.625  22.017  1.00  0.00    -0.349 N 
ATOM     19  H1  UNL     1      -7.407  15.739  22.514  1.00  0.00     0.163 HD
HETATM   20  O1  UNL     1      -7.243  18.951  22.063  1.00  0.00    -0.262 OA
BRANCH  18  21
HETATM   21  C3  UNL     1      -7.998  16.633  20.659  1.00  0.00     0.149 C 
BRANCH  21  22
HETATM   22  C2  UNL     1      -9.466  16.412  20.693  1.00  0.00    -0.018 C 
HETATM   23  C1  UNL     1      -9.985  15.839  21.746  1.00  0.00     0.008 C 
ENDBRANCH  21  22
ENDBRANCH  18  21
ENDBRANCH  14  17
ENDBRANCH  12  13
ENDBRANCH  11  12
ENDBRANCH  10  11
ENDBRANCH   8  10
ENDBRANCH   7   8
BRANCH   7  24
HETATM   24  O3  UNL     1      -7.580  15.883  28.502  1.00  0.00    -0.332 OA
ATOM     25  H3  UNL     1      -6.851  15.519  28.990  1.00  0.00     0.220 HD
ENDBRANCH   7  24
ENDBRANCH   5   7
ENDBRANCH   4   5
BRANCH   4  26
HETATM   26  O4  UNL     1     -10.727  17.852  28.991  1.00  0.00    -0.346 OA
ATOM     27  H4  UNL     1     -11.599  17.510  29.150  1.00  0.00     0.219 HD
ENDBRANCH   4  26
ENDBRANCH   3   4
ENDBRANCH   2   3
ENDBRANCH   1   2
BRANCH   1  28
HETATM   28  C14 UNL     1      -8.149  15.501  33.755  1.00  0.00     0.126 C 
BRANCH  28  29
HETATM   29  N5  UNL     1      -9.420  15.006  34.289  1.00  0.00    -0.361 N 
HETATM   30  C15 UNL     1     -10.434  15.808  34.805  1.00  0.00     0.217 C 
HETATM   31  O5  UNL     1     -10.371  17.056  34.869  1.00  0.00    -0.274 OA
ATOM     32  H5  UNL     1      -9.574  13.998  34.281  1.00  0.00     0.162 HD
BRANCH  30  33
HETATM   33  C16 UNL     1     -11.689  15.188  35.330  1.00  0.00     0.107 C 
BRANCH  33  34
HETATM   34  C17 UNL     1     -11.801  13.726  34.949  1.00  0.00     0.048 C 
BRANCH  34  35
HETATM   35  C18 UNL     1     -12.752  13.579  33.814  1.00  0.00    -0.055 A 
HETATM   36  C19 UNL     1     -12.946  14.616  32.918  1.00  0.00     0.024 A 
HETATM   37  C20 UNL     1     -13.811  14.500  31.857  1.00  0.00     0.091 A 
HETATM   38  N6  UNL     1     -14.535  13.351  31.624  1.00  0.00    -0.366 N 
HETATM   39  C26 UNL     1     -14.346  12.357  32.485  1.00  0.00     0.091 A 
HETATM   40  C27 UNL     1     -13.474  12.429  33.581  1.00  0.00     0.024 A 
BRANCH  38  41
HETATM   41  C21 UNL     1     -15.403  13.298  30.467  1.00  0.00     0.129 C 
BRANCH  41  42
HETATM   42  C22 UNL     1     -14.868  13.864  29.217  1.00  0.00     0.042 C 
BRANCH  42  43
HETATM   43  C23 UNL     1     -13.851  13.156  28.421  1.00  0.00     0.152 C 
BRANCH  43  44
HETATM   44  N7  UNL     1     -12.744  13.927  27.936  1.00  0.00    -0.273 N 
HETATM   45  C24 UNL     1     -12.895  15.266  27.686  1.00  0.00     0.218 A 
HETATM   46  N8  UNL     1     -11.737  15.740  27.226  1.00  0.00    -0.185 N 
HETATM   47  C25 UNL     1     -10.837  14.744  27.171  1.00  0.00     0.691 A 
ATOM     48  H8  UNL     1     -11.562  16.708  26.958  1.00  0.00     0.185 HD
HETATM   49  N10 UNL     1     -11.504  13.651  27.616  1.00  0.00    -0.129 N 
ATOM     50  H10 UNL     1     -11.089  12.722  27.692  1.00  0.00     0.206 HD
BRANCH  47  51
HETATM   51  N9  UNL     1      -9.621  14.802  26.779  1.00  0.00    -0.233 N 
ATOM     52  H92 UNL     1      -9.124  15.622  26.429  1.00  0.00     0.174 HD
ATOM     53  H91 UNL     1      -8.934  14.050  26.752  1.00  0.00     0.174 HD
ENDBRANCH  47  51
ENDBRANCH  43  44
ENDBRANCH  42  43
ENDBRANCH  41  42
ENDBRANCH  38  41
ENDBRANCH  34  35
ENDBRANCH  33  34
ENDBRANCH  30  33
ENDBRANCH  28  29
ENDBRANCH   1  28
TORSDOF 25
ENDMDL
MODEL 5
REMARK VINA RESULT: -7.700212899      1.539      3.422
REMARK  25 active torsions:
REMARK  status: ('A' for Active; 'I' for Inactive)
REMARK    1  A    between atoms: C2_2  and  C3_3 
REMARK    2  A    between atoms: C3_3  and  N1_4 
REMARK       I    between atoms: N1_4  and  C4_6 
REMARK    3  A    between atoms: C4_6  and  C5_8 
REMARK       I    between atoms: C5_8  and  N2_10 
REMARK    4  A    between atoms: N2_10  and  C6_12 
REMARK    5  A    between atoms: C6_12  and  C7_13 
REMARK    6  A    between atoms: C7_13  and  C8_14 
REMARK    7  A    between atoms: C8_14  and  N3_15 
REMARK    8  A    between atoms: N3_15  and  C9_17 
REMARK    9  A    between atoms: C9_17  and  O3_18 
REMARK   10  A    between atoms: C9_17  and  N4_20 
REMARK   11  A    between atoms: N4_20  and  C10_22 
REMARK   12  A    between atoms: C10_22  and  O4_23 
REMARK   13  A    between atoms: C10_22  and  C11_25 
REMARK   14  A    between atoms: C11_25  and  C12_26 
REMARK   15  A    between atoms: C12_26  and  C13_27 
REMARK   16  A    between atoms: C13_27  and  C14_28 
REMARK   17  A    between atoms: C14_28  and  N5_29 
REMARK       I    between atoms: N5_29  and  C15_31 
REMARK   18  A    between atoms: C15_31  and  C16_33 
REMARK   19  A    between atoms: C16_33  and  C17_34 
REMARK   20  A    between atoms: C17_34  and  C18_35 
REMARK   21  A    between atoms: N6_38  and  C21_39 
REMARK   22  A    between atoms: C21_39  and  C22_40 
REMARK   23  A    between atoms: C22_40  and  C23_41 
REMARK   24  A    between atoms: C23_41  and  N7_42 
REMARK   25  A    between atoms: C25_46  and  N9_47 
ROOT
HETATM    1  C13 UNL     1     -10.307  14.360  27.356  1.00  0.00     0.047 C 
ENDROOT
BRANCH   1   2
HETATM    2  C12 UNL     1     -11.388  14.980  28.104  1.00  0.00    -0.021 C 
BRANCH   2   3
HETATM    3  C11 UNL     1     -11.861  16.347  28.105  1.00  0.00     0.052 C 
BRANCH   3   4
HETATM    4  C10 UNL     1     -11.026  17.517  28.249  1.00  0.00     0.142 C 
BRANCH   4   5
HETATM    5  N4  UNL     1     -10.172  18.090  27.306  1.00  0.00    -0.303 N 
ATOM      6  H4  UNL     1      -9.827  19.013  27.571  1.00  0.00     0.171 HD
BRANCH   5   7
HETATM    7  C9  UNL     1      -9.709  17.654  26.094  1.00  0.00     0.218 C 
BRANCH   7   8
HETATM    8  N3  UNL     1     -10.277  17.113  24.936  1.00  0.00    -0.356 N 
ATOM      9  H3  UNL     1     -11.159  17.467  24.567  1.00  0.00     0.163 HD
BRANCH   8  10
HETATM   10  C8  UNL     1      -9.558  16.012  24.265  1.00  0.00     0.125 C 
BRANCH  10  11
HETATM   11  C7  UNL     1      -9.622  16.163  22.786  1.00  0.00     0.039 C 
BRANCH  11  12
HETATM   12  C6  UNL     1      -8.299  16.325  22.111  1.00  0.00     0.125 C 
BRANCH  12  13
HETATM   13  N2  UNL     1      -7.278  16.844  22.976  1.00  0.00    -0.353 N 
HETATM   14  C5  UNL     1      -6.740  18.147  22.938  1.00  0.00     0.309 C 
HETATM   15  O2  UNL     1      -7.157  18.956  22.083  1.00  0.00    -0.262 OA
ATOM     16  H2  UNL     1      -6.907  16.210  23.685  1.00  0.00     0.162 HD
BRANCH  14  17
HETATM   17  C4  UNL     1      -5.696  18.603  23.858  1.00  0.00     0.309 C 
HETATM   18  N1  UNL     1      -6.038  19.364  24.999  1.00  0.00    -0.349 N 
ATOM     19  H1  UNL     1      -7.016  19.595  25.175  1.00  0.00     0.163 HD
HETATM   20  O1  UNL     1      -4.479  18.308  23.608  1.00  0.00    -0.262 OA
BRANCH  18  21
HETATM   21  C3  UNL     1      -5.020  19.819  25.920  1.00  0.00     0.149 C 
BRANCH  21  22
HETATM   22  C2  UNL     1      -5.489  19.562  27.305  1.00  0.00    -0.018 C 
HETATM   23  C1  UNL     1      -6.607  20.112  27.695  1.00  0.00     0.008 C 
ENDBRANCH  21  22
ENDBRANCH  18  21
ENDBRANCH  14  17
ENDBRANCH  12  13
ENDBRANCH  11  12
ENDBRANCH  10  11
ENDBRANCH   8  10
ENDBRANCH   7   8
BRANCH   7  24
HETATM   24  O3  UNL     1      -8.382  17.761  25.978  1.00  0.00    -0.332 OA
ATOM     25  H3  UNL     1      -8.055  17.224  25.266  1.00  0.00     0.220 HD
ENDBRANCH   7  24
ENDBRANCH   5   7
ENDBRANCH   4   5
BRANCH   4  26
HETATM   26  O4  UNL     1     -11.011  18.179  29.381  1.00  0.00    -0.346 OA
ATOM     27  H4  UNL     1     -11.798  18.023  29.889  1.00  0.00     0.219 HD
ENDBRANCH   4  26
ENDBRANCH   3   4
ENDBRANCH   2   3
ENDBRANCH   1   2
BRANCH   1  28
HETATM   28  C14 UNL     1      -8.881  14.630  27.676  1.00  0.00     0.126 C 
BRANCH  28  29
HETATM   29  N5  UNL     1      -8.658  14.965  29.084  1.00  0.00    -0.361 N 
HETATM   30  C15 UNL     1      -8.035  16.123  29.539  1.00  0.00     0.217 C 
HETATM   31  O5  UNL     1      -7.595  17.020  28.785  1.00  0.00    -0.274 OA
ATOM     32  H5  UNL     1      -8.983  14.298  29.785  1.00  0.00     0.162 HD
BRANCH  30  33
HETATM   33  C16 UNL     1      -7.855  16.355  31.004  1.00  0.00     0.107 C 
BRANCH  33  34
HETATM   34  C17 UNL     1      -8.934  17.255  31.573  1.00  0.00     0.048 C 
BRANCH  34  35
HETATM   35  C18 UNL     1      -9.849  16.452  32.429  1.00  0.00    -0.055 A 
HETATM   36  C19 UNL     1     -10.847  15.678  31.864  1.00  0.00     0.024 A 
HETATM   37  C20 UNL     1     -11.696  14.922  32.635  1.00  0.00     0.091 A 
HETATM   38  N6  UNL     1     -11.607  14.891  34.010  1.00  0.00    -0.366 N 
HETATM   39  C26 UNL     1     -10.648  15.635  34.550  1.00  0.00     0.091 A 
HETATM   40  C27 UNL     1      -9.758  16.422  33.805  1.00  0.00     0.024 A 
BRANCH  38  41
HETATM   41  C21 UNL     1     -12.521  14.045  34.748  1.00  0.00     0.129 C 
BRANCH  41  42
HETATM   42  C22 UNL     1     -13.109  12.913  34.013  1.00  0.00     0.042 C 
BRANCH  42  43
HETATM   43  C23 UNL     1     -14.509  12.932  33.555  1.00  0.00     0.152 C 
BRANCH  43  44
HETATM   44  N7  UNL     1     -14.785  13.594  32.314  1.00  0.00    -0.273 N 
HETATM   45  C24 UNL     1     -15.583  14.709  32.291  1.00  0.00     0.218 A 
HETATM   46  N8  UNL     1     -15.701  15.114  31.027  1.00  0.00    -0.185 N 
HETATM   47  C25 UNL     1     -15.000  14.292  30.227  1.00  0.00     0.691 A 
ATOM     48  H8  UNL     1     -16.239  15.922  30.715  1.00  0.00     0.185 HD
HETATM   49  N10 UNL     1     -14.458  13.375  31.065  1.00  0.00    -0.129 N 
ATOM     50  H10 UNL     1     -13.865  12.604  30.758  1.00  0.00     0.206 HD
BRANCH  47  51
HETATM   51  N9  UNL     1     -14.874  14.350  28.956  1.00  0.00    -0.233 N 
ATOM     52  H92 UNL     1     -14.471  13.641  28.343  1.00  0.00     0.174 HD
ATOM     53  H91 UNL     1     -15.158  15.103  28.330  1.00  0.00     0.174 HD
ENDBRANCH  47  51
ENDBRANCH  43  44
ENDBRANCH  42  43
ENDBRANCH  41  42
ENDBRANCH  38  41
ENDBRANCH  34  35
ENDBRANCH  33  34
ENDBRANCH  30  33
ENDBRANCH  28  29
ENDBRANCH   1  28
TORSDOF 25
ENDMDL
