MODEL 1
REMARK VINA RESULT: -8.473544572      0.000      0.000
REMARK  19 active torsions:
REMARK  status: ('A' for Active; 'I' for Inactive)
REMARK    1  A    between atoms: C2_2  and  C3_3 
REMARK    2  A    between atoms: C3_3  and  N1_4 
REMARK       I    between atoms: C4_6  and  N3_8 
REMARK    3  A    between atoms: N3_8  and  C5_10 
REMARK    4  A    between atoms: C6_15  and  C7_16 
REMARK    5  A    between atoms: C8_17  and  S1_18 
REMARK    6  A    between atoms: S1_18  and  N6_21 
REMARK    7  A    between atoms: N6_21  and  C9_23 
REMARK    8  A    between atoms: C9_23  and  C10_24 
REMARK    9  A    between atoms: C10_24  and  N7_25 
REMARK   10  A    between atoms: N7_25  and  C11_26 
REMARK   11  A    between atoms: C12_27  and  C13_28 
REMARK   12  A    between atoms: C13_28  and  C14_29 
REMARK   13  A    between atoms: C14_29  and  N8_30 
REMARK   14  A    between atoms: N8_30  and  C15_32 
REMARK   15  A    between atoms: C15_32  and  C16_33 
REMARK   16  A    between atoms: C16_33  and  C17_34 
REMARK   17  A    between atoms: C17_34  and  C18_35 
REMARK   18  A    between atoms: C18_35  and  N9_36 
REMARK   19  A    between atoms: C23_44  and  C24_45 
ROOT
HETATM    1  C9  UNL     1     -12.282  14.345  32.376  1.00  0.00     0.160 C 
ENDROOT
BRANCH   1   2
HETATM    2  N6  UNL     1     -11.737  15.645  32.822  1.00  0.00    -0.315 N 
ATOM      3  H6  UNL     1     -11.750  16.509  32.280  1.00  0.00     0.172 HD
BRANCH   2   4
HETATM    4  S1  UNL     1     -11.066  15.463  34.421  1.00  0.00     0.248 S 
HETATM    5  O1  UNL     1     -12.176  14.828  35.245  1.00  0.00    -0.201 OA
HETATM    6  O2  UNL     1     -10.848  16.840  34.968  1.00  0.00    -0.201 OA
BRANCH   4   7
HETATM    7  C8  UNL     1      -9.627  14.536  34.392  1.00  0.00     0.135 C 
HETATM    8  C7  UNL     1      -8.670  14.636  33.530  1.00  0.00     0.064 C 
BRANCH   8   9
HETATM    9  C6  UNL     1      -8.631  15.561  32.411  1.00  0.00     0.136 A 
HETATM   10  N5  UNL     1      -8.381  16.870  32.345  1.00  0.00    -0.271 N 
HETATM   11  N4  UNL     1      -8.454  17.303  31.097  1.00  0.00    -0.130 N 
ATOM     12  H5  UNL     1      -8.162  17.459  33.149  1.00  0.00     0.189 HD
HETATM   13  C5  UNL     1      -8.757  16.274  30.305  1.00  0.00     0.701 A 
ATOM     14  H4  UNL     1      -8.304  18.265  30.791  1.00  0.00     0.205 HD
HETATM   15  N13 UNL     1      -8.865  15.216  31.101  1.00  0.00    -0.174 N 
ATOM     16  H13 UNL     1      -9.092  14.274  30.783  1.00  0.00     0.186 HD
BRANCH  13  17
HETATM   17  N3  UNL     1      -8.906  16.324  29.032  1.00  0.00    -0.162 N 
HETATM   18  C4  UNL     1      -7.947  15.851  28.115  1.00  0.00     0.202 C 
HETATM   19  N1  UNL     1      -6.915  16.474  27.709  1.00  0.00    -0.364 N 
HETATM   20  N2  UNL     1      -8.162  14.533  27.589  1.00  0.00    -0.063 NA
ATOM     21  H1  UNL     1      -6.313  15.994  27.041  1.00  0.00     0.162 HD
ATOM     22  H3  UNL     1      -9.767  16.729  28.663  1.00  0.00     0.187 HD
BRANCH  19  23
HETATM   23  C3  UNL     1      -6.525  17.795  28.111  1.00  0.00     0.122 C 
BRANCH  23  24
HETATM   24  C2  UNL     1      -5.430  18.258  27.157  1.00  0.00     0.015 C 
HETATM   25  C1  UNL     1      -5.736  19.647  26.651  1.00  0.00     0.006 C 
ENDBRANCH  23  24
ENDBRANCH  19  23
ENDBRANCH  13  17
ENDBRANCH   8   9
ENDBRANCH   4   7
ENDBRANCH   2   4
ENDBRANCH   1   2
BRANCH   1  26
HETATM   26  C10 UNL     1     -12.878  14.487  31.073  1.00  0.00     0.264 C 
BRANCH  26  27
HETATM   27  N7  UNL     1     -13.726  13.393  30.553  1.00  0.00    -0.033 N 
HETATM   28  C20 UNL     1     -12.776  12.388  30.085  1.00  0.00     0.244 C 
HETATM   29  C21 UNL     1     -13.075  11.094  30.794  1.00  0.00     0.031 C 
HETATM   30  C22 UNL     1     -14.511  11.279  31.324  1.00  0.00     0.045 C 
HETATM   31  C23 UNL     1     -14.440  12.779  31.583  1.00  0.00     0.284 C 
BRANCH  27  32
HETATM   32  C11 UNL     1     -14.368  13.963  29.446  1.00  0.00     0.199 C 
HETATM   33  C12 UNL     1     -13.800  14.393  28.204  1.00  0.00    -0.000 C 
BRANCH  33  34
HETATM   34  C13 UNL     1     -12.790  15.479  28.125  1.00  0.00     0.047 C 
BRANCH  34  35
HETATM   35  C14 UNL     1     -11.691  15.084  27.117  1.00  0.00     0.117 C 
BRANCH  35  36
HETATM   36  N8  UNL     1     -10.991  16.201  26.585  1.00  0.00    -0.421 N 
ATOM     37  H8  UNL     1     -10.873  17.070  27.105  1.00  0.00     0.153 HD
BRANCH  36  38
HETATM   38  C15 UNL     1     -10.461  16.018  25.265  1.00  0.00     0.113 C 
BRANCH  38  39
HETATM   39  C16 UNL     1      -9.398  17.078  25.053  1.00  0.00     0.021 C 
BRANCH  39  40
HETATM   40  C17 UNL     1      -8.218  16.580  24.279  1.00  0.00     0.021 C 
BRANCH  40  41
HETATM   41  C18 UNL     1      -7.782  17.608  23.231  1.00  0.00     0.122 C 
BRANCH  41  42
HETATM   42  N9  UNL     1      -7.187  16.841  22.154  1.00  0.00    -0.367 N 
HETATM   43  C19 UNL     1      -7.529  16.992  20.928  1.00  0.00     0.196 C 
HETATM   44  N10 UNL     1      -6.910  16.211  19.922  1.00  0.00    -0.067 NA
HETATM   45  N11 UNL     1      -8.527  17.930  20.516  1.00  0.00    -0.067 NA
ATOM     46  H9  UNL     1      -6.468  16.154  22.381  1.00  0.00     0.161 HD
ENDBRANCH  41  42
ENDBRANCH  40  41
ENDBRANCH  39  40
ENDBRANCH  38  39
ENDBRANCH  36  38
ENDBRANCH  35  36
ENDBRANCH  34  35
ENDBRANCH  33  34
ENDBRANCH  27  32
BRANCH  31  47
HETATM   47  C24 UNL     1     -15.683  13.341  32.068  1.00  0.00     0.262 C 
HETATM   48  N12 UNL     1     -16.900  12.871  31.513  1.00  0.00    -0.060 NA
HETATM   49  O3  UNL     1     -15.747  14.207  32.938  1.00  0.00    -0.275 OA
ENDBRANCH  31  47
ENDBRANCH  26  27
ENDBRANCH   1  26
TORSDOF 19
ENDMDL
MODEL 2
REMARK VINA RESULT: -8.140897680      4.575     11.307
REMARK  19 active torsions:
REMARK  status: ('A' for Active; 'I' for Inactive)
REMARK    1  A    between atoms: C2_2  and  C3_3 
REMARK    2  A    between atoms: C3_3  and  N1_4 
REMARK       I    between atoms: C4_6  and  N3_8 
REMARK    3  A    between atoms: N3_8  and  C5_10 
REMARK    4  A    between atoms: C6_15  and  C7_16 
REMARK    5  A    between atoms: C8_17  and  S1_18 
REMARK    6  A    between atoms: S1_18  and  N6_21 
REMARK    7  A    between atoms: N6_21  and  C9_23 
REMARK    8  A    between atoms: C9_23  and  C10_24 
REMARK    9  A    between atoms: C10_24  and  N7_25 
REMARK   10  A    between atoms: N7_25  and  C11_26 
REMARK   11  A    between atoms: C12_27  and  C13_28 
REMARK   12  A    between atoms: C13_28  and  C14_29 
REMARK   13  A    between atoms: C14_29  and  N8_30 
REMARK   14  A    between atoms: N8_30  and  C15_32 
REMARK   15  A    between atoms: C15_32  and  C16_33 
REMARK   16  A    between atoms: C16_33  and  C17_34 
REMARK   17  A    between atoms: C17_34  and  C18_35 
REMARK   18  A    between atoms: C18_35  and  N9_36 
REMARK   19  A    between atoms: C23_44  and  C24_45 
ROOT
HETATM    1  C9  UNL     1      -7.550  17.498  24.964  1.00  0.00     0.160 C 
ENDROOT
BRANCH   1   2
HETATM    2  N6  UNL     1      -8.318  17.540  23.701  1.00  0.00    -0.315 N 
ATOM      3  H6  UNL     1      -8.307  18.305  23.027  1.00  0.00     0.172 HD
BRANCH   2   4
HETATM    4  S1  UNL     1      -9.246  16.071  23.550  1.00  0.00     0.248 S 
HETATM    5  O1  UNL     1     -10.131  16.034  24.787  1.00  0.00    -0.201 OA
HETATM    6  O2  UNL     1      -8.286  14.928  23.663  1.00  0.00    -0.201 OA
BRANCH   4   7
HETATM    7  C8  UNL     1     -10.130  16.041  22.083  1.00  0.00     0.135 C 
HETATM    8  C7  UNL     1      -9.678  16.348  20.912  1.00  0.00     0.064 C 
BRANCH   8   9
HETATM    9  C6  UNL     1      -8.325  16.783  20.613  1.00  0.00     0.136 A 
HETATM   10  N5  UNL     1      -7.828  17.969  20.256  1.00  0.00    -0.271 N 
HETATM   11  N4  UNL     1      -6.518  17.901  20.085  1.00  0.00    -0.130 N 
ATOM     12  H5  UNL     1      -8.385  18.816  20.131  1.00  0.00     0.189 HD
HETATM   13  C5  UNL     1      -6.120  16.653  20.330  1.00  0.00     0.701 A 
ATOM     14  H4  UNL     1      -5.913  18.675  19.811  1.00  0.00     0.205 HD
HETATM   15  N13 UNL     1      -7.215  15.973  20.650  1.00  0.00    -0.174 N 
ATOM     16  H13 UNL     1      -7.231  14.982  20.890  1.00  0.00     0.186 HD
BRANCH  13  17
HETATM   17  N3  UNL     1      -4.913  16.222  20.264  1.00  0.00    -0.162 N 
HETATM   18  C4  UNL     1      -3.898  16.857  19.522  1.00  0.00     0.202 C 
HETATM   19  N1  UNL     1      -3.684  16.736  18.274  1.00  0.00    -0.364 N 
HETATM   20  N2  UNL     1      -3.021  17.727  20.253  1.00  0.00    -0.063 NA
ATOM     21  H1  UNL     1      -2.905  17.265  17.881  1.00  0.00     0.162 HD
ATOM     22  H3  UNL     1      -4.676  15.373  20.777  1.00  0.00     0.187 HD
BRANCH  19  23
HETATM   23  C3  UNL     1      -4.442  15.919  17.371  1.00  0.00     0.122 C 
BRANCH  23  24
HETATM   24  C2  UNL     1      -3.590  15.700  16.127  1.00  0.00     0.015 C 
HETATM   25  C1  UNL     1      -2.147  15.486  16.517  1.00  0.00     0.006 C 
ENDBRANCH  23  24
ENDBRANCH  19  23
ENDBRANCH  13  17
ENDBRANCH   8   9
ENDBRANCH   4   7
ENDBRANCH   2   4
ENDBRANCH   1   2
BRANCH   1  26
HETATM   26  C10 UNL     1      -6.180  17.150  24.690  1.00  0.00     0.264 C 
BRANCH  26  27
HETATM   27  N7  UNL     1      -5.133  18.178  24.872  1.00  0.00    -0.033 N 
HETATM   28  C20 UNL     1      -3.930  17.418  25.202  1.00  0.00     0.244 C 
HETATM   29  C21 UNL     1      -2.863  17.773  24.202  1.00  0.00     0.031 C 
HETATM   30  C22 UNL     1      -3.350  19.099  23.586  1.00  0.00     0.045 C 
HETATM   31  C23 UNL     1      -4.847  18.823  23.668  1.00  0.00     0.284 C 
BRANCH  27  32
HETATM   32  C11 UNL     1      -5.550  18.885  26.008  1.00  0.00     0.199 C 
HETATM   33  C12 UNL     1      -5.198  18.666  27.378  1.00  0.00    -0.000 C 
BRANCH  33  34
HETATM   34  C13 UNL     1      -5.525  17.405  28.093  1.00  0.00     0.047 C 
BRANCH  34  35
HETATM   35  C14 UNL     1      -7.003  17.434  28.533  1.00  0.00     0.117 C 
BRANCH  35  36
HETATM   36  N8  UNL     1      -7.690  16.217  28.270  1.00  0.00    -0.421 N 
ATOM     37  H8  UNL     1      -7.533  15.674  27.422  1.00  0.00     0.153 HD
BRANCH  36  38
HETATM   38  C15 UNL     1      -8.618  15.808  29.283  1.00  0.00     0.113 C 
BRANCH  38  39
HETATM   39  C16 UNL     1      -8.123  16.367  30.603  1.00  0.00     0.021 C 
BRANCH  39  40
HETATM   40  C17 UNL     1      -9.199  16.471  31.639  1.00  0.00     0.021 C 
BRANCH  40  41
HETATM   41  C18 UNL     1      -9.006  15.414  32.730  1.00  0.00     0.122 C 
BRANCH  41  42
HETATM   42  N9  UNL     1     -10.343  15.026  33.139  1.00  0.00    -0.367 N 
HETATM   43  C19 UNL     1     -10.993  15.647  34.050  1.00  0.00     0.196 C 
HETATM   44  N10 UNL     1     -12.296  15.218  34.404  1.00  0.00    -0.067 NA
HETATM   45  N11 UNL     1     -10.459  16.778  34.745  1.00  0.00    -0.067 NA
ATOM     46  H9  UNL     1     -10.782  14.227  32.681  1.00  0.00     0.161 HD
ENDBRANCH  41  42
ENDBRANCH  40  41
ENDBRANCH  39  40
ENDBRANCH  38  39
ENDBRANCH  36  38
ENDBRANCH  35  36
ENDBRANCH  34  35
ENDBRANCH  33  34
ENDBRANCH  27  32
BRANCH  31  47
HETATM   47  C24 UNL     1      -5.664  19.921  23.197  1.00  0.00     0.262 C 
HETATM   48  N12 UNL     1      -5.291  21.242  23.553  1.00  0.00    -0.060 NA
HETATM   49  O3  UNL     1      -6.667  19.776  22.502  1.00  0.00    -0.275 OA
ENDBRANCH  31  47
ENDBRANCH  26  27
ENDBRANCH   1  26
TORSDOF 19
ENDMDL
MODEL 3
REMARK VINA RESULT: -8.133154261      2.936      6.714
REMARK  19 active torsions:
REMARK  status: ('A' for Active; 'I' for Inactive)
REMARK    1  A    between atoms: C2_2  and  C3_3 
REMARK    2  A    between atoms: C3_3  and  N1_4 
REMARK       I    between atoms: C4_6  and  N3_8 
REMARK    3  A    between atoms: N3_8  and  C5_10 
REMARK    4  A    between atoms: C6_15  and  C7_16 
REMARK    5  A    between atoms: C8_17  and  S1_18 
REMARK    6  A    between atoms: S1_18  and  N6_21 
REMARK    7  A    between atoms: N6_21  and  C9_23 
REMARK    8  A    between atoms: C9_23  and  C10_24 
REMARK    9  A    between atoms: C10_24  and  N7_25 
REMARK   10  A    between atoms: N7_25  and  C11_26 
REMARK   11  A    between atoms: C12_27  and  C13_28 
REMARK   12  A    between atoms: C13_28  and  C14_29 
REMARK   13  A    between atoms: C14_29  and  N8_30 
REMARK   14  A    between atoms: N8_30  and  C15_32 
REMARK   15  A    between atoms: C15_32  and  C16_33 
REMARK   16  A    between atoms: C16_33  and  C17_34 
REMARK   17  A    between atoms: C17_34  and  C18_35 
REMARK   18  A    between atoms: C18_35  and  N9_36 
REMARK   19  A    between atoms: C23_44  and  C24_45 
ROOT
HETATM    1  C9  UNL     1     -11.486  16.788  28.904  1.00  0.00     0.160 C 
ENDROOT
BRANCH   1   2
HETATM    2  N6  UNL     1     -12.691  16.229  28.254  1.00  0.00    -0.315 N 
ATOM      3  H6  UNL     1     -13.438  16.775  27.823  1.00  0.00     0.172 HD
BRANCH   2   4
HETATM    4  S1  UNL     1     -12.632  14.489  28.342  1.00  0.00     0.248 S 
HETATM    5  O1  UNL     1     -11.662  14.183  29.473  1.00  0.00    -0.201 OA
HETATM    6  O2  UNL     1     -11.997  14.003  27.076  1.00  0.00    -0.201 OA
BRANCH   4   7
HETATM    7  C8  UNL     1     -14.191  13.824  28.588  1.00  0.00     0.135 C 
HETATM    8  C7  UNL     1     -14.783  13.663  29.726  1.00  0.00     0.064 C 
BRANCH   8   9
HETATM    9  C6  UNL     1     -14.236  14.017  31.023  1.00  0.00     0.136 A 
HETATM   10  N5  UNL     1     -14.488  15.034  31.850  1.00  0.00    -0.271 N 
HETATM   11  N4  UNL     1     -13.743  14.953  32.940  1.00  0.00    -0.130 N 
ATOM     12  H5  UNL     1     -15.165  15.775  31.666  1.00  0.00     0.189 HD
HETATM   13  C5  UNL     1     -12.975  13.867  32.854  1.00  0.00     0.701 A 
ATOM     14  H4  UNL     1     -13.754  15.613  33.718  1.00  0.00     0.205 HD
HETATM   15  N13 UNL     1     -13.273  13.298  31.690  1.00  0.00    -0.174 N 
ATOM     16  H13 UNL     1     -12.844  12.442  31.339  1.00  0.00     0.186 HD
BRANCH  13  17
HETATM   17  N3  UNL     1     -12.129  13.473  33.733  1.00  0.00    -0.162 N 
HETATM   18  C4  UNL     1     -11.890  14.150  34.945  1.00  0.00     0.202 C 
HETATM   19  N1  UNL     1     -11.131  15.156  35.113  1.00  0.00    -0.364 N 
HETATM   20  N2  UNL     1     -12.576  13.649  36.102  1.00  0.00    -0.063 NA
ATOM     21  H1  UNL     1     -11.064  15.537  36.057  1.00  0.00     0.162 HD
ATOM     22  H3  UNL     1     -11.599  12.622  33.544  1.00  0.00     0.187 HD
BRANCH  19  23
HETATM   23  C3  UNL     1     -10.362  15.804  34.089  1.00  0.00     0.122 C 
BRANCH  23  24
HETATM   24  C2  UNL     1      -8.975  15.174  34.094  1.00  0.00     0.015 C 
HETATM   25  C1  UNL     1      -8.118  15.798  33.019  1.00  0.00     0.006 C 
ENDBRANCH  23  24
ENDBRANCH  19  23
ENDBRANCH  13  17
ENDBRANCH   8   9
ENDBRANCH   4   7
ENDBRANCH   2   4
ENDBRANCH   1   2
BRANCH   1  26
HETATM   26  C10 UNL     1     -10.676  17.467  27.927  1.00  0.00     0.264 C 
BRANCH  26  27
HETATM   27  N7  UNL     1      -9.284  17.013  27.716  1.00  0.00    -0.033 N 
HETATM   28  C20 UNL     1      -8.832  16.597  29.041  1.00  0.00     0.244 C 
HETATM   29  C21 UNL     1      -8.378  15.165  28.952  1.00  0.00     0.031 C 
HETATM   30  C22 UNL     1      -8.149  14.935  27.446  1.00  0.00     0.045 C 
HETATM   31  C23 UNL     1      -9.245  15.861  26.931  1.00  0.00     0.284 C 
BRANCH  27  32
HETATM   32  C11 UNL     1      -8.602  18.181  27.349  1.00  0.00     0.199 C 
HETATM   33  C12 UNL     1      -7.233  18.336  26.963  1.00  0.00    -0.000 C 
BRANCH  33  34
HETATM   34  C13 UNL     1      -6.107  18.014  27.877  1.00  0.00     0.047 C 
BRANCH  34  35
HETATM   35  C14 UNL     1      -5.080  17.134  27.135  1.00  0.00     0.117 C 
BRANCH  35  36
HETATM   36  N8  UNL     1      -5.268  17.121  25.726  1.00  0.00    -0.421 N 
ATOM     37  H8  UNL     1      -6.175  16.938  25.297  1.00  0.00     0.153 HD
BRANCH  36  38
HETATM   38  C15 UNL     1      -4.091  17.384  24.950  1.00  0.00     0.113 C 
BRANCH  38  39
HETATM   39  C16 UNL     1      -4.541  17.990  23.634  1.00  0.00     0.021 C 
BRANCH  39  40
HETATM   40  C17 UNL     1      -6.028  18.131  23.530  1.00  0.00     0.021 C 
BRANCH  40  41
HETATM   41  C18 UNL     1      -6.498  17.880  22.094  1.00  0.00     0.122 C 
BRANCH  41  42
HETATM   42  N9  UNL     1      -7.608  16.953  22.203  1.00  0.00    -0.367 N 
HETATM   43  C19 UNL     1      -8.592  16.956  21.383  1.00  0.00     0.196 C 
HETATM   44  N10 UNL     1      -9.646  16.024  21.543  1.00  0.00    -0.067 NA
HETATM   45  N11 UNL     1      -8.682  17.873  20.289  1.00  0.00    -0.067 NA
ATOM     46  H9  UNL     1      -7.605  16.271  22.962  1.00  0.00     0.161 HD
ENDBRANCH  41  42
ENDBRANCH  40  41
ENDBRANCH  39  40
ENDBRANCH  38  39
ENDBRANCH  36  38
ENDBRANCH  35  36
ENDBRANCH  34  35
ENDBRANCH  33  34
ENDBRANCH  27  32
BRANCH  31  47
HETATM   47  C24 UNL     1      -9.304  15.939  25.486  1.00  0.00     0.262 C 
HETATM   48  N12 UNL     1      -8.150  15.587  24.743  1.00  0.00    -0.060 NA
HETATM   49  O3  UNL     1     -10.302  16.294  24.862  1.00  0.00    -0.275 OA
ENDBRANCH  31  47
ENDBRANCH  26  27
ENDBRANCH   1  26
TORSDOF 19
ENDMDL
MODEL 4
REMARK VINA RESULT: -8.038864353      2.324      6.338
REMARK  19 active torsions:
REMARK  status: ('A' for Active; 'I' for Inactive)
REMARK    1  A    between atoms: C2_2  and  C3_3 
REMARK    2  A    between atoms: C3_3  and  N1_4 
REMARK       I    between atoms: C4_6  and  N3_8 
REMARK    3  A    between atoms: N3_8  and  C5_10 
REMARK    4  A    between atoms: C6_15  and  C7_16 
REMARK    5  A    between atoms: C8_17  and  S1_18 
REMARK    6  A    between atoms: S1_18  and  N6_21 
REMARK    7  A    between atoms: N6_21  and  C9_23 
REMARK    8  A    between atoms: C9_23  and  C10_24 
REMARK    9  A    between atoms: C10_24  and  N7_25 
REMARK   10  A    between atoms: N7_25  and  C11_26 
REMARK   11  A    between atoms: C12_27  and  C13_28 
REMARK   12  A    between atoms: C13_28  and  C14_29 
REMARK   13  A    between atoms: C14_29  and  N8_30 
REMARK   14  A    between atoms: N8_30  and  C15_32 
REMARK   15  A    between atoms: C15_32  and  C16_33 
REMARK   16  A    between atoms: C16_33  and  C17_34 
REMARK   17  A    between atoms: C17_34  and  C18_35 
REMARK   18  A    between atoms: C18_35  and  N9_36 
REMARK   19  A    between atoms: C23_44  and  C24_45 
ROOT
HETATM    1  C9  UNL     1      -9.304  16.903  30.521  1.00  0.00     0.160 C 
ENDROOT
BRANCH   1   2
HETATM    2  N6  UNL     1      -8.673  17.202  31.824  1.00  0.00    -0.315 N 
ATOM      3  H6  UNL     1      -8.166  18.057  32.053  1.00  0.00     0.172 HD
BRANCH   2   4
HETATM    4  S1  UNL     1      -8.933  15.860  32.905  1.00  0.00     0.248 S 
HETATM    5  O1  UNL     1      -7.541  15.333  33.223  1.00  0.00    -0.201 OA
HETATM    6  O2  UNL     1      -9.637  14.793  32.125  1.00  0.00    -0.201 OA
BRANCH   4   7
HETATM    7  C8  UNL     1      -9.810  16.339  34.295  1.00  0.00     0.135 C 
HETATM    8  C7  UNL     1     -11.002  15.956  34.617  1.00  0.00     0.064 C 
BRANCH   8   9
HETATM    9  C6  UNL     1     -11.832  15.039  33.855  1.00  0.00     0.136 A 
HETATM   10  N5  UNL     1     -11.919  13.707  33.854  1.00  0.00    -0.271 N 
HETATM   11  N4  UNL     1     -12.827  13.294  32.986  1.00  0.00    -0.130 N 
ATOM     12  H5  UNL     1     -11.359  13.090  34.444  1.00  0.00     0.189 HD
HETATM   13  C5  UNL     1     -13.364  14.358  32.390  1.00  0.00     0.701 A 
ATOM     14  H4  UNL     1     -13.075  12.321  32.802  1.00  0.00     0.205 HD
HETATM   15  N13 UNL     1     -12.761  15.418  32.916  1.00  0.00    -0.174 N 
ATOM     16  H13 UNL     1     -12.960  16.384  32.658  1.00  0.00     0.186 HD
BRANCH  13  17
HETATM   17  N3  UNL     1     -14.280  14.335  31.492  1.00  0.00    -0.162 N 
HETATM   18  C4  UNL     1     -14.775  13.149  30.913  1.00  0.00     0.202 C 
HETATM   19  N1  UNL     1     -14.249  12.499  29.955  1.00  0.00    -0.364 N 
HETATM   20  N2  UNL     1     -15.994  12.629  31.463  1.00  0.00    -0.063 NA
ATOM     21  H1  UNL     1     -14.730  11.654  29.647  1.00  0.00     0.162 HD
ATOM     22  H3  UNL     1     -14.673  15.223  31.181  1.00  0.00     0.187 HD
BRANCH  19  23
HETATM   23  C3  UNL     1     -13.038  12.850  29.271  1.00  0.00     0.122 C 
BRANCH  23  24
HETATM   24  C2  UNL     1     -13.401  13.143  27.820  1.00  0.00     0.015 C 
HETATM   25  C1  UNL     1     -13.800  14.590  27.667  1.00  0.00     0.006 C 
ENDBRANCH  23  24
ENDBRANCH  19  23
ENDBRANCH  13  17
ENDBRANCH   8   9
ENDBRANCH   4   7
ENDBRANCH   2   4
ENDBRANCH   1   2
BRANCH   1  26
HETATM   26  C10 UNL     1      -8.370  17.160  29.456  1.00  0.00     0.264 C 
BRANCH  26  27
HETATM   27  N7  UNL     1      -8.411  16.305  28.250  1.00  0.00    -0.033 N 
HETATM   28  C20 UNL     1      -8.646  14.959  28.766  1.00  0.00     0.244 C 
HETATM   29  C21 UNL     1      -9.890  14.419  28.113  1.00  0.00     0.031 C 
HETATM   30  C22 UNL     1     -10.083  15.312  26.872  1.00  0.00     0.045 C 
HETATM   31  C23 UNL     1      -9.524  16.602  27.462  1.00  0.00     0.284 C 
BRANCH  27  32
HETATM   32  C11 UNL     1      -7.106  16.375  27.743  1.00  0.00     0.199 C 
HETATM   33  C12 UNL     1      -6.102  17.366  27.988  1.00  0.00    -0.000 C 
BRANCH  33  34
HETATM   34  C13 UNL     1      -6.282  18.791  27.610  1.00  0.00     0.047 C 
BRANCH  34  35
HETATM   35  C14 UNL     1      -5.280  19.157  26.496  1.00  0.00     0.117 C 
BRANCH  35  36
HETATM   36  N8  UNL     1      -5.867  19.898  25.435  1.00  0.00    -0.421 N 
ATOM     37  H8  UNL     1      -6.863  20.113  25.405  1.00  0.00     0.153 HD
BRANCH  36  38
HETATM   38  C15 UNL     1      -4.958  20.323  24.411  1.00  0.00     0.113 C 
BRANCH  38  39
HETATM   39  C16 UNL     1      -5.519  19.852  23.083  1.00  0.00     0.021 C 
BRANCH  39  40
HETATM   40  C17 UNL     1      -6.166  18.504  23.163  1.00  0.00     0.021 C 
BRANCH  40  41
HETATM   41  C18 UNL     1      -6.942  18.197  21.879  1.00  0.00     0.122 C 
BRANCH  41  42
HETATM   42  N9  UNL     1      -7.876  17.145  22.230  1.00  0.00    -0.367 N 
HETATM   43  C19 UNL     1      -8.947  16.923  21.562  1.00  0.00     0.196 C 
HETATM   44  N10 UNL     1      -9.820  15.879  21.956  1.00  0.00    -0.067 NA
HETATM   45  N11 UNL     1      -9.314  17.692  20.414  1.00  0.00    -0.067 NA
ATOM     46  H9  UNL     1      -7.673  16.559  23.039  1.00  0.00     0.161 HD
ENDBRANCH  41  42
ENDBRANCH  40  41
ENDBRANCH  39  40
ENDBRANCH  38  39
ENDBRANCH  36  38
ENDBRANCH  35  36
ENDBRANCH  34  35
ENDBRANCH  33  34
ENDBRANCH  27  32
BRANCH  31  47
HETATM   47  C24 UNL     1      -9.502  17.704  26.524  1.00  0.00     0.262 C 
HETATM   48  N12 UNL     1      -9.179  17.434  25.171  1.00  0.00    -0.060 NA
HETATM   49  O3  UNL     1      -9.749  18.868  26.834  1.00  0.00    -0.275 OA
ENDBRANCH  31  47
ENDBRANCH  26  27
ENDBRANCH   1  26
TORSDOF 19
ENDMDL
MODEL 5
REMARK VINA RESULT: -8.017220512      3.232      7.678
REMARK  19 active torsions:
REMARK  status: ('A' for Active; 'I' for Inactive)
REMARK    1  A    between atoms: C2_2  and  C3_3 
REMARK    2  A    between atoms: C3_3  and  N1_4 
REMARK       I    between atoms: C4_6  and  N3_8 
REMARK    3  A    between atoms: N3_8  and  C5_10 
REMARK    4  A    between atoms: C6_15  and  C7_16 
REMARK    5  A    between atoms: C8_17  and  S1_18 
REMARK    6  A    between atoms: S1_18  and  N6_21 
REMARK    7  A    between atoms: N6_21  and  C9_23 
REMARK    8  A    between atoms: C9_23  and  C10_24 
REMARK    9  A    between atoms: C10_24  and  N7_25 
REMARK   10  A    between atoms: N7_25  and  C11_26 
REMARK   11  A    between atoms: C12_27  and  C13_28 
REMARK   12  A    between atoms: C13_28  and  C14_29 
REMARK   13  A    between atoms: C14_29  and  N8_30 
REMARK   14  A    between atoms: N8_30  and  C15_32 
REMARK   15  A    between atoms: C15_32  and  C16_33 
REMARK   16  A    between atoms: C16_33  and  C17_34 
REMARK   17  A    between atoms: C17_34  and  C18_35 
REMARK   18  A    between atoms: C18_35  and  N9_36 
REMARK   19  A    between atoms: C23_44  and  C24_45 
ROOT
HETATM    1  C9  UNL     1     -11.157  14.663  27.492  1.00  0.00     0.160 C 
ENDROOT
BRANCH   1   2
HETATM    2  N6  UNL     1      -9.865  14.391  26.825  1.00  0.00    -0.315 N 
ATOM      3  H6  UNL     1      -9.572  13.489  26.451  1.00  0.00     0.172 HD
BRANCH   2   4
HETATM    4  S1  UNL     1      -8.925  15.859  26.784  1.00  0.00     0.248 S 
HETATM    5  O1  UNL     1      -9.946  16.985  26.839  1.00  0.00    -0.201 OA
HETATM    6  O2  UNL     1      -8.270  15.927  25.440  1.00  0.00    -0.201 OA
BRANCH   4   7
HETATM    7  C8  UNL     1      -7.791  15.908  28.067  1.00  0.00     0.135 C 
HETATM    8  C7  UNL     1      -6.827  16.758  28.202  1.00  0.00     0.064 C 
BRANCH   8   9
HETATM    9  C6  UNL     1      -6.517  17.841  27.286  1.00  0.00     0.136 A 
HETATM   10  N5  UNL     1      -6.764  19.152  27.340  1.00  0.00    -0.271 N 
HETATM   11  N4  UNL     1      -6.291  19.766  26.268  1.00  0.00    -0.130 N 
ATOM     12  H5  UNL     1      -7.252  19.618  28.105  1.00  0.00     0.189 HD
HETATM   13  C5  UNL     1      -5.714  18.861  25.476  1.00  0.00     0.701 A 
ATOM     14  H4  UNL     1      -6.356  20.767  26.078  1.00  0.00     0.205 HD
HETATM   15  N13 UNL     1      -5.851  17.693  26.093  1.00  0.00    -0.174 N 
ATOM     16  H13 UNL     1      -5.509  16.804  25.729  1.00  0.00     0.186 HD
BRANCH  13  17
HETATM   17  N3  UNL     1      -5.147  19.100  24.351  1.00  0.00    -0.162 N 
HETATM   18  C4  UNL     1      -5.742  19.857  23.322  1.00  0.00     0.202 C 
HETATM   19  N1  UNL     1      -6.580  19.437  22.462  1.00  0.00    -0.364 N 
HETATM   20  N2  UNL     1      -5.361  21.238  23.242  1.00  0.00    -0.063 NA
ATOM     21  H1  UNL     1      -6.922  20.112  21.777  1.00  0.00     0.162 HD
ATOM     22  H3  UNL     1      -4.214  18.720  24.192  1.00  0.00     0.187 HD
BRANCH  19  23
HETATM   23  C3  UNL     1      -7.086  18.098  22.371  1.00  0.00     0.122 C 
BRANCH  23  24
HETATM   24  C2  UNL     1      -7.432  17.838  20.910  1.00  0.00     0.015 C 
HETATM   25  C1  UNL     1      -8.841  17.308  20.796  1.00  0.00     0.006 C 
ENDBRANCH  23  24
ENDBRANCH  19  23
ENDBRANCH  13  17
ENDBRANCH   8   9
ENDBRANCH   4   7
ENDBRANCH   2   4
ENDBRANCH   1   2
BRANCH   1  26
HETATM   26  C10 UNL     1     -11.350  13.737  28.577  1.00  0.00     0.264 C 
BRANCH  26  27
HETATM   27  N7  UNL     1     -12.394  14.026  29.584  1.00  0.00    -0.033 N 
HETATM   28  C20 UNL     1     -13.090  15.198  29.060  1.00  0.00     0.244 C 
HETATM   29  C21 UNL     1     -14.551  14.857  28.934  1.00  0.00     0.031 C 
HETATM   30  C22 UNL     1     -14.729  13.622  29.839  1.00  0.00     0.045 C 
HETATM   31  C23 UNL     1     -13.350  13.010  29.620  1.00  0.00     0.284 C 
BRANCH  27  32
HETATM   32  C11 UNL     1     -11.669  14.400  30.723  1.00  0.00     0.199 C 
HETATM   33  C12 UNL     1     -11.301  15.712  31.160  1.00  0.00    -0.000 C 
BRANCH  33  34
HETATM   34  C13 UNL     1     -10.421  16.601  30.358  1.00  0.00     0.047 C 
BRANCH  34  35
HETATM   35  C14 UNL     1      -9.195  17.005  31.202  1.00  0.00     0.117 C 
BRANCH  35  36
HETATM   36  N8  UNL     1      -8.392  15.897  31.589  1.00  0.00    -0.421 N 
ATOM     37  H8  UNL     1      -8.060  15.203  30.919  1.00  0.00     0.153 HD
BRANCH  36  38
HETATM   38  C15 UNL     1      -8.081  15.826  32.986  1.00  0.00     0.113 C 
BRANCH  38  39
HETATM   39  C16 UNL     1      -8.815  16.961  33.672  1.00  0.00     0.021 C 
BRANCH  39  40
HETATM   40  C17 UNL     1      -9.465  16.551  34.956  1.00  0.00     0.021 C 
BRANCH  40  41
HETATM   41  C18 UNL     1     -10.803  15.855  34.690  1.00  0.00     0.122 C 
BRANCH  41  42
HETATM   42  N9  UNL     1     -10.673  14.527  35.257  1.00  0.00    -0.367 N 
HETATM   43  C19 UNL     1     -11.536  13.602  35.053  1.00  0.00     0.196 C 
HETATM   44  N10 UNL     1     -11.352  12.325  35.636  1.00  0.00    -0.067 NA
HETATM   45  N11 UNL     1     -12.701  13.799  34.247  1.00  0.00    -0.067 NA
ATOM     46  H9  UNL     1      -9.863  14.321  35.842  1.00  0.00     0.161 HD
ENDBRANCH  41  42
ENDBRANCH  40  41
ENDBRANCH  39  40
ENDBRANCH  38  39
ENDBRANCH  36  38
ENDBRANCH  35  36
ENDBRANCH  34  35
ENDBRANCH  33  34
ENDBRANCH  27  32
BRANCH  31  47
HETATM   47  C24 UNL     1     -13.127  11.802  30.385  1.00  0.00     0.262 C 
HETATM   48  N12 UNL     1     -13.835  11.630  31.601  1.00  0.00    -0.060 NA
HETATM   49  O3  UNL     1     -12.354  10.909  30.041  1.00  0.00    -0.275 OA
ENDBRANCH  31  47
ENDBRANCH  26  27
ENDBRANCH   1  26
TORSDOF 19
ENDMDL
