MODEL 1
REMARK VINA RESULT: -7.682788031      0.000      0.000
REMARK  22 active torsions:
REMARK  status: ('A' for Active; 'I' for Inactive)
REMARK    1  A    between atoms: O1_2  and  N1_3 
REMARK    2  A    between atoms: C3_6  and  C4_7 
REMARK    3  A    between atoms: C4_7  and  C5_8 
REMARK    4  A    between atoms: C8_18  and  C9_19 
REMARK    5  A    between atoms: C9_19  and  C10_20 
REMARK       I    between atoms: C10_20  and  N5_22 
REMARK    6  A    between atoms: N5_22  and  C11_23 
REMARK    7  A    between atoms: C11_23  and  C12_24 
REMARK    8  A    between atoms: C12_24  and  C13_25 
REMARK    9  A    between atoms: C13_25  and  C14_26 
REMARK   10  A    between atoms: C14_26  and  C15_27 
REMARK   11  A    between atoms: C15_27  and  N6_28 
REMARK   12  A    between atoms: N6_28  and  C16_29 
REMARK   13  A    between atoms: N6_28  and  C19_35 
REMARK   14  A    between atoms: C16_29  and  C17_30 
REMARK   15  A    between atoms: C17_30  and  N7_31 
REMARK       I    between atoms: N7_31  and  C18_32 
REMARK   16  A    between atoms: C19_35  and  O5_36 
REMARK   17  A    between atoms: C19_35  and  C20_38 
REMARK   18  A    between atoms: C20_38  and  C21_39 
REMARK   19  A    between atoms: C21_39  and  C22_40 
REMARK   20  A    between atoms: C22_40  and  C23_41 
REMARK   21  A    between atoms: C23_41  and  C24_42 
REMARK   22  A    between atoms: C24_42  and  N10_43 
REMARK       I    between atoms: N10_43  and  C25_45 
ROOT
HETATM    1  C13 UNL     1      -8.244  15.374  27.321  1.00  0.00     0.008 C 
ENDROOT
BRANCH   1   2
HETATM    2  C12 UNL     1      -7.777  16.812  27.554  1.00  0.00     0.060 C 
BRANCH   2   3
HETATM    3  C11 UNL     1      -6.983  17.354  26.415  1.00  0.00     0.159 C 
BRANCH   3   4
HETATM    4  N5  UNL     1      -7.419  17.116  25.140  1.00  0.00    -0.388 NA
HETATM    5  C10 UNL     1      -7.856  16.867  23.883  1.00  0.00     0.293 C 
HETATM    6  O4  UNL     1      -8.510  15.850  23.476  1.00  0.00    -0.257 OA
BRANCH   5   7
HETATM    7  C9  UNL     1      -7.564  17.937  22.813  1.00  0.00     0.157 C 
BRANCH   7   8
HETATM    8  C8  UNL     1      -6.758  17.385  21.717  1.00  0.00     0.219 C 
HETATM    9  N1  UNL     1      -5.439  17.932  21.482  1.00  0.00    -0.210 N 
HETATM   10  C2  UNL     1      -4.803  17.472  20.263  1.00  0.00     0.267 C 
HETATM   11  O2  UNL     1      -3.606  17.841  19.966  1.00  0.00    -0.269 OA
HETATM   12  C3  UNL     1      -5.413  16.572  19.283  1.00  0.00     0.184 C 
HETATM   13  N4  UNL     1      -6.855  16.634  19.340  1.00  0.00    -0.345 N 
HETATM   14  C7  UNL     1      -7.462  17.362  20.430  1.00  0.00     0.244 C 
ATOM     15  H4  UNL     1      -7.428  16.178  18.631  1.00  0.00     0.163 HD
HETATM   16  O3  UNL     1      -8.572  17.939  20.203  1.00  0.00    -0.271 OA
BRANCH   9  17
HETATM   17  O1  UNL     1      -4.815  18.815  22.234  1.00  0.00    -0.279 OA
HETATM   18  C1  UNL     1      -4.120  18.277  23.323  1.00  0.00     0.238 C 
ENDBRANCH   9  17
BRANCH  12  19
HETATM   19  C4  UNL     1      -5.053  17.045  17.858  1.00  0.00     0.095 C 
BRANCH  19  20
HETATM   20  C5  UNL     1      -4.027  16.133  17.288  1.00  0.00     0.045 A 
HETATM   21  C6  UNL     1      -3.595  15.722  16.085  1.00  0.00     0.133 A 
HETATM   22  N2  UNL     1      -2.696  14.954  16.633  1.00  0.00    -0.310 N 
HETATM   23  N3  UNL     1      -3.098  15.343  17.818  1.00  0.00    -0.304 N 
ATOM     24  H2  UNL     1      -1.979  14.317  16.286  1.00  0.00     0.186 HD
ATOM     25  H3  UNL     1      -2.812  15.125  18.773  1.00  0.00     0.186 HD
ENDBRANCH  19  20
ENDBRANCH  12  19
ENDBRANCH   7   8
ENDBRANCH   5   7
ENDBRANCH   3   4
ENDBRANCH   2   3
ENDBRANCH   1   2
BRANCH   1  26
HETATM   26  C14 UNL     1      -9.701  15.374  26.975  1.00  0.00     0.020 C 
BRANCH  26  27
HETATM   27  C15 UNL     1     -10.463  14.410  27.892  1.00  0.00     0.125 C 
BRANCH  27  28
HETATM   28  N6  UNL     1     -11.214  15.255  28.846  1.00  0.00    -0.360 N 
BRANCH  28  29
HETATM   29  C16 UNL     1     -12.371  15.915  28.210  1.00  0.00     0.184 C 
BRANCH  29  30
HETATM   30  C17 UNL     1     -13.522  14.925  27.964  1.00  0.00     0.178 C 
BRANCH  30  31
HETATM   31  N7  UNL     1     -14.139  14.426  29.032  1.00  0.00    -0.392 NA
HETATM   32  C18 UNL     1     -14.757  14.026  29.976  1.00  0.00     0.274 C 
HETATM   33  N8  UNL     1     -14.223  13.017  30.887  1.00  0.00    -0.052 NA
HETATM   34  N9  UNL     1     -16.091  14.473  30.329  1.00  0.00    -0.052 NA
ENDBRANCH  30  31
ENDBRANCH  29  30
ENDBRANCH  28  29
BRANCH  28  35
HETATM   35  C19 UNL     1     -10.862  15.400  30.166  1.00  0.00     0.113 C 
BRANCH  35  36
HETATM   36  O5  UNL     1     -11.447  14.507  30.976  1.00  0.00    -0.349 OA
ATOM     37  H5  UNL     1     -12.270  14.174  30.639  1.00  0.00     0.219 HD
ENDBRANCH  35  36
BRANCH  35  38
HETATM   38  C20 UNL     1      -9.998  16.331  30.849  1.00  0.00     0.084 C 
BRANCH  38  39
HETATM   39  C21 UNL     1      -8.592  15.907  31.077  1.00  0.00     0.008 C 
BRANCH  39  40
HETATM   40  C22 UNL     1      -8.205  15.997  32.511  1.00  0.00     0.002 C 
BRANCH  40  41
HETATM   41  C23 UNL     1      -8.448  14.690  33.193  1.00  0.00     0.020 C 
BRANCH  41  42
HETATM   42  C24 UNL     1      -9.490  14.749  34.286  1.00  0.00     0.122 C 
BRANCH  42  43
HETATM   43  N10 UNL     1     -10.814  14.372  33.891  1.00  0.00    -0.365 N 
HETATM   44  C25 UNL     1     -12.058  14.736  34.417  1.00  0.00     0.181 C 
HETATM   45  N11 UNL     1     -12.421  14.572  35.599  1.00  0.00    -0.374 N 
HETATM   46  N12 UNL     1     -12.999  15.339  33.489  1.00  0.00    -0.064 NA
ATOM     47 2H11 UNL     1     -11.760  14.149  36.250  1.00  0.00     0.158 HD
ATOM     48 1H11 UNL     1     -13.329  14.837  35.983  1.00  0.00     0.158 HD
ATOM     49  H10 UNL     1     -10.857  13.734  33.097  1.00  0.00     0.162 HD
ENDBRANCH  42  43
ENDBRANCH  41  42
ENDBRANCH  40  41
ENDBRANCH  39  40
ENDBRANCH  38  39
ENDBRANCH  35  38
ENDBRANCH  28  35
ENDBRANCH  27  28
ENDBRANCH  26  27
ENDBRANCH   1  26
TORSDOF 22
ENDMDL
MODEL 2
REMARK VINA RESULT: -7.669472306      2.763      5.930
REMARK  22 active torsions:
REMARK  status: ('A' for Active; 'I' for Inactive)
REMARK    1  A    between atoms: O1_2  and  N1_3 
REMARK    2  A    between atoms: C3_6  and  C4_7 
REMARK    3  A    between atoms: C4_7  and  C5_8 
REMARK    4  A    between atoms: C8_18  and  C9_19 
REMARK    5  A    between atoms: C9_19  and  C10_20 
REMARK       I    between atoms: C10_20  and  N5_22 
REMARK    6  A    between atoms: N5_22  and  C11_23 
REMARK    7  A    between atoms: C11_23  and  C12_24 
REMARK    8  A    between atoms: C12_24  and  C13_25 
REMARK    9  A    between atoms: C13_25  and  C14_26 
REMARK   10  A    between atoms: C14_26  and  C15_27 
REMARK   11  A    between atoms: C15_27  and  N6_28 
REMARK   12  A    between atoms: N6_28  and  C16_29 
REMARK   13  A    between atoms: N6_28  and  C19_35 
REMARK   14  A    between atoms: C16_29  and  C17_30 
REMARK   15  A    between atoms: C17_30  and  N7_31 
REMARK       I    between atoms: N7_31  and  C18_32 
REMARK   16  A    between atoms: C19_35  and  O5_36 
REMARK   17  A    between atoms: C19_35  and  C20_38 
REMARK   18  A    between atoms: C20_38  and  C21_39 
REMARK   19  A    between atoms: C21_39  and  C22_40 
REMARK   20  A    between atoms: C22_40  and  C23_41 
REMARK   21  A    between atoms: C23_41  and  C24_42 
REMARK   22  A    between atoms: C24_42  and  N10_43 
REMARK       I    between atoms: N10_43  and  C25_45 
ROOT
HETATM    1  C13 UNL     1      -8.435  15.290  33.270  1.00  0.00     0.008 C 
ENDROOT
BRANCH   1   2
HETATM    2  C12 UNL     1      -9.063  16.191  32.205  1.00  0.00     0.060 C 
BRANCH   2   3
HETATM    3  C11 UNL     1      -9.648  15.423  31.070  1.00  0.00     0.159 C 
BRANCH   3   4
HETATM    4  N5  UNL     1      -8.990  15.423  29.870  1.00  0.00    -0.388 NA
HETATM    5  C10 UNL     1      -8.341  15.408  28.682  1.00  0.00     0.293 C 
HETATM    6  O4  UNL     1      -8.165  14.411  27.907  1.00  0.00    -0.257 OA
BRANCH   5   7
HETATM    7  C9  UNL     1      -7.768  16.747  28.178  1.00  0.00     0.157 C 
BRANCH   7   8
HETATM    8  C8  UNL     1      -7.557  16.719  26.725  1.00  0.00     0.219 C 
HETATM    9  N1  UNL     1      -6.323  17.256  26.192  1.00  0.00    -0.210 N 
HETATM   10  C2  UNL     1      -6.290  17.374  24.748  1.00  0.00     0.267 C 
HETATM   11  O2  UNL     1      -5.229  17.786  24.146  1.00  0.00    -0.269 OA
HETATM   12  C3  UNL     1      -7.398  17.044  23.850  1.00  0.00     0.184 C 
HETATM   13  N4  UNL     1      -8.668  17.135  24.531  1.00  0.00    -0.345 N 
HETATM   14  C7  UNL     1      -8.662  17.313  25.964  1.00  0.00     0.244 C 
ATOM     15  H4  UNL     1      -9.545  17.076  24.014  1.00  0.00     0.163 HD
HETATM   16  O3  UNL     1      -9.617  17.977  26.477  1.00  0.00    -0.271 OA
BRANCH   9  17
HETATM   17  O1  UNL     1      -5.288  17.674  26.892  1.00  0.00    -0.279 OA
HETATM   18  C1  UNL     1      -5.334  19.022  27.265  1.00  0.00     0.238 C 
ENDBRANCH   9  17
BRANCH  12  19
HETATM   19  C4  UNL     1      -7.476  18.097  22.724  1.00  0.00     0.095 C 
BRANCH  19  20
HETATM   20  C5  UNL     1      -7.544  17.401  21.412  1.00  0.00     0.045 A 
HETATM   21  C6  UNL     1      -8.109  17.569  20.205  1.00  0.00     0.133 A 
HETATM   22  N2  UNL     1      -7.583  16.459  19.768  1.00  0.00    -0.310 N 
HETATM   23  N3  UNL     1      -7.019  16.276  20.936  1.00  0.00    -0.304 N 
ATOM     24  H2  UNL     1      -7.603  15.948  18.886  1.00  0.00     0.186 HD
ATOM     25  H3  UNL     1      -6.414  15.554  21.328  1.00  0.00     0.186 HD
ENDBRANCH  19  20
ENDBRANCH  12  19
ENDBRANCH   7   8
ENDBRANCH   5   7
ENDBRANCH   3   4
ENDBRANCH   2   3
ENDBRANCH   1   2
BRANCH   1  26
HETATM   26  C14 UNL     1      -9.084  15.558  34.594  1.00  0.00     0.020 C 
BRANCH  26  27
HETATM   27  C15 UNL     1     -10.524  16.040  34.391  1.00  0.00     0.125 C 
BRANCH  27  28
HETATM   28  N6  UNL     1     -11.357  14.822  34.288  1.00  0.00    -0.360 N 
BRANCH  28  29
HETATM   29  C16 UNL     1     -10.915  13.769  35.224  1.00  0.00     0.184 C 
BRANCH  29  30
HETATM   30  C17 UNL     1     -12.107  13.109  35.937  1.00  0.00     0.178 C 
BRANCH  30  31
HETATM   31  N7  UNL     1     -12.337  11.824  35.683  1.00  0.00    -0.392 NA
HETATM   32  C18 UNL     1     -12.607  10.691  35.407  1.00  0.00     0.274 C 
HETATM   33  N8  UNL     1     -11.850   9.559  35.934  1.00  0.00    -0.052 NA
HETATM   34  N9  UNL     1     -13.690  10.299  34.525  1.00  0.00    -0.052 NA
ENDBRANCH  30  31
ENDBRANCH  29  30
ENDBRANCH  28  29
BRANCH  28  35
HETATM   35  C19 UNL     1     -12.413  14.698  33.418  1.00  0.00     0.113 C 
BRANCH  35  36
HETATM   36  O5  UNL     1     -13.145  15.815  33.306  1.00  0.00    -0.349 OA
ATOM     37  H5  UNL     1     -12.958  16.313  32.520  1.00  0.00     0.219 HD
ENDBRANCH  35  36
BRANCH  35  38
HETATM   38  C20 UNL     1     -12.891  13.602  32.613  1.00  0.00     0.084 C 
BRANCH  38  39
HETATM   39  C21 UNL     1     -13.100  13.865  31.165  1.00  0.00     0.008 C 
BRANCH  39  40
HETATM   40  C22 UNL     1     -13.942  12.821  30.521  1.00  0.00     0.002 C 
BRANCH  40  41
HETATM   41  C23 UNL     1     -14.216  13.186  29.098  1.00  0.00     0.020 C 
BRANCH  41  42
HETATM   42  C24 UNL     1     -14.311  14.673  28.849  1.00  0.00     0.122 C 
BRANCH  42  43
HETATM   43  N10 UNL     1     -13.519  15.164  27.761  1.00  0.00    -0.365 N 
HETATM   44  C25 UNL     1     -12.210  15.655  27.738  1.00  0.00     0.181 C 
HETATM   45  N11 UNL     1     -11.783  16.614  28.412  1.00  0.00    -0.374 N 
HETATM   46  N12 UNL     1     -11.287  14.988  26.835  1.00  0.00    -0.064 NA
ATOM     47 2H11 UNL     1     -12.431  17.082  29.045  1.00  0.00     0.158 HD
ATOM     48 1H11 UNL     1     -10.828  16.973  28.394  1.00  0.00     0.158 HD
ATOM     49  H10 UNL     1     -13.987  15.154  26.855  1.00  0.00     0.162 HD
ENDBRANCH  42  43
ENDBRANCH  41  42
ENDBRANCH  40  41
ENDBRANCH  39  40
ENDBRANCH  38  39
ENDBRANCH  35  38
ENDBRANCH  28  35
ENDBRANCH  27  28
ENDBRANCH  26  27
ENDBRANCH   1  26
TORSDOF 22
ENDMDL
MODEL 3
REMARK VINA RESULT: -7.652211195      1.400      3.587
REMARK  22 active torsions:
REMARK  status: ('A' for Active; 'I' for Inactive)
REMARK    1  A    between atoms: O1_2  and  N1_3 
REMARK    2  A    between atoms: C3_6  and  C4_7 
REMARK    3  A    between atoms: C4_7  and  C5_8 
REMARK    4  A    between atoms: C8_18  and  C9_19 
REMARK    5  A    between atoms: C9_19  and  C10_20 
REMARK       I    between atoms: C10_20  and  N5_22 
REMARK    6  A    between atoms: N5_22  and  C11_23 
REMARK    7  A    between atoms: C11_23  and  C12_24 
REMARK    8  A    between atoms: C12_24  and  C13_25 
REMARK    9  A    between atoms: C13_25  and  C14_26 
REMARK   10  A    between atoms: C14_26  and  C15_27 
REMARK   11  A    between atoms: C15_27  and  N6_28 
REMARK   12  A    between atoms: N6_28  and  C16_29 
REMARK   13  A    between atoms: N6_28  and  C19_35 
REMARK   14  A    between atoms: C16_29  and  C17_30 
REMARK   15  A    between atoms: C17_30  and  N7_31 
REMARK       I    between atoms: N7_31  and  C18_32 
REMARK   16  A    between atoms: C19_35  and  O5_36 
REMARK   17  A    between atoms: C19_35  and  C20_38 
REMARK   18  A    between atoms: C20_38  and  C21_39 
REMARK   19  A    between atoms: C21_39  and  C22_40 
REMARK   20  A    between atoms: C22_40  and  C23_41 
REMARK   21  A    between atoms: C23_41  and  C24_42 
REMARK   22  A    between atoms: C24_42  and  N10_43 
REMARK       I    between atoms: N10_43  and  C25_45 
ROOT
HETATM    1  C13 UNL     1      -7.882  17.416  28.317  1.00  0.00     0.008 C 
ENDROOT
BRANCH   1   2
HETATM    2  C12 UNL     1      -6.497  17.086  27.758  1.00  0.00     0.060 C 
BRANCH   2   3
HETATM    3  C11 UNL     1      -6.286  17.621  26.383  1.00  0.00     0.159 C 
BRANCH   3   4
HETATM    4  N5  UNL     1      -7.054  17.129  25.363  1.00  0.00    -0.388 NA
HETATM    5  C10 UNL     1      -7.816  16.630  24.362  1.00  0.00     0.293 C 
HETATM    6  O4  UNL     1      -8.423  15.509  24.334  1.00  0.00    -0.257 OA
BRANCH   5   7
HETATM    7  C9  UNL     1      -8.008  17.517  23.116  1.00  0.00     0.157 C 
BRANCH   7   8
HETATM    8  C8  UNL     1      -7.126  17.092  22.022  1.00  0.00     0.219 C 
HETATM    9  N1  UNL     1      -5.791  17.646  21.951  1.00  0.00    -0.210 N 
HETATM   10  C2  UNL     1      -5.069  17.331  20.735  1.00  0.00     0.267 C 
HETATM   11  O2  UNL     1      -3.852  17.718  20.572  1.00  0.00    -0.269 OA
HETATM   12  C3  UNL     1      -5.609  16.564  19.610  1.00  0.00     0.184 C 
HETATM   13  N4  UNL     1      -7.050  16.637  19.570  1.00  0.00    -0.345 N 
HETATM   14  C7  UNL     1      -7.734  17.234  20.694  1.00  0.00     0.244 C 
ATOM     15  H4  UNL     1      -7.571  16.278  18.771  1.00  0.00     0.163 HD
HETATM   16  O3  UNL     1      -8.822  17.849  20.460  1.00  0.00    -0.271 OA
BRANCH   9  17
HETATM   17  O1  UNL     1      -5.221  18.424  22.849  1.00  0.00    -0.279 OA
HETATM   18  C1  UNL     1      -5.722  19.730  22.902  1.00  0.00     0.238 C 
ENDBRANCH   9  17
BRANCH  12  19
HETATM   19  C4  UNL     1      -5.144  17.202  18.284  1.00  0.00     0.095 C 
BRANCH  19  20
HETATM   20  C5  UNL     1      -4.257  16.246  17.569  1.00  0.00     0.045 A 
HETATM   21  C6  UNL     1      -3.000  15.779  17.647  1.00  0.00     0.133 A 
HETATM   22  N2  UNL     1      -3.187  15.011  16.611  1.00  0.00    -0.310 N 
HETATM   23  N3  UNL     1      -4.418  15.450  16.517  1.00  0.00    -0.304 N 
ATOM     24  H2  UNL     1      -2.614  14.346  16.090  1.00  0.00     0.186 HD
ATOM     25  H3  UNL     1      -5.195  15.256  15.885  1.00  0.00     0.186 HD
ENDBRANCH  19  20
ENDBRANCH  12  19
ENDBRANCH   7   8
ENDBRANCH   5   7
ENDBRANCH   3   4
ENDBRANCH   2   3
ENDBRANCH   1   2
BRANCH   1  26
HETATM   26  C14 UNL     1      -8.444  16.208  29.001  1.00  0.00     0.020 C 
BRANCH  26  27
HETATM   27  C15 UNL     1      -9.568  16.615  29.960  1.00  0.00     0.125 C 
BRANCH  27  28
HETATM   28  N6  UNL     1     -10.714  15.732  29.651  1.00  0.00    -0.360 N 
BRANCH  28  29
HETATM   29  C16 UNL     1     -11.081  14.880  30.799  1.00  0.00     0.184 C 
BRANCH  29  30
HETATM   30  C17 UNL     1     -10.068  15.012  31.948  1.00  0.00     0.178 C 
BRANCH  30  31
HETATM   31  N7  UNL     1     -10.516  15.485  33.108  1.00  0.00    -0.392 NA
HETATM   32  C18 UNL     1     -10.979  15.855  34.147  1.00  0.00     0.274 C 
HETATM   33  N8  UNL     1     -10.393  16.950  34.916  1.00  0.00    -0.052 NA
HETATM   34  N9  UNL     1     -12.152  15.274  34.774  1.00  0.00    -0.052 NA
ENDBRANCH  30  31
ENDBRANCH  29  30
ENDBRANCH  28  29
BRANCH  28  35
HETATM   35  C19 UNL     1     -11.349  15.717  28.433  1.00  0.00     0.113 C 
BRANCH  35  36
HETATM   36  O5  UNL     1     -12.100  16.804  28.209  1.00  0.00    -0.349 OA
ATOM     37  H5  UNL     1     -11.650  17.479  27.715  1.00  0.00     0.219 HD
ENDBRANCH  35  36
BRANCH  35  38
HETATM   38  C20 UNL     1     -11.375  14.756  27.357  1.00  0.00     0.084 C 
BRANCH  38  39
HETATM   39  C21 UNL     1     -11.981  13.431  27.648  1.00  0.00     0.008 C 
BRANCH  39  40
HETATM   40  C22 UNL     1     -13.460  13.442  27.485  1.00  0.00     0.002 C 
BRANCH  40  41
HETATM   41  C23 UNL     1     -14.125  13.243  28.808  1.00  0.00     0.020 C 
BRANCH  41  42
HETATM   42  C24 UNL     1     -14.646  14.515  29.434  1.00  0.00     0.122 C 
BRANCH  42  43
HETATM   43  N10 UNL     1     -14.685  14.522  30.866  1.00  0.00    -0.365 N 
HETATM   44  C25 UNL     1     -15.684  14.947  31.747  1.00  0.00     0.181 C 
HETATM   45  N11 UNL     1     -16.183  16.090  31.781  1.00  0.00    -0.374 N 
HETATM   46  N12 UNL     1     -16.158  13.964  32.707  1.00  0.00    -0.064 NA
ATOM     47 2H11 UNL     1     -15.850  16.779  31.107  1.00  0.00     0.158 HD
ATOM     48 1H11 UNL     1     -16.912  16.400  32.424  1.00  0.00     0.158 HD
ATOM     49  H10 UNL     1     -13.845  14.158  31.317  1.00  0.00     0.162 HD
ENDBRANCH  42  43
ENDBRANCH  41  42
ENDBRANCH  40  41
ENDBRANCH  39  40
ENDBRANCH  38  39
ENDBRANCH  35  38
ENDBRANCH  28  35
ENDBRANCH  27  28
ENDBRANCH  26  27
ENDBRANCH   1  26
TORSDOF 22
ENDMDL
MODEL 4
REMARK VINA RESULT: -7.566987539      1.470      2.019
REMARK  22 active torsions:
REMARK  status: ('A' for Active; 'I' for Inactive)
REMARK    1  A    between atoms: O1_2  and  N1_3 
REMARK    2  A    between atoms: C3_6  and  C4_7 
REMARK    3  A    between atoms: C4_7  and  C5_8 
REMARK    4  A    between atoms: C8_18  and  C9_19 
REMARK    5  A    between atoms: C9_19  and  C10_20 
REMARK       I    between atoms: C10_20  and  N5_22 
REMARK    6  A    between atoms: N5_22  and  C11_23 
REMARK    7  A    between atoms: C11_23  and  C12_24 
REMARK    8  A    between atoms: C12_24  and  C13_25 
REMARK    9  A    between atoms: C13_25  and  C14_26 
REMARK   10  A    between atoms: C14_26  and  C15_27 
REMARK   11  A    between atoms: C15_27  and  N6_28 
REMARK   12  A    between atoms: N6_28  and  C16_29 
REMARK   13  A    between atoms: N6_28  and  C19_35 
REMARK   14  A    between atoms: C16_29  and  C17_30 
REMARK   15  A    between atoms: C17_30  and  N7_31 
REMARK       I    between atoms: N7_31  and  C18_32 
REMARK   16  A    between atoms: C19_35  and  O5_36 
REMARK   17  A    between atoms: C19_35  and  C20_38 
REMARK   18  A    between atoms: C20_38  and  C21_39 
REMARK   19  A    between atoms: C21_39  and  C22_40 
REMARK   20  A    between atoms: C22_40  and  C23_41 
REMARK   21  A    between atoms: C23_41  and  C24_42 
REMARK   22  A    between atoms: C24_42  and  N10_43 
REMARK       I    between atoms: N10_43  and  C25_45 
ROOT
HETATM    1  C13 UNL     1      -6.276  18.577  27.691  1.00  0.00     0.008 C 
ENDROOT
BRANCH   1   2
HETATM    2  C12 UNL     1      -5.488  17.368  27.184  1.00  0.00     0.060 C 
BRANCH   2   3
HETATM    3  C11 UNL     1      -5.070  17.507  25.759  1.00  0.00     0.159 C 
BRANCH   3   4
HETATM    4  N5  UNL     1      -6.026  17.417  24.785  1.00  0.00    -0.388 NA
HETATM    5  C10 UNL     1      -6.978  17.318  23.828  1.00  0.00     0.293 C 
HETATM    6  O4  UNL     1      -7.996  16.548  23.823  1.00  0.00    -0.257 OA
BRANCH   5   7
HETATM    7  C9  UNL     1      -6.852  18.254  22.610  1.00  0.00     0.157 C 
BRANCH   7   8
HETATM    8  C8  UNL     1      -6.169  17.585  21.496  1.00  0.00     0.219 C 
HETATM    9  N1  UNL     1      -4.856  18.051  21.106  1.00  0.00    -0.210 N 
HETATM   10  C2  UNL     1      -4.350  17.473  19.876  1.00  0.00     0.267 C 
HETATM   11  O2  UNL     1      -3.171  17.763  19.449  1.00  0.00    -0.269 OA
HETATM   12  C3  UNL     1      -5.080  16.531  19.026  1.00  0.00     0.184 C 
HETATM   13  N4  UNL     1      -6.507  16.664  19.202  1.00  0.00    -0.345 N 
HETATM   14  C7  UNL     1      -6.986  17.498  20.280  1.00  0.00     0.244 C 
ATOM     15  H4  UNL     1      -7.159  16.183  18.583  1.00  0.00     0.163 HD
HETATM   16  O3  UNL     1      -8.088  18.107  20.105  1.00  0.00    -0.271 OA
BRANCH   9  17
HETATM   17  O1  UNL     1      -4.133  18.959  21.729  1.00  0.00    -0.279 OA
HETATM   18  C1  UNL     1      -3.227  18.450  22.667  1.00  0.00     0.238 C 
ENDBRANCH   9  17
BRANCH  12  19
HETATM   19  C4  UNL     1      -4.831  16.880  17.543  1.00  0.00     0.095 C 
BRANCH  19  20
HETATM   20  C5  UNL     1      -3.786  15.972  17.000  1.00  0.00     0.045 A 
HETATM   21  C6  UNL     1      -3.251  15.639  15.814  1.00  0.00     0.133 A 
HETATM   22  N2  UNL     1      -2.437  14.793  16.381  1.00  0.00    -0.310 N 
HETATM   23  N3  UNL     1      -2.941  15.105  17.550  1.00  0.00    -0.304 N 
ATOM     24  H2  UNL     1      -1.712  14.156  16.052  1.00  0.00     0.186 HD
ATOM     25  H3  UNL     1      -2.758  14.801  18.506  1.00  0.00     0.186 HD
ENDBRANCH  19  20
ENDBRANCH  12  19
ENDBRANCH   7   8
ENDBRANCH   5   7
ENDBRANCH   3   4
ENDBRANCH   2   3
ENDBRANCH   1   2
BRANCH   1  26
HETATM   26  C14 UNL     1      -7.743  18.304  27.561  1.00  0.00     0.020 C 
BRANCH  26  27
HETATM   27  C15 UNL     1      -8.020  16.805  27.718  1.00  0.00     0.125 C 
BRANCH  27  28
HETATM   28  N6  UNL     1      -9.490  16.664  27.801  1.00  0.00    -0.360 N 
BRANCH  28  29
HETATM   29  C16 UNL     1     -10.039  15.906  26.659  1.00  0.00     0.184 C 
BRANCH  29  30
HETATM   30  C17 UNL     1     -10.538  14.516  27.090  1.00  0.00     0.178 C 
BRANCH  30  31
HETATM   31  N7  UNL     1     -11.828  14.395  27.392  1.00  0.00    -0.392 NA
HETATM   32  C18 UNL     1     -12.986  14.212  27.630  1.00  0.00     0.274 C 
HETATM   33  N8  UNL     1     -13.811  15.210  28.305  1.00  0.00    -0.052 NA
HETATM   34  N9  UNL     1     -13.708  12.999  27.296  1.00  0.00    -0.052 NA
ENDBRANCH  30  31
ENDBRANCH  29  30
ENDBRANCH  28  29
BRANCH  28  35
HETATM   35  C19 UNL     1     -10.243  17.184  28.826  1.00  0.00     0.113 C 
BRANCH  35  36
HETATM   36  O5  UNL     1     -11.117  18.118  28.425  1.00  0.00    -0.349 OA
ATOM     37  H5  UNL     1     -11.993  17.988  28.767  1.00  0.00     0.219 HD
ENDBRANCH  35  36
BRANCH  35  38
HETATM   38  C20 UNL     1     -10.268  16.930  30.245  1.00  0.00     0.084 C 
BRANCH  38  39
HETATM   39  C21 UNL     1      -9.081  17.358  31.031  1.00  0.00     0.008 C 
BRANCH  39  40
HETATM   40  C22 UNL     1      -8.159  16.226  31.316  1.00  0.00     0.002 C 
BRANCH  40  41
HETATM   41  C23 UNL     1      -8.047  16.012  32.791  1.00  0.00     0.020 C 
BRANCH  41  42
HETATM   42  C24 UNL     1      -8.486  14.642  33.251  1.00  0.00     0.122 C 
BRANCH  42  43
HETATM   43  N10 UNL     1      -9.887  14.502  33.515  1.00  0.00    -0.365 N 
HETATM   44  C25 UNL     1     -10.808  15.413  34.041  1.00  0.00     0.181 C 
HETATM   45  N11 UNL     1     -10.711  15.987  35.145  1.00  0.00    -0.374 N 
HETATM   46  N12 UNL     1     -11.978  15.691  33.225  1.00  0.00    -0.064 NA
ATOM     47 2H11 UNL     1      -9.890  15.792  35.717  1.00  0.00     0.158 HD
ATOM     48 1H11 UNL     1     -11.384  16.651  35.528  1.00  0.00     0.158 HD
ATOM     49  H10 UNL     1     -10.276  13.589  33.281  1.00  0.00     0.162 HD
ENDBRANCH  42  43
ENDBRANCH  41  42
ENDBRANCH  40  41
ENDBRANCH  39  40
ENDBRANCH  38  39
ENDBRANCH  35  38
ENDBRANCH  28  35
ENDBRANCH  27  28
ENDBRANCH  26  27
ENDBRANCH   1  26
TORSDOF 22
ENDMDL
MODEL 5
REMARK VINA RESULT: -7.560723625      3.971     11.603
REMARK  22 active torsions:
REMARK  status: ('A' for Active; 'I' for Inactive)
REMARK    1  A    between atoms: O1_2  and  N1_3 
REMARK    2  A    between atoms: C3_6  and  C4_7 
REMARK    3  A    between atoms: C4_7  and  C5_8 
REMARK    4  A    between atoms: C8_18  and  C9_19 
REMARK    5  A    between atoms: C9_19  and  C10_20 
REMARK       I    between atoms: C10_20  and  N5_22 
REMARK    6  A    between atoms: N5_22  and  C11_23 
REMARK    7  A    between atoms: C11_23  and  C12_24 
REMARK    8  A    between atoms: C12_24  and  C13_25 
REMARK    9  A    between atoms: C13_25  and  C14_26 
REMARK   10  A    between atoms: C14_26  and  C15_27 
REMARK   11  A    between atoms: C15_27  and  N6_28 
REMARK   12  A    between atoms: N6_28  and  C16_29 
REMARK   13  A    between atoms: N6_28  and  C19_35 
REMARK   14  A    between atoms: C16_29  and  C17_30 
REMARK   15  A    between atoms: C17_30  and  N7_31 
REMARK       I    between atoms: N7_31  and  C18_32 
REMARK   16  A    between atoms: C19_35  and  O5_36 
REMARK   17  A    between atoms: C19_35  and  C20_38 
REMARK   18  A    between atoms: C20_38  and  C21_39 
REMARK   19  A    between atoms: C21_39  and  C22_40 
REMARK   20  A    between atoms: C22_40  and  C23_41 
REMARK   21  A    between atoms: C23_41  and  C24_42 
REMARK   22  A    between atoms: C24_42  and  N10_43 
REMARK       I    between atoms: N10_43  and  C25_45 
ROOT
HETATM    1  C13 UNL     1     -10.011  16.007  25.395  1.00  0.00     0.008 C 
ENDROOT
BRANCH   1   2
HETATM    2  C12 UNL     1     -10.640  15.864  26.782  1.00  0.00     0.060 C 
BRANCH   2   3
HETATM    3  C11 UNL     1     -10.893  14.443  27.158  1.00  0.00     0.159 C 
BRANCH   3   4
HETATM    4  N5  UNL     1     -12.175  14.058  27.438  1.00  0.00    -0.388 NA
HETATM    5  C10 UNL     1     -13.443  13.667  27.705  1.00  0.00     0.293 C 
HETATM    6  O4  UNL     1     -14.102  12.731  27.140  1.00  0.00    -0.257 OA
BRANCH   5   7
HETATM    7  C9  UNL     1     -14.183  14.405  28.838  1.00  0.00     0.157 C 
BRANCH   7   8
HETATM    8  C8  UNL     1     -14.200  13.605  30.069  1.00  0.00     0.219 C 
HETATM    9  N1  UNL     1     -15.363  13.674  30.927  1.00  0.00    -0.210 N 
HETATM   10  C2  UNL     1     -15.208  13.018  32.209  1.00  0.00     0.267 C 
HETATM   11  O2  UNL     1     -16.188  12.961  33.042  1.00  0.00    -0.269 OA
HETATM   12  C3  UNL     1     -13.983  12.367  32.681  1.00  0.00     0.184 C 
HETATM   13  N4  UNL     1     -12.817  12.912  32.026  1.00  0.00    -0.345 N 
HETATM   14  C7  UNL     1     -13.017  13.810  30.912  1.00  0.00     0.244 C 
ATOM     15  H4  UNL     1     -11.878  12.669  32.342  1.00  0.00     0.163 HD
HETATM   16  O3  UNL     1     -12.152  14.725  30.735  1.00  0.00    -0.271 OA
BRANCH   9  17
HETATM   17  O1  UNL     1     -16.490  14.303  30.662  1.00  0.00    -0.279 OA
HETATM   18  C1  UNL     1     -16.611  15.569  31.246  1.00  0.00     0.238 C 
ENDBRANCH   9  17
BRANCH  12  19
HETATM   19  C4  UNL     1     -13.780  12.681  34.178  1.00  0.00     0.095 C 
BRANCH  19  20
HETATM   20  C5  UNL     1     -13.134  11.514  34.835  1.00  0.00     0.045 A 
HETATM   21  C6  UNL     1     -12.321  11.259  35.873  1.00  0.00     0.133 A 
HETATM   22  N2  UNL     1     -12.345   9.980  35.621  1.00  0.00    -0.310 N 
HETATM   23  N3  UNL     1     -13.142  10.205  34.604  1.00  0.00    -0.304 N 
ATOM     24  H2  UNL     1     -11.922   9.152  36.039  1.00  0.00     0.186 HD
ATOM     25  H3  UNL     1     -13.591   9.609  33.909  1.00  0.00     0.186 HD
ENDBRANCH  19  20
ENDBRANCH  12  19
ENDBRANCH   7   8
ENDBRANCH   5   7
ENDBRANCH   3   4
ENDBRANCH   2   3
ENDBRANCH   1   2
BRANCH   1  26
HETATM   26  C14 UNL     1      -8.534  15.774  25.492  1.00  0.00     0.020 C 
BRANCH  26  27
HETATM   27  C15 UNL     1      -7.769  17.036  25.080  1.00  0.00     0.125 C 
BRANCH  27  28
HETATM   28  N6  UNL     1      -7.093  17.525  26.301  1.00  0.00    -0.360 N 
BRANCH  28  29
HETATM   29  C16 UNL     1      -5.624  17.535  26.153  1.00  0.00     0.184 C 
BRANCH  29  30
HETATM   30  C17 UNL     1      -5.069  18.969  26.114  1.00  0.00     0.178 C 
BRANCH  30  31
HETATM   31  N7  UNL     1      -4.951  19.547  24.922  1.00  0.00    -0.392 NA
HETATM   32  C18 UNL     1      -4.788  20.012  23.831  1.00  0.00     0.274 C 
HETATM   33  N8  UNL     1      -5.540  21.171  23.357  1.00  0.00    -0.052 NA
HETATM   34  N9  UNL     1      -3.851  19.494  22.852  1.00  0.00    -0.052 NA
ENDBRANCH  30  31
ENDBRANCH  29  30
ENDBRANCH  28  29
BRANCH  28  35
HETATM   35  C19 UNL     1      -7.765  17.919  27.432  1.00  0.00     0.113 C 
BRANCH  35  36
HETATM   36  O5  UNL     1      -8.691  18.861  27.202  1.00  0.00    -0.349 OA
ATOM     37  H5  UNL     1      -8.585  19.299  26.366  1.00  0.00     0.219 HD
ENDBRANCH  35  36
BRANCH  35  38
HETATM   38  C20 UNL     1      -7.662  17.527  28.816  1.00  0.00     0.084 C 
BRANCH  38  39
HETATM   39  C21 UNL     1      -7.870  16.089  29.129  1.00  0.00     0.008 C 
BRANCH  39  40
HETATM   40  C22 UNL     1      -8.925  15.886  30.158  1.00  0.00     0.002 C 
BRANCH  40  41
HETATM   41  C23 UNL     1      -8.411  16.273  31.506  1.00  0.00     0.020 C 
BRANCH  41  42
HETATM   42  C24 UNL     1      -8.564  15.199  32.558  1.00  0.00     0.122 C 
BRANCH  42  43
HETATM   43  N10 UNL     1      -9.913  14.818  32.853  1.00  0.00    -0.365 N 
HETATM   44  C25 UNL     1     -10.664  14.963  34.023  1.00  0.00     0.181 C 
HETATM   45  N11 UNL     1     -10.349  14.519  35.146  1.00  0.00    -0.374 N 
HETATM   46  N12 UNL     1     -11.921  15.681  33.899  1.00  0.00    -0.064 NA
ATOM     47 2H11 UNL     1      -9.467  14.015  35.233  1.00  0.00     0.158 HD
ATOM     48 1H11 UNL     1     -10.897  14.625  36.000  1.00  0.00     0.158 HD
ATOM     49  H10 UNL     1     -10.407  14.367  32.083  1.00  0.00     0.162 HD
ENDBRANCH  42  43
ENDBRANCH  41  42
ENDBRANCH  40  41
ENDBRANCH  39  40
ENDBRANCH  38  39
ENDBRANCH  35  38
ENDBRANCH  28  35
ENDBRANCH  27  28
ENDBRANCH  26  27
ENDBRANCH   1  26
TORSDOF 22
ENDMDL
