MODEL 1
REMARK VINA RESULT: -8.629830876      0.000      0.000
REMARK  19 active torsions:
REMARK  status: ('A' for Active; 'I' for Inactive)
REMARK       I    between atoms: C1_4  and  N3_6 
REMARK    1  A    between atoms: N3_6  and  C2_7 
REMARK    2  A    between atoms: C2_7  and  C3_8 
REMARK       I    between atoms: C3_8  and  N4_10 
REMARK    3  A    between atoms: N4_10  and  C4_12 
REMARK    4  A    between atoms: C4_12  and  C5_13 
REMARK    5  A    between atoms: C5_13  and  C6_14 
REMARK    6  A    between atoms: C5_13  and  N7_22 
REMARK    7  A    between atoms: C6_14  and  C7_15 
REMARK    8  A    between atoms: C7_15  and  C8_16 
REMARK    9  A    between atoms: C8_16  and  N5_17 
REMARK       I    between atoms: N5_17  and  C9_19 
REMARK   10  A    between atoms: N7_22  and  S1_24 
REMARK   11  A    between atoms: S1_24  and  C10_27 
REMARK   12  A    between atoms: C10_27  and  C11_28 
REMARK   13  A    between atoms: C11_28  and  C12_29 
REMARK   14  A    between atoms: C12_29  and  C13_30 
REMARK   15  A    between atoms: C13_30  and  C14_31 
REMARK   16  A    between atoms: C14_31  and  C15_32 
REMARK   17  A    between atoms: C15_32  and  N8_33 
REMARK       I    between atoms: N8_33  and  C16_35 
REMARK   18  A    between atoms: C16_35  and  C17_37 
REMARK   19  A    between atoms: C17_37  and  C18_38 
ROOT
HETATM    1  C5  UNL     1      -9.185  16.095  29.739  1.00  0.00     0.154 C 
ENDROOT
BRANCH   1   2
HETATM    2  C4  UNL     1     -10.600  16.591  29.827  1.00  0.00     0.093 C 
BRANCH   2   3
HETATM    3  N4  UNL     1     -11.687  15.759  29.499  1.00  0.00    -0.337 N 
HETATM    4  C3  UNL     1     -12.193  14.535  29.878  1.00  0.00     0.250 C 
HETATM    5  O1  UNL     1     -11.588  13.834  30.765  1.00  0.00    -0.271 OA
ATOM      6  H4  UNL     1     -12.265  16.184  28.774  1.00  0.00     0.168 HD
BRANCH   4   7
HETATM    7  C2  UNL     1     -13.440  13.907  29.332  1.00  0.00     0.378 C 
BRANCH   7   8
HETATM    8  N3  UNL     1     -14.501  13.665  30.229  1.00  0.00     0.091 N 
HETATM    9  C1  UNL     1     -14.591  12.347  30.776  1.00  0.00     0.312 C 
HETATM   10  N1  UNL     1     -13.620  11.527  30.646  1.00  0.00    -0.365 N 
HETATM   11  N2  UNL     1     -15.768  11.948  31.473  1.00  0.00    -0.055 NA
ATOM     12  H12 UNL     1     -13.685  10.586  31.036  1.00  0.00     0.158 HD
ATOM     13  H11 UNL     1     -12.778  11.812  30.147  1.00  0.00     0.158 HD
HETATM   14  C24 UNL     1     -15.757  14.305  30.002  1.00  0.00     0.379 C 
HETATM   15  C25 UNL     1     -15.707  14.899  31.355  1.00  0.00     0.271 C 
HETATM   16  O6  UNL     1     -16.576  15.459  32.069  1.00  0.00    -0.270 OA
HETATM   17  N9  UNL     1     -14.357  14.534  31.376  1.00  0.00    -0.175 N 
ATOM     18  H9  UNL     1     -13.569  14.786  31.973  1.00  0.00     0.197 HD
ENDBRANCH   7   8
ENDBRANCH   4   7
ENDBRANCH   2   3
ENDBRANCH   1   2
BRANCH   1  19
HETATM   19  C6  UNL     1      -8.171  16.474  30.689  1.00  0.00     0.005 C 
BRANCH  19  20
HETATM   20  C7  UNL     1      -8.354  16.322  32.120  1.00  0.00     0.015 C 
BRANCH  20  21
HETATM   21  C8  UNL     1      -8.926  15.186  32.831  1.00  0.00     0.092 C 
BRANCH  21  22
HETATM   22  N5  UNL     1     -10.295  14.992  33.036  1.00  0.00    -0.321 N 
HETATM   23  C9  UNL     1     -11.188  15.624  33.886  1.00  0.00     0.332 C 
HETATM   24  N6  UNL     1     -12.598  15.258  33.921  1.00  0.00    -0.040 NA
HETATM   25  O2  UNL     1     -10.863  16.530  34.667  1.00  0.00    -0.251 OA
ATOM     26  H5  UNL     1     -10.708  14.258  32.460  1.00  0.00     0.169 HD
ENDBRANCH  21  22
ENDBRANCH  20  21
ENDBRANCH  19  20
ENDBRANCH   1  19
BRANCH   1  27
HETATM   27  N7  UNL     1      -8.814  16.688  28.400  1.00  0.00    -0.306 N 
ATOM     28  H7  UNL     1      -8.589  17.676  28.281  1.00  0.00     0.173 HD
BRANCH  27  29
HETATM   29  S1  UNL     1      -8.800  15.602  27.129  1.00  0.00     0.227 S 
HETATM   30  O3  UNL     1     -10.212  15.128  26.811  1.00  0.00    -0.206 OA
HETATM   31  O4  UNL     1      -8.094  14.292  27.528  1.00  0.00    -0.206 OA
BRANCH  29  32
HETATM   32  C10 UNL     1      -8.035  16.194  25.678  1.00  0.00     0.163 C 
BRANCH  32  33
HETATM   33  C11 UNL     1      -8.918  16.954  24.753  1.00  0.00     0.017 C 
BRANCH  33  34
HETATM   34  C12 UNL     1      -9.289  16.224  23.509  1.00  0.00     0.001 C 
BRANCH  34  35
HETATM   35  C13 UNL     1      -8.864  16.866  22.227  1.00  0.00     0.002 C 
BRANCH  35  36
HETATM   36  C14 UNL     1      -7.378  16.937  22.019  1.00  0.00     0.020 C 
BRANCH  36  37
HETATM   37  C15 UNL     1      -7.020  18.397  21.707  1.00  0.00     0.122 C 
BRANCH  37  38
HETATM   38  N8  UNL     1      -6.676  19.088  22.940  1.00  0.00    -0.361 N 
HETATM   39  C16 UNL     1      -5.383  19.577  23.195  1.00  0.00     0.221 C 
HETATM   40  O5  UNL     1      -4.410  19.451  22.390  1.00  0.00    -0.273 OA
ATOM     41  H8  UNL     1      -7.401  19.222  23.645  1.00  0.00     0.162 HD
BRANCH  39  42
HETATM   42  C17 UNL     1      -5.093  20.288  24.463  1.00  0.00     0.141 C 
BRANCH  42  43
HETATM   43  C18 UNL     1      -5.140  19.322  25.597  1.00  0.00    -0.050 A 
HETATM   44  C19 UNL     1      -5.889  19.635  26.727  1.00  0.00     0.007 A 
HETATM   45  C20 UNL     1      -5.961  18.775  27.784  1.00  0.00     0.001 A 
HETATM   46  C21 UNL     1      -5.302  17.568  27.784  1.00  0.00     0.000 A 
HETATM   47  C22 UNL     1      -4.552  17.232  26.677  1.00  0.00     0.001 A 
HETATM   48  C23 UNL     1      -4.480  18.111  25.599  1.00  0.00     0.007 A 
ENDBRANCH  42  43
ENDBRANCH  39  42
ENDBRANCH  37  38
ENDBRANCH  36  37
ENDBRANCH  35  36
ENDBRANCH  34  35
ENDBRANCH  33  34
ENDBRANCH  32  33
ENDBRANCH  29  32
ENDBRANCH  27  29
ENDBRANCH   1  27
TORSDOF 19
ENDMDL
MODEL 2
REMARK VINA RESULT: -8.330726435      1.198      3.400
REMARK  19 active torsions:
REMARK  status: ('A' for Active; 'I' for Inactive)
REMARK       I    between atoms: C1_4  and  N3_6 
REMARK    1  A    between atoms: N3_6  and  C2_7 
REMARK    2  A    between atoms: C2_7  and  C3_8 
REMARK       I    between atoms: C3_8  and  N4_10 
REMARK    3  A    between atoms: N4_10  and  C4_12 
REMARK    4  A    between atoms: C4_12  and  C5_13 
REMARK    5  A    between atoms: C5_13  and  C6_14 
REMARK    6  A    between atoms: C5_13  and  N7_22 
REMARK    7  A    between atoms: C6_14  and  C7_15 
REMARK    8  A    between atoms: C7_15  and  C8_16 
REMARK    9  A    between atoms: C8_16  and  N5_17 
REMARK       I    between atoms: N5_17  and  C9_19 
REMARK   10  A    between atoms: N7_22  and  S1_24 
REMARK   11  A    between atoms: S1_24  and  C10_27 
REMARK   12  A    between atoms: C10_27  and  C11_28 
REMARK   13  A    between atoms: C11_28  and  C12_29 
REMARK   14  A    between atoms: C12_29  and  C13_30 
REMARK   15  A    between atoms: C13_30  and  C14_31 
REMARK   16  A    between atoms: C14_31  and  C15_32 
REMARK   17  A    between atoms: C15_32  and  N8_33 
REMARK       I    between atoms: N8_33  and  C16_35 
REMARK   18  A    between atoms: C16_35  and  C17_37 
REMARK   19  A    between atoms: C17_37  and  C18_38 
ROOT
HETATM    1  C5  UNL     1      -8.778  16.662  30.260  1.00  0.00     0.154 C 
ENDROOT
BRANCH   1   2
HETATM    2  C4  UNL     1     -10.235  16.987  30.431  1.00  0.00     0.093 C 
BRANCH   2   3
HETATM    3  N4  UNL     1     -11.237  16.116  29.965  1.00  0.00    -0.337 N 
HETATM    4  C3  UNL     1     -11.685  14.838  30.217  1.00  0.00     0.250 C 
HETATM    5  O1  UNL     1     -11.100  14.111  31.096  1.00  0.00    -0.271 OA
ATOM      6  H4  UNL     1     -11.789  16.557  29.229  1.00  0.00     0.168 HD
BRANCH   4   7
HETATM    7  C2  UNL     1     -12.845  14.177  29.535  1.00  0.00     0.378 C 
BRANCH   7   8
HETATM    8  N3  UNL     1     -13.877  13.661  30.346  1.00  0.00     0.091 N 
HETATM    9  C1  UNL     1     -13.793  12.275  30.688  1.00  0.00     0.312 C 
HETATM   10  N1  UNL     1     -12.717  11.622  30.474  1.00  0.00    -0.365 N 
HETATM   11  N2  UNL     1     -14.916  11.621  31.274  1.00  0.00    -0.055 NA
ATOM     12  H12 UNL     1     -12.657  10.633  30.718  1.00  0.00     0.158 HD
ATOM     13  H11 UNL     1     -11.914  12.090  30.055  1.00  0.00     0.158 HD
HETATM   14  C24 UNL     1     -15.206  14.153  30.171  1.00  0.00     0.379 C 
HETATM   15  C25 UNL     1     -15.261  14.536  31.597  1.00  0.00     0.271 C 
HETATM   16  O6  UNL     1     -16.210  14.860  32.354  1.00  0.00    -0.270 OA
HETATM   17  N9  UNL     1     -13.874  14.357  31.614  1.00  0.00    -0.175 N 
ATOM     18  H9  UNL     1     -13.138  14.619  32.271  1.00  0.00     0.197 HD
ENDBRANCH   7   8
ENDBRANCH   4   7
ENDBRANCH   2   3
ENDBRANCH   1   2
BRANCH   1  19
HETATM   19  C6  UNL     1      -7.833  16.744  31.344  1.00  0.00     0.005 C 
BRANCH  19  20
HETATM   20  C7  UNL     1      -8.219  16.532  32.726  1.00  0.00     0.015 C 
BRANCH  20  21
HETATM   21  C8  UNL     1      -8.723  15.308  33.334  1.00  0.00     0.092 C 
BRANCH  21  22
HETATM   22  N5  UNL     1     -10.077  15.035  33.553  1.00  0.00    -0.321 N 
HETATM   23  C9  UNL     1     -11.041  15.722  34.273  1.00  0.00     0.332 C 
HETATM   24  N6  UNL     1     -12.416  15.248  34.352  1.00  0.00    -0.040 NA
HETATM   25  O2  UNL     1     -10.811  16.770  34.893  1.00  0.00    -0.251 OA
ATOM     26  H5  UNL     1     -10.414  14.182  33.104  1.00  0.00     0.169 HD
ENDBRANCH  21  22
ENDBRANCH  20  21
ENDBRANCH  19  20
ENDBRANCH   1  19
BRANCH   1  27
HETATM   27  N7  UNL     1      -8.421  17.725  29.248  1.00  0.00    -0.306 N 
ATOM     28  H7  UNL     1      -8.357  18.714  29.491  1.00  0.00     0.173 HD
BRANCH  27  29
HETATM   29  S1  UNL     1      -8.137  17.157  27.701  1.00  0.00     0.227 S 
HETATM   30  O3  UNL     1      -9.447  16.985  26.942  1.00  0.00    -0.206 OA
HETATM   31  O4  UNL     1      -7.582  15.721  27.732  1.00  0.00    -0.206 OA
BRANCH  29  32
HETATM   32  C10 UNL     1      -7.035  18.130  26.763  1.00  0.00     0.163 C 
BRANCH  32  33
HETATM   33  C11 UNL     1      -5.944  18.784  27.533  1.00  0.00     0.017 C 
BRANCH  33  34
HETATM   34  C12 UNL     1      -4.580  18.258  27.248  1.00  0.00     0.001 C 
BRANCH  34  35
HETATM   35  C13 UNL     1      -4.508  17.139  26.260  1.00  0.00     0.002 C 
BRANCH  35  36
HETATM   36  C14 UNL     1      -3.596  17.386  25.092  1.00  0.00     0.020 C 
BRANCH  36  37
HETATM   37  C15 UNL     1      -4.270  18.424  24.185  1.00  0.00     0.122 C 
BRANCH  37  38
HETATM   38  N8  UNL     1      -4.849  17.758  23.029  1.00  0.00    -0.361 N 
HETATM   39  C16 UNL     1      -5.916  18.308  22.297  1.00  0.00     0.221 C 
HETATM   40  O5  UNL     1      -6.471  19.413  22.581  1.00  0.00    -0.273 OA
ATOM     41  H8  UNL     1      -4.467  16.858  22.739  1.00  0.00     0.162 HD
BRANCH  39  42
HETATM   42  C17 UNL     1      -6.457  17.591  21.117  1.00  0.00     0.141 C 
BRANCH  42  43
HETATM   43  C18 UNL     1      -7.801  17.037  21.445  1.00  0.00    -0.050 A 
HETATM   44  C19 UNL     1      -8.781  16.998  20.458  1.00  0.00     0.007 A 
HETATM   45  C20 UNL     1     -10.022  16.494  20.718  1.00  0.00     0.001 A 
HETATM   46  C21 UNL     1     -10.361  16.005  21.957  1.00  0.00     0.000 A 
HETATM   47  C22 UNL     1      -9.410  16.031  22.954  1.00  0.00     0.001 A 
HETATM   48  C23 UNL     1      -8.144  16.545  22.687  1.00  0.00     0.007 A 
ENDBRANCH  42  43
ENDBRANCH  39  42
ENDBRANCH  37  38
ENDBRANCH  36  37
ENDBRANCH  35  36
ENDBRANCH  34  35
ENDBRANCH  33  34
ENDBRANCH  32  33
ENDBRANCH  29  32
ENDBRANCH  27  29
ENDBRANCH   1  27
TORSDOF 19
ENDMDL
MODEL 3
REMARK VINA RESULT: -8.191626262      2.223     10.810
REMARK  19 active torsions:
REMARK  status: ('A' for Active; 'I' for Inactive)
REMARK       I    between atoms: C1_4  and  N3_6 
REMARK    1  A    between atoms: N3_6  and  C2_7 
REMARK    2  A    between atoms: C2_7  and  C3_8 
REMARK       I    between atoms: C3_8  and  N4_10 
REMARK    3  A    between atoms: N4_10  and  C4_12 
REMARK    4  A    between atoms: C4_12  and  C5_13 
REMARK    5  A    between atoms: C5_13  and  C6_14 
REMARK    6  A    between atoms: C5_13  and  N7_22 
REMARK    7  A    between atoms: C6_14  and  C7_15 
REMARK    8  A    between atoms: C7_15  and  C8_16 
REMARK    9  A    between atoms: C8_16  and  N5_17 
REMARK       I    between atoms: N5_17  and  C9_19 
REMARK   10  A    between atoms: N7_22  and  S1_24 
REMARK   11  A    between atoms: S1_24  and  C10_27 
REMARK   12  A    between atoms: C10_27  and  C11_28 
REMARK   13  A    between atoms: C11_28  and  C12_29 
REMARK   14  A    between atoms: C12_29  and  C13_30 
REMARK   15  A    between atoms: C13_30  and  C14_31 
REMARK   16  A    between atoms: C14_31  and  C15_32 
REMARK   17  A    between atoms: C15_32  and  N8_33 
REMARK       I    between atoms: N8_33  and  C16_35 
REMARK   18  A    between atoms: C16_35  and  C17_37 
REMARK   19  A    between atoms: C17_37  and  C18_38 
ROOT
HETATM    1  C5  UNL     1      -9.012  17.178  26.886  1.00  0.00     0.154 C 
ENDROOT
BRANCH   1   2
HETATM    2  C4  UNL     1      -7.875  18.043  27.350  1.00  0.00     0.093 C 
BRANCH   2   3
HETATM    3  N4  UNL     1      -7.020  18.680  26.430  1.00  0.00    -0.337 N 
HETATM    4  C3  UNL     1      -5.806  19.329  26.439  1.00  0.00     0.250 C 
HETATM    5  O1  UNL     1      -5.167  19.488  27.539  1.00  0.00    -0.271 OA
ATOM      6  H4  UNL     1      -7.412  18.651  25.489  1.00  0.00     0.168 HD
BRANCH   4   7
HETATM    7  C2  UNL     1      -5.120  19.899  25.233  1.00  0.00     0.378 C 
BRANCH   7   8
HETATM    8  N3  UNL     1      -4.866  19.032  24.151  1.00  0.00     0.091 N 
HETATM    9  C1  UNL     1      -5.639  19.240  22.966  1.00  0.00     0.312 C 
HETATM   10  N1  UNL     1      -6.332  20.304  22.826  1.00  0.00    -0.365 N 
HETATM   11  N2  UNL     1      -5.633  18.257  21.935  1.00  0.00    -0.055 NA
ATOM     12  H12 UNL     1      -6.884  20.452  21.981  1.00  0.00     0.158 HD
ATOM     13  H11 UNL     1      -6.336  21.007  23.564  1.00  0.00     0.158 HD
HETATM   14  C24 UNL     1      -4.539  17.668  24.420  1.00  0.00     0.379 C 
HETATM   15  C25 UNL     1      -3.279  17.813  23.662  1.00  0.00     0.271 C 
HETATM   16  O6  UNL     1      -2.460  16.974  23.208  1.00  0.00    -0.270 OA
HETATM   17  N9  UNL     1      -3.491  19.194  23.730  1.00  0.00    -0.175 N 
ATOM     18  H9  UNL     1      -2.901  20.006  23.552  1.00  0.00     0.197 HD
ENDBRANCH   7   8
ENDBRANCH   4   7
ENDBRANCH   2   3
ENDBRANCH   1   2
BRANCH   1  19
HETATM   19  C6  UNL     1      -9.690  17.395  25.634  1.00  0.00     0.005 C 
BRANCH  19  20
HETATM   20  C7  UNL     1      -9.710  16.399  24.580  1.00  0.00     0.015 C 
BRANCH  20  21
HETATM   21  C8  UNL     1      -8.663  16.106  23.609  1.00  0.00     0.092 C 
BRANCH  21  22
HETATM   22  N5  UNL     1      -8.402  16.878  22.473  1.00  0.00    -0.321 N 
HETATM   23  C9  UNL     1      -9.091  17.000  21.277  1.00  0.00     0.332 C 
HETATM   24  N6  UNL     1      -8.632  17.892  20.220  1.00  0.00    -0.040 NA
HETATM   25  O2  UNL     1     -10.129  16.373  21.019  1.00  0.00    -0.251 OA
ATOM     26  H5  UNL     1      -7.560  17.450  22.535  1.00  0.00     0.169 HD
ENDBRANCH  21  22
ENDBRANCH  20  21
ENDBRANCH  19  20
ENDBRANCH   1  19
BRANCH   1  27
HETATM   27  N7  UNL     1      -9.990  17.461  28.001  1.00  0.00    -0.306 N 
ATOM     28  H7  UNL     1     -10.679  18.211  27.949  1.00  0.00     0.173 HD
BRANCH  27  29
HETATM   29  S1  UNL     1      -9.855  16.452  29.328  1.00  0.00     0.227 S 
HETATM   30  O3  UNL     1      -9.094  15.183  28.964  1.00  0.00    -0.206 OA
HETATM   31  O4  UNL     1     -11.232  15.903  29.747  1.00  0.00    -0.206 OA
BRANCH  29  32
HETATM   32  C10 UNL     1      -9.132  17.192  30.732  1.00  0.00     0.163 C 
BRANCH  32  33
HETATM   33  C11 UNL     1      -8.124  16.363  31.445  1.00  0.00     0.017 C 
BRANCH  33  34
HETATM   34  C12 UNL     1      -8.355  16.227  32.910  1.00  0.00     0.001 C 
BRANCH  34  35
HETATM   35  C13 UNL     1      -8.756  14.866  33.381  1.00  0.00     0.002 C 
BRANCH  35  36
HETATM   36  C14 UNL     1     -10.050  14.817  34.143  1.00  0.00     0.020 C 
BRANCH  36  37
HETATM   37  C15 UNL     1     -11.154  15.351  33.221  1.00  0.00     0.122 C 
BRANCH  37  38
HETATM   38  N8  UNL     1     -11.707  14.256  32.439  1.00  0.00    -0.361 N 
HETATM   39  C16 UNL     1     -13.083  13.971  32.405  1.00  0.00     0.221 C 
HETATM   40  O5  UNL     1     -13.954  14.626  33.055  1.00  0.00    -0.273 OA
ATOM     41  H8  UNL     1     -11.071  13.673  31.894  1.00  0.00     0.162 HD
BRANCH  39  42
HETATM   42  C17 UNL     1     -13.592  12.852  31.578  1.00  0.00     0.141 C 
BRANCH  42  43
HETATM   43  C18 UNL     1     -13.445  13.192  30.135  1.00  0.00    -0.050 A 
HETATM   44  C19 UNL     1     -14.283  14.149  29.572  1.00  0.00     0.007 A 
HETATM   45  C20 UNL     1     -14.176  14.492  28.255  1.00  0.00     0.001 A 
HETATM   46  C21 UNL     1     -13.244  13.911  27.428  1.00  0.00     0.000 A 
HETATM   47  C22 UNL     1     -12.400  12.959  27.959  1.00  0.00     0.001 A 
HETATM   48  C23 UNL     1     -12.510  12.612  29.303  1.00  0.00     0.007 A 
ENDBRANCH  42  43
ENDBRANCH  39  42
ENDBRANCH  37  38
ENDBRANCH  36  37
ENDBRANCH  35  36
ENDBRANCH  34  35
ENDBRANCH  33  34
ENDBRANCH  32  33
ENDBRANCH  29  32
ENDBRANCH  27  29
ENDBRANCH   1  27
TORSDOF 19
ENDMDL
MODEL 4
REMARK VINA RESULT: -8.172996841      1.334      1.741
REMARK  19 active torsions:
REMARK  status: ('A' for Active; 'I' for Inactive)
REMARK       I    between atoms: C1_4  and  N3_6 
REMARK    1  A    between atoms: N3_6  and  C2_7 
REMARK    2  A    between atoms: C2_7  and  C3_8 
REMARK       I    between atoms: C3_8  and  N4_10 
REMARK    3  A    between atoms: N4_10  and  C4_12 
REMARK    4  A    between atoms: C4_12  and  C5_13 
REMARK    5  A    between atoms: C5_13  and  C6_14 
REMARK    6  A    between atoms: C5_13  and  N7_22 
REMARK    7  A    between atoms: C6_14  and  C7_15 
REMARK    8  A    between atoms: C7_15  and  C8_16 
REMARK    9  A    between atoms: C8_16  and  N5_17 
REMARK       I    between atoms: N5_17  and  C9_19 
REMARK   10  A    between atoms: N7_22  and  S1_24 
REMARK   11  A    between atoms: S1_24  and  C10_27 
REMARK   12  A    between atoms: C10_27  and  C11_28 
REMARK   13  A    between atoms: C11_28  and  C12_29 
REMARK   14  A    between atoms: C12_29  and  C13_30 
REMARK   15  A    between atoms: C13_30  and  C14_31 
REMARK   16  A    between atoms: C14_31  and  C15_32 
REMARK   17  A    between atoms: C15_32  and  N8_33 
REMARK       I    between atoms: N8_33  and  C16_35 
REMARK   18  A    between atoms: C16_35  and  C17_37 
REMARK   19  A    between atoms: C17_37  and  C18_38 
ROOT
HETATM    1  C5  UNL     1      -9.454  16.602  29.729  1.00  0.00     0.154 C 
ENDROOT
BRANCH   1   2
HETATM    2  C4  UNL     1     -10.883  16.641  29.269  1.00  0.00     0.093 C 
BRANCH   2   3
HETATM    3  N4  UNL     1     -11.700  15.496  29.325  1.00  0.00    -0.337 N 
HETATM    4  C3  UNL     1     -12.890  15.057  28.788  1.00  0.00     0.250 C 
HETATM    5  O1  UNL     1     -13.565  15.818  28.007  1.00  0.00    -0.271 OA
ATOM      6  H4  UNL     1     -11.294  14.789  29.938  1.00  0.00     0.168 HD
BRANCH   4   7
HETATM    7  C2  UNL     1     -13.508  13.714  29.035  1.00  0.00     0.378 C 
BRANCH   7   8
HETATM    8  N3  UNL     1     -14.261  13.543  30.215  1.00  0.00     0.091 N 
HETATM    9  C1  UNL     1     -13.808  12.540  31.126  1.00  0.00     0.312 C 
HETATM   10  N1  UNL     1     -12.652  12.015  30.986  1.00  0.00    -0.365 N 
HETATM   11  N2  UNL     1     -14.648  12.127  32.200  1.00  0.00    -0.055 NA
ATOM     12  H12 UNL     1     -12.328  11.299  31.636  1.00  0.00     0.158 HD
ATOM     13  H11 UNL     1     -12.050  12.311  30.217  1.00  0.00     0.158 HD
HETATM   14  C24 UNL     1     -15.679  13.703  30.159  1.00  0.00     0.379 C 
HETATM   15  C25 UNL     1     -15.612  14.738  31.212  1.00  0.00     0.271 C 
HETATM   16  O6  UNL     1     -16.489  15.269  31.937  1.00  0.00    -0.270 OA
HETATM   17  N9  UNL     1     -14.234  14.775  30.973  1.00  0.00    -0.175 N 
ATOM     18  H9  UNL     1     -13.492  15.424  31.234  1.00  0.00     0.197 HD
ENDBRANCH   7   8
ENDBRANCH   4   7
ENDBRANCH   2   3
ENDBRANCH   1   2
BRANCH   1  19
HETATM   19  C6  UNL     1      -9.010  17.253  30.935  1.00  0.00     0.005 C 
BRANCH  19  20
HETATM   20  C7  UNL     1      -8.378  16.527  32.020  1.00  0.00     0.015 C 
BRANCH  20  21
HETATM   21  C8  UNL     1      -8.973  16.117  33.286  1.00  0.00     0.092 C 
BRANCH  21  22
HETATM   22  N5  UNL     1     -10.343  16.149  33.561  1.00  0.00    -0.321 N 
HETATM   23  C9  UNL     1     -11.399  15.440  33.013  1.00  0.00     0.332 C 
HETATM   24  N6  UNL     1     -12.767  15.631  33.474  1.00  0.00    -0.040 NA
HETATM   25  O2  UNL     1     -11.263  14.605  32.107  1.00  0.00    -0.251 OA
ATOM     26  H5  UNL     1     -10.611  16.809  34.292  1.00  0.00     0.169 HD
ENDBRANCH  21  22
ENDBRANCH  20  21
ENDBRANCH  19  20
ENDBRANCH   1  19
BRANCH   1  27
HETATM   27  N7  UNL     1      -8.814  17.306  28.557  1.00  0.00    -0.306 N 
ATOM     28  H7  UNL     1      -9.003  18.284  28.333  1.00  0.00     0.173 HD
BRANCH  27  29
HETATM   29  S1  UNL     1      -7.771  16.362  27.653  1.00  0.00     0.227 S 
HETATM   30  O3  UNL     1      -8.099  14.883  27.823  1.00  0.00    -0.206 OA
HETATM   31  O4  UNL     1      -6.333  16.446  28.198  1.00  0.00    -0.206 OA
BRANCH  29  32
HETATM   32  C10 UNL     1      -7.717  16.762  25.956  1.00  0.00     0.163 C 
BRANCH  32  33
HETATM   33  C11 UNL     1      -8.438  15.825  25.054  1.00  0.00     0.017 C 
BRANCH  33  34
HETATM   34  C12 UNL     1      -9.591  16.426  24.327  1.00  0.00     0.001 C 
BRANCH  34  35
HETATM   35  C13 UNL     1      -9.660  16.133  22.862  1.00  0.00     0.002 C 
BRANCH  35  36
HETATM   36  C14 UNL     1      -8.490  15.365  22.316  1.00  0.00     0.020 C 
BRANCH  36  37
HETATM   37  C15 UNL     1      -7.955  16.133  21.099  1.00  0.00     0.122 C 
BRANCH  37  38
HETATM   38  N8  UNL     1      -6.642  16.677  21.406  1.00  0.00    -0.361 N 
HETATM   39  C16 UNL     1      -6.453  18.008  21.817  1.00  0.00     0.221 C 
HETATM   40  O5  UNL     1      -7.397  18.847  21.945  1.00  0.00    -0.273 OA
ATOM     41  H8  UNL     1      -5.827  16.070  21.318  1.00  0.00     0.162 HD
BRANCH  39  42
HETATM   42  C17 UNL     1      -5.093  18.505  22.131  1.00  0.00     0.141 C 
BRANCH  42  43
HETATM   43  C18 UNL     1      -4.871  18.452  23.604  1.00  0.00    -0.050 A 
HETATM   44  C19 UNL     1      -5.320  19.503  24.398  1.00  0.00     0.007 A 
HETATM   45  C20 UNL     1      -5.140  19.490  25.751  1.00  0.00     0.001 A 
HETATM   46  C21 UNL     1      -4.511  18.447  26.388  1.00  0.00     0.000 A 
HETATM   47  C22 UNL     1      -4.055  17.392  25.626  1.00  0.00     0.001 A 
HETATM   48  C23 UNL     1      -4.240  17.407  24.246  1.00  0.00     0.007 A 
ENDBRANCH  42  43
ENDBRANCH  39  42
ENDBRANCH  37  38
ENDBRANCH  36  37
ENDBRANCH  35  36
ENDBRANCH  34  35
ENDBRANCH  33  34
ENDBRANCH  32  33
ENDBRANCH  29  32
ENDBRANCH  27  29
ENDBRANCH   1  27
TORSDOF 19
ENDMDL
MODEL 5
REMARK VINA RESULT: -8.130149848      2.255     10.428
REMARK  19 active torsions:
REMARK  status: ('A' for Active; 'I' for Inactive)
REMARK       I    between atoms: C1_4  and  N3_6 
REMARK    1  A    between atoms: N3_6  and  C2_7 
REMARK    2  A    between atoms: C2_7  and  C3_8 
REMARK       I    between atoms: C3_8  and  N4_10 
REMARK    3  A    between atoms: N4_10  and  C4_12 
REMARK    4  A    between atoms: C4_12  and  C5_13 
REMARK    5  A    between atoms: C5_13  and  C6_14 
REMARK    6  A    between atoms: C5_13  and  N7_22 
REMARK    7  A    between atoms: C6_14  and  C7_15 
REMARK    8  A    between atoms: C7_15  and  C8_16 
REMARK    9  A    between atoms: C8_16  and  N5_17 
REMARK       I    between atoms: N5_17  and  C9_19 
REMARK   10  A    between atoms: N7_22  and  S1_24 
REMARK   11  A    between atoms: S1_24  and  C10_27 
REMARK   12  A    between atoms: C10_27  and  C11_28 
REMARK   13  A    between atoms: C11_28  and  C12_29 
REMARK   14  A    between atoms: C12_29  and  C13_30 
REMARK   15  A    between atoms: C13_30  and  C14_31 
REMARK   16  A    between atoms: C14_31  and  C15_32 
REMARK   17  A    between atoms: C15_32  and  N8_33 
REMARK       I    between atoms: N8_33  and  C16_35 
REMARK   18  A    between atoms: C16_35  and  C17_37 
REMARK   19  A    between atoms: C17_37  and  C18_38 
ROOT
HETATM    1  C5  UNL     1      -8.701  17.012  26.560  1.00  0.00     0.154 C 
ENDROOT
BRANCH   1   2
HETATM    2  C4  UNL     1      -7.793  18.094  27.070  1.00  0.00     0.093 C 
BRANCH   2   3
HETATM    3  N4  UNL     1      -6.894  18.758  26.214  1.00  0.00    -0.337 N 
HETATM    4  C3  UNL     1      -5.761  19.534  26.318  1.00  0.00     0.250 C 
HETATM    5  O1  UNL     1      -5.288  19.833  27.471  1.00  0.00    -0.271 OA
ATOM      6  H4  UNL     1      -7.157  18.625  25.237  1.00  0.00     0.168 HD
BRANCH   4   7
HETATM    7  C2  UNL     1      -4.987  20.095  25.163  1.00  0.00     0.378 C 
BRANCH   7   8
HETATM    8  N3  UNL     1      -4.667  19.223  24.101  1.00  0.00     0.091 N 
HETATM    9  C1  UNL     1      -5.507  19.283  22.946  1.00  0.00     0.312 C 
HETATM   10  N1  UNL     1      -6.335  20.245  22.799  1.00  0.00    -0.365 N 
HETATM   11  N2  UNL     1      -5.417  18.267  21.951  1.00  0.00    -0.055 NA
ATOM     12  H12 UNL     1      -6.934  20.288  21.974  1.00  0.00     0.158 HD
ATOM     13  H11 UNL     1      -6.399  20.972  23.511  1.00  0.00     0.158 HD
HETATM   14  C24 UNL     1      -4.159  17.923  24.403  1.00  0.00     0.379 C 
HETATM   15  C25 UNL     1      -2.958  18.194  23.586  1.00  0.00     0.271 C 
HETATM   16  O6  UNL     1      -2.058  17.448  23.126  1.00  0.00    -0.270 OA
HETATM   17  N9  UNL     1      -3.342  19.539  23.615  1.00  0.00    -0.175 N 
ATOM     18  H9  UNL     1      -2.867  20.411  23.381  1.00  0.00     0.197 HD
ENDBRANCH   7   8
ENDBRANCH   4   7
ENDBRANCH   2   3
ENDBRANCH   1   2
BRANCH   1  19
HETATM   19  C6  UNL     1      -9.703  17.253  25.553  1.00  0.00     0.005 C 
BRANCH  19  20
HETATM   20  C7  UNL     1      -9.832  16.419  24.373  1.00  0.00     0.015 C 
BRANCH  20  21
HETATM   21  C8  UNL     1      -8.797  16.072  23.408  1.00  0.00     0.092 C 
BRANCH  21  22
HETATM   22  N5  UNL     1      -8.402  16.890  22.346  1.00  0.00    -0.321 N 
HETATM   23  C9  UNL     1      -8.945  17.072  21.085  1.00  0.00     0.332 C 
HETATM   24  N6  UNL     1      -8.361  18.004  20.130  1.00  0.00    -0.040 NA
HETATM   25  O2  UNL     1      -9.948  16.466  20.679  1.00  0.00    -0.251 OA
ATOM     26  H5  UNL     1      -7.570  17.451  22.532  1.00  0.00     0.169 HD
ENDBRANCH  21  22
ENDBRANCH  20  21
ENDBRANCH  19  20
ENDBRANCH   1  19
BRANCH   1  27
HETATM   27  N7  UNL     1      -9.409  16.675  27.851  1.00  0.00    -0.306 N 
ATOM     28  H7  UNL     1      -9.781  17.390  28.476  1.00  0.00     0.173 HD
BRANCH  27  29
HETATM   29  S1  UNL     1      -9.536  15.040  28.177  1.00  0.00     0.227 S 
HETATM   30  O3  UNL     1      -9.629  14.796  29.678  1.00  0.00    -0.206 OA
HETATM   31  O4  UNL     1      -8.241  14.297  27.800  1.00  0.00    -0.206 OA
BRANCH  29  32
HETATM   32  C10 UNL     1     -10.858  14.240  27.366  1.00  0.00     0.163 C 
BRANCH  32  33
HETATM   33  C11 UNL     1     -12.162  14.954  27.411  1.00  0.00     0.017 C 
BRANCH  33  34
HETATM   34  C12 UNL     1     -13.343  14.077  27.644  1.00  0.00     0.001 C 
BRANCH  34  35
HETATM   35  C13 UNL     1     -14.018  14.232  28.970  1.00  0.00     0.002 C 
BRANCH  35  36
HETATM   36  C14 UNL     1     -14.021  12.997  29.825  1.00  0.00     0.020 C 
BRANCH  36  37
HETATM   37  C15 UNL     1     -12.603  12.810  30.381  1.00  0.00     0.122 C 
BRANCH  37  38
HETATM   38  N8  UNL     1     -12.206  14.003  31.112  1.00  0.00    -0.361 N 
HETATM   39  C16 UNL     1     -12.494  14.184  32.476  1.00  0.00     0.221 C 
HETATM   40  O5  UNL     1     -13.128  13.339  33.180  1.00  0.00    -0.273 OA
ATOM     41  H8  UNL     1     -11.699  14.736  30.615  1.00  0.00     0.162 HD
BRANCH  39  42
HETATM   42  C17 UNL     1     -12.051  15.414  33.174  1.00  0.00     0.141 C 
BRANCH  42  43
HETATM   43  C18 UNL     1     -10.564  15.499  33.139  1.00  0.00    -0.050 A 
HETATM   44  C19 UNL     1      -9.811  14.520  33.780  1.00  0.00     0.007 A 
HETATM   45  C20 UNL     1      -8.446  14.560  33.766  1.00  0.00     0.001 A 
HETATM   46  C21 UNL     1      -7.757  15.562  33.125  1.00  0.00     0.000 A 
HETATM   47  C22 UNL     1      -8.478  16.545  32.482  1.00  0.00     0.001 A 
HETATM   48  C23 UNL     1      -9.869  16.502  32.496  1.00  0.00     0.007 A 
ENDBRANCH  42  43
ENDBRANCH  39  42
ENDBRANCH  37  38
ENDBRANCH  36  37
ENDBRANCH  35  36
ENDBRANCH  34  35
ENDBRANCH  33  34
ENDBRANCH  32  33
ENDBRANCH  29  32
ENDBRANCH  27  29
ENDBRANCH   1  27
TORSDOF 19
ENDMDL
