MODEL 1
REMARK VINA RESULT: -8.664861449      0.000      0.000
REMARK  20 active torsions:
REMARK  status: ('A' for Active; 'I' for Inactive)
REMARK    1  A    between atoms: N2_4  and  N3_6 
REMARK    2  A    between atoms: N3_6  and  C1_8 
REMARK    3  A    between atoms: C1_8  and  C2_9 
REMARK    4  A    between atoms: C1_8  and  C11_20 
REMARK    5  A    between atoms: C2_9  and  C3_10 
REMARK       I    between atoms: C11_20  and  N5_22 
REMARK    6  A    between atoms: N5_22  and  C12_24 
REMARK    7  A    between atoms: C12_24  and  C13_25 
REMARK    8  A    between atoms: C12_24  and  C22_44 
REMARK    9  A    between atoms: C13_25  and  C14_26 
REMARK       I    between atoms: C14_26  and  N6_28 
REMARK   10  A    between atoms: N6_28  and  C15_30 
REMARK   11  A    between atoms: C15_30  and  C16_31 
REMARK   12  A    between atoms: C16_31  and  C17_32 
REMARK   13  A    between atoms: C17_32  and  N7_33 
REMARK   14  A    between atoms: N7_33  and  C18_36 
REMARK   15  A    between atoms: C18_36  and  C19_37 
REMARK   16  A    between atoms: C19_37  and  C20_38 
REMARK   17  A    between atoms: C20_38  and  N8_39 
REMARK       I    between atoms: C22_44  and  N11_46 
REMARK   18  A    between atoms: N11_46  and  C23_48 
REMARK   19  A    between atoms: C23_48  and  C24_49 
REMARK   20  A    between atoms: C24_49  and  C25_50 
ROOT
HETATM    1  C12 UNL     1      -8.939  16.467  29.955  1.00  0.00     0.185 C 
ENDROOT
BRANCH   1   2
HETATM    2  N5  UNL     1      -9.633  15.611  29.029  1.00  0.00    -0.346 N 
HETATM    3  C11 UNL     1     -10.722  16.103  28.263  1.00  0.00     0.242 C 
HETATM    4  O1  UNL     1     -11.042  17.327  28.448  1.00  0.00    -0.271 OA
ATOM      5  H5  UNL     1      -9.340  14.639  28.923  1.00  0.00     0.163 HD
BRANCH   3   6
HETATM    6  C1  UNL     1     -11.490  15.313  27.285  1.00  0.00     0.197 C 
BRANCH   6   7
HETATM    7  N3  UNL     1     -11.323  15.911  25.983  1.00  0.00    -0.308 N 
ATOM      8  H3  UNL     1     -12.130  16.002  25.366  1.00  0.00     0.182 HD
BRANCH   7   9
HETATM    9  N2  UNL     1     -10.084  16.364  25.557  1.00  0.00    -0.253 N 
HETATM   10  N1  UNL     1      -9.875  17.606  25.453  1.00  0.00    -0.331 N 
ATOM     11  H12 UNL     1     -10.624  18.258  25.685  1.00  0.00     0.178 HD
ATOM     12  H11 UNL     1      -8.963  17.939  25.140  1.00  0.00     0.178 HD
ATOM     13  H2  UNL     1      -9.345  15.698  25.329  1.00  0.00     0.207 HD
ENDBRANCH   7   9
ENDBRANCH   6   7
BRANCH   6  14
HETATM   14  C2  UNL     1     -12.973  15.223  27.644  1.00  0.00     0.077 C 
BRANCH  14  15
HETATM   15  C3  UNL     1     -13.141  14.060  28.554  1.00  0.00    -0.028 A 
HETATM   16  C4  UNL     1     -12.286  12.979  28.621  1.00  0.00     0.096 A 
HETATM   17  N4  UNL     1     -12.800  12.168  29.559  1.00  0.00    -0.365 N 
HETATM   18  C5  UNL     1     -13.927  12.681  30.083  1.00  0.00     0.042 A 
ATOM     19  H4  UNL     1     -12.388  11.277  29.839  1.00  0.00     0.165 HD
HETATM   20  C6  UNL     1     -14.788  12.207  31.062  1.00  0.00     0.030 A 
HETATM   21  C10 UNL     1     -14.173  13.900  29.454  1.00  0.00    -0.002 A 
HETATM   22  C7  UNL     1     -15.894  12.943  31.419  1.00  0.00     0.002 A 
HETATM   23  C8  UNL     1     -16.140  14.164  30.792  1.00  0.00     0.001 A 
HETATM   24  C9  UNL     1     -15.284  14.634  29.817  1.00  0.00     0.014 A 
ENDBRANCH  14  15
ENDBRANCH   6  14
ENDBRANCH   3   6
ENDBRANCH   1   2
BRANCH   1  25
HETATM   25  C13 UNL     1      -7.496  16.671  29.657  1.00  0.00     0.138 C 
BRANCH  25  26
HETATM   26  C14 UNL     1      -7.342  17.411  28.348  1.00  0.00     0.223 C 
HETATM   27  O2  UNL     1      -7.430  16.740  27.335  1.00  0.00    -0.273 OA
HETATM   28  N6  UNL     1      -7.119  18.773  28.424  1.00  0.00    -0.341 N 
ATOM     29  H6  UNL     1      -7.100  19.140  29.376  1.00  0.00     0.167 HD
BRANCH  28  30
HETATM   30  C15 UNL     1      -6.910  19.750  27.425  1.00  0.00     0.065 C 
BRANCH  30  31
HETATM   31  C16 UNL     1      -5.579  19.937  26.882  1.00  0.00     0.072 C 
BRANCH  31  32
HETATM   32  C17 UNL     1      -5.171  19.311  25.615  1.00  0.00     0.237 C 
BRANCH  32  33
HETATM   33  N7  UNL     1      -6.256  18.617  24.985  1.00  0.00    -0.075 N 
ATOM     34  H72 UNL     1      -6.762  18.030  25.648  1.00  0.00     0.277 HD
ATOM     35  H71 UNL     1      -7.013  19.253  24.733  1.00  0.00     0.277 HD
BRANCH  33  36
HETATM   36  C18 UNL     1      -5.800  17.867  23.857  1.00  0.00     0.234 C 
BRANCH  36  37
HETATM   37  C19 UNL     1      -6.006  18.624  22.589  1.00  0.00     0.047 C 
BRANCH  37  38
HETATM   38  C20 UNL     1      -6.617  17.689  21.556  1.00  0.00     0.123 C 
BRANCH  38  39
HETATM   39  N8  UNL     1      -7.625  16.885  22.225  1.00  0.00    -0.367 N 
HETATM   40  C21 UNL     1      -8.843  16.857  21.775  1.00  0.00     0.196 C 
HETATM   41  N9  UNL     1      -9.154  17.629  20.619  1.00  0.00    -0.067 NA
HETATM   42  N10 UNL     1      -9.798  16.068  22.450  1.00  0.00    -0.067 NA
ATOM     43  H8  UNL     1      -7.376  16.341  23.052  1.00  0.00     0.161 HD
ENDBRANCH  38  39
ENDBRANCH  37  38
ENDBRANCH  36  37
ENDBRANCH  33  36
ENDBRANCH  32  33
ENDBRANCH  31  32
ENDBRANCH  30  31
ENDBRANCH  28  30
ENDBRANCH  25  26
ENDBRANCH   1  25
BRANCH   1  44
HETATM   44  C22 UNL     1      -9.007  15.898  31.354  1.00  0.00     0.240 C 
HETATM   45  O3  UNL     1      -9.232  14.690  31.543  1.00  0.00    -0.271 OA
HETATM   46  N11 UNL     1      -8.812  16.763  32.451  1.00  0.00    -0.359 N 
ATOM     47  H11 UNL     1      -8.626  17.752  32.284  1.00  0.00     0.162 HD
BRANCH  46  48
HETATM   48  C23 UNL     1      -8.871  16.271  33.797  1.00  0.00     0.128 C 
BRANCH  48  49
HETATM   49  C24 UNL     1     -10.099  16.642  34.567  1.00  0.00     0.076 C 
BRANCH  49  50
HETATM   50  C25 UNL     1     -11.060  15.482  34.467  1.00  0.00     0.010 A 
HETATM   51  C26 UNL     1     -12.059  15.470  33.507  1.00  0.00     0.025 A 
HETATM   52  C27 UNL     1     -12.951  14.434  33.398  1.00  0.00     0.003 A 
HETATM   53  C28 UNL     1     -12.832  13.385  34.276  1.00  0.00     0.017 A 
HETATM   54  C29 UNL     1     -11.838  13.389  35.238  1.00  0.00     0.088 A 
HETATM   55  N12 UNL     1     -10.987  14.442  35.296  1.00  0.00    -0.369 N 
ATOM     56  H12 UNL     1     -10.256  14.438  36.008  1.00  0.00     0.165 HD
ENDBRANCH  49  50
ENDBRANCH  48  49
ENDBRANCH  46  48
ENDBRANCH   1  44
TORSDOF 20
ENDMDL
MODEL 2
REMARK VINA RESULT: -8.299857991      1.045      1.491
REMARK  20 active torsions:
REMARK  status: ('A' for Active; 'I' for Inactive)
REMARK    1  A    between atoms: N2_4  and  N3_6 
REMARK    2  A    between atoms: N3_6  and  C1_8 
REMARK    3  A    between atoms: C1_8  and  C2_9 
REMARK    4  A    between atoms: C1_8  and  C11_20 
REMARK    5  A    between atoms: C2_9  and  C3_10 
REMARK       I    between atoms: C11_20  and  N5_22 
REMARK    6  A    between atoms: N5_22  and  C12_24 
REMARK    7  A    between atoms: C12_24  and  C13_25 
REMARK    8  A    between atoms: C12_24  and  C22_44 
REMARK    9  A    between atoms: C13_25  and  C14_26 
REMARK       I    between atoms: C14_26  and  N6_28 
REMARK   10  A    between atoms: N6_28  and  C15_30 
REMARK   11  A    between atoms: C15_30  and  C16_31 
REMARK   12  A    between atoms: C16_31  and  C17_32 
REMARK   13  A    between atoms: C17_32  and  N7_33 
REMARK   14  A    between atoms: N7_33  and  C18_36 
REMARK   15  A    between atoms: C18_36  and  C19_37 
REMARK   16  A    between atoms: C19_37  and  C20_38 
REMARK   17  A    between atoms: C20_38  and  N8_39 
REMARK       I    between atoms: C22_44  and  N11_46 
REMARK   18  A    between atoms: N11_46  and  C23_48 
REMARK   19  A    between atoms: C23_48  and  C24_49 
REMARK   20  A    between atoms: C24_49  and  C25_50 
ROOT
HETATM    1  C12 UNL     1      -9.429  16.674  30.330  1.00  0.00     0.185 C 
ENDROOT
BRANCH   1   2
HETATM    2  N5  UNL     1      -9.997  15.752  29.381  1.00  0.00    -0.346 N 
HETATM    3  C11 UNL     1     -10.911  16.199  28.392  1.00  0.00     0.242 C 
HETATM    4  O1  UNL     1     -11.195  17.446  28.401  1.00  0.00    -0.271 OA
ATOM      5  H5  UNL     1      -9.739  14.765  29.420  1.00  0.00     0.163 HD
BRANCH   3   6
HETATM    6  C1  UNL     1     -11.539  15.340  27.374  1.00  0.00     0.197 C 
BRANCH   6   7
HETATM    7  N3  UNL     1     -11.305  15.924  26.076  1.00  0.00    -0.308 N 
ATOM      8  H3  UNL     1     -12.072  15.984  25.406  1.00  0.00     0.182 HD
BRANCH   7   9
HETATM    9  N2  UNL     1     -10.054  16.406  25.723  1.00  0.00    -0.253 N 
HETATM   10  N1  UNL     1      -9.909  17.634  25.460  1.00  0.00    -0.331 N 
ATOM     11  H12 UNL     1     -10.718  18.253  25.511  1.00  0.00     0.178 HD
ATOM     12  H11 UNL     1      -8.988  17.988  25.200  1.00  0.00     0.178 HD
ATOM     13  H2  UNL     1      -9.255  15.774  25.676  1.00  0.00     0.207 HD
ENDBRANCH   7   9
ENDBRANCH   6   7
BRANCH   6  14
HETATM   14  C2  UNL     1     -13.037  15.152  27.612  1.00  0.00     0.077 C 
BRANCH  14  15
HETATM   15  C3  UNL     1     -13.199  14.028  28.570  1.00  0.00    -0.028 A 
HETATM   16  C4  UNL     1     -12.328  12.965  28.695  1.00  0.00     0.096 A 
HETATM   17  N4  UNL     1     -12.841  12.188  29.663  1.00  0.00    -0.365 N 
HETATM   18  C5  UNL     1     -13.982  12.706  30.150  1.00  0.00     0.042 A 
ATOM     19  H4  UNL     1     -12.419  11.318  29.986  1.00  0.00     0.165 HD
HETATM   20  C6  UNL     1     -14.848  12.263  31.140  1.00  0.00     0.030 A 
HETATM   21  C10 UNL     1     -14.239  13.892  29.465  1.00  0.00    -0.002 A 
HETATM   22  C7  UNL     1     -15.968  12.997  31.451  1.00  0.00     0.002 A 
HETATM   23  C8  UNL     1     -16.225  14.184  30.767  1.00  0.00     0.001 A 
HETATM   24  C9  UNL     1     -15.365  14.624  29.782  1.00  0.00     0.014 A 
ENDBRANCH  14  15
ENDBRANCH   6  14
ENDBRANCH   3   6
ENDBRANCH   1   2
BRANCH   1  25
HETATM   25  C13 UNL     1      -7.945  16.768  30.299  1.00  0.00     0.138 C 
BRANCH  25  26
HETATM   26  C14 UNL     1      -7.477  17.058  28.891  1.00  0.00     0.223 C 
HETATM   27  O2  UNL     1      -7.107  16.099  28.238  1.00  0.00    -0.273 OA
HETATM   28  N6  UNL     1      -7.517  18.377  28.480  1.00  0.00    -0.341 N 
ATOM     29  H6  UNL     1      -7.882  19.021  29.181  1.00  0.00     0.167 HD
BRANCH  28  30
HETATM   30  C15 UNL     1      -7.143  18.996  27.266  1.00  0.00     0.065 C 
BRANCH  30  31
HETATM   31  C16 UNL     1      -5.736  19.192  26.974  1.00  0.00     0.072 C 
BRANCH  31  32
HETATM   32  C17 UNL     1      -5.221  19.128  25.598  1.00  0.00     0.237 C 
BRANCH  32  33
HETATM   33  N7  UNL     1      -5.669  20.235  24.805  1.00  0.00    -0.075 N 
ATOM     34  H72 UNL     1      -6.677  20.369  24.882  1.00  0.00     0.277 HD
ATOM     35  H71 UNL     1      -5.364  21.126  25.197  1.00  0.00     0.277 HD
BRANCH  33  36
HETATM   36  C18 UNL     1      -5.260  20.090  23.443  1.00  0.00     0.234 C 
BRANCH  36  37
HETATM   37  C19 UNL     1      -5.509  18.706  22.951  1.00  0.00     0.047 C 
BRANCH  37  38
HETATM   38  C20 UNL     1      -6.807  18.696  22.156  1.00  0.00     0.123 C 
BRANCH  38  39
HETATM   39  N8  UNL     1      -7.661  17.661  22.715  1.00  0.00    -0.367 N 
HETATM   40  C21 UNL     1      -8.642  17.176  22.016  1.00  0.00     0.196 C 
HETATM   41  N9  UNL     1      -8.852  17.685  20.702  1.00  0.00    -0.067 NA
HETATM   42  N10 UNL     1      -9.453  16.173  22.589  1.00  0.00    -0.067 NA
ATOM     43  H8  UNL     1      -7.489  17.314  23.658  1.00  0.00     0.161 HD
ENDBRANCH  38  39
ENDBRANCH  37  38
ENDBRANCH  36  37
ENDBRANCH  33  36
ENDBRANCH  32  33
ENDBRANCH  31  32
ENDBRANCH  30  31
ENDBRANCH  28  30
ENDBRANCH  25  26
ENDBRANCH   1  25
BRANCH   1  44
HETATM   44  C22 UNL     1      -9.801  16.277  31.739  1.00  0.00     0.240 C 
HETATM   45  O3  UNL     1      -8.970  16.337  32.662  1.00  0.00    -0.271 OA
HETATM   46  N11 UNL     1     -11.116  15.833  31.997  1.00  0.00    -0.359 N 
ATOM     47  H11 UNL     1     -11.790  15.790  31.233  1.00  0.00     0.162 HD
BRANCH  46  48
HETATM   48  C23 UNL     1     -11.516  15.442  33.318  1.00  0.00     0.128 C 
BRANCH  48  49
HETATM   49  C24 UNL     1     -12.899  14.881  33.434  1.00  0.00     0.076 C 
BRANCH  49  50
HETATM   50  C25 UNL     1     -12.841  13.746  34.427  1.00  0.00     0.010 A 
HETATM   51  C26 UNL     1     -11.694  13.507  35.166  1.00  0.00     0.025 A 
HETATM   52  C27 UNL     1     -11.610  12.479  36.069  1.00  0.00     0.003 A 
HETATM   53  C28 UNL     1     -12.710  11.672  36.233  1.00  0.00     0.017 A 
HETATM   54  C29 UNL     1     -13.860  11.903  35.500  1.00  0.00     0.088 A 
HETATM   55  N12 UNL     1     -13.881  12.936  34.622  1.00  0.00    -0.369 N 
ATOM     56  H12 UNL     1     -14.732  13.100  34.084  1.00  0.00     0.165 HD
ENDBRANCH  49  50
ENDBRANCH  48  49
ENDBRANCH  46  48
ENDBRANCH   1  44
TORSDOF 20
ENDMDL
MODEL 3
REMARK VINA RESULT: -8.291076753      2.003      9.172
REMARK  20 active torsions:
REMARK  status: ('A' for Active; 'I' for Inactive)
REMARK    1  A    between atoms: N2_4  and  N3_6 
REMARK    2  A    between atoms: N3_6  and  C1_8 
REMARK    3  A    between atoms: C1_8  and  C2_9 
REMARK    4  A    between atoms: C1_8  and  C11_20 
REMARK    5  A    between atoms: C2_9  and  C3_10 
REMARK       I    between atoms: C11_20  and  N5_22 
REMARK    6  A    between atoms: N5_22  and  C12_24 
REMARK    7  A    between atoms: C12_24  and  C13_25 
REMARK    8  A    between atoms: C12_24  and  C22_44 
REMARK    9  A    between atoms: C13_25  and  C14_26 
REMARK       I    between atoms: C14_26  and  N6_28 
REMARK   10  A    between atoms: N6_28  and  C15_30 
REMARK   11  A    between atoms: C15_30  and  C16_31 
REMARK   12  A    between atoms: C16_31  and  C17_32 
REMARK   13  A    between atoms: C17_32  and  N7_33 
REMARK   14  A    between atoms: N7_33  and  C18_36 
REMARK   15  A    between atoms: C18_36  and  C19_37 
REMARK   16  A    between atoms: C19_37  and  C20_38 
REMARK   17  A    between atoms: C20_38  and  N8_39 
REMARK       I    between atoms: C22_44  and  N11_46 
REMARK   18  A    between atoms: N11_46  and  C23_48 
REMARK   19  A    between atoms: C23_48  and  C24_49 
REMARK   20  A    between atoms: C24_49  and  C25_50 
ROOT
HETATM    1  C12 UNL     1      -7.606  16.515  28.974  1.00  0.00     0.185 C 
ENDROOT
BRANCH   1   2
HETATM    2  N5  UNL     1      -8.459  15.958  27.957  1.00  0.00    -0.346 N 
HETATM    3  C11 UNL     1      -9.298  16.795  27.176  1.00  0.00     0.242 C 
HETATM    4  O1  UNL     1      -9.252  18.047  27.432  1.00  0.00    -0.271 OA
ATOM      5  H5  UNL     1      -8.461  14.950  27.796  1.00  0.00     0.163 HD
BRANCH   3   6
HETATM    6  C1  UNL     1     -10.199  16.327  26.109  1.00  0.00     0.197 C 
BRANCH   6   7
HETATM    7  N3  UNL     1     -11.389  15.788  26.720  1.00  0.00    -0.308 N 
ATOM      8  H3  UNL     1     -11.799  14.930  26.349  1.00  0.00     0.182 HD
BRANCH   7   9
HETATM    9  N2  UNL     1     -11.985  16.415  27.803  1.00  0.00    -0.253 N 
HETATM   10  N1  UNL     1     -13.200  16.188  28.065  1.00  0.00    -0.331 N 
ATOM     11  H12 UNL     1     -13.725  15.544  27.473  1.00  0.00     0.178 HD
ATOM     12  H11 UNL     1     -13.639  16.650  28.861  1.00  0.00     0.178 HD
ATOM     13  H2  UNL     1     -11.446  17.057  28.384  1.00  0.00     0.207 HD
ENDBRANCH   7   9
ENDBRANCH   6   7
BRANCH   6  14
HETATM   14  C2  UNL     1      -9.542  15.282  25.207  1.00  0.00     0.077 C 
BRANCH  14  15
HETATM   15  C3  UNL     1      -8.708  16.010  24.216  1.00  0.00    -0.028 A 
HETATM   16  C4  UNL     1      -7.479  16.576  24.481  1.00  0.00     0.096 A 
HETATM   17  N4  UNL     1      -7.076  17.129  23.326  1.00  0.00    -0.365 N 
HETATM   18  C5  UNL     1      -7.984  16.939  22.353  1.00  0.00     0.042 A 
ATOM     19  H4  UNL     1      -6.195  17.627  23.202  1.00  0.00     0.165 HD
HETATM   20  C6  UNL     1      -8.001  17.323  21.019  1.00  0.00     0.030 A 
HETATM   21  C10 UNL     1      -9.048  16.221  22.896  1.00  0.00    -0.002 A 
HETATM   22  C7  UNL     1      -9.075  16.994  20.224  1.00  0.00     0.002 A 
HETATM   23  C8  UNL     1     -10.139  16.276  20.767  1.00  0.00     0.001 A 
HETATM   24  C9  UNL     1     -10.121  15.895  22.093  1.00  0.00     0.014 A 
ENDBRANCH  14  15
ENDBRANCH   6  14
ENDBRANCH   3   6
ENDBRANCH   1   2
BRANCH   1  25
HETATM   25  C13 UNL     1      -8.259  17.517  29.858  1.00  0.00     0.138 C 
BRANCH  25  26
HETATM   26  C14 UNL     1      -8.937  16.819  31.014  1.00  0.00     0.223 C 
HETATM   27  O2  UNL     1     -10.153  16.889  31.048  1.00  0.00    -0.273 OA
HETATM   28  N6  UNL     1      -8.117  16.167  31.916  1.00  0.00    -0.341 N 
ATOM     29  H6  UNL     1      -7.124  16.216  31.688  1.00  0.00     0.167 HD
BRANCH  28  30
HETATM   30  C15 UNL     1      -8.403  15.447  33.098  1.00  0.00     0.065 C 
BRANCH  30  31
HETATM   31  C16 UNL     1      -8.907  16.158  34.257  1.00  0.00     0.072 C 
BRANCH  31  32
HETATM   32  C17 UNL     1     -10.333  16.129  34.617  1.00  0.00     0.237 C 
BRANCH  32  33
HETATM   33  N7  UNL     1     -10.712  14.879  35.209  1.00  0.00    -0.075 N 
ATOM     34  H72 UNL     1     -10.064  14.132  34.958  1.00  0.00     0.277 HD
ATOM     35  H71 UNL     1     -10.563  14.881  36.218  1.00  0.00     0.277 HD
BRANCH  33  36
HETATM   36  C18 UNL     1     -12.060  14.540  34.875  1.00  0.00     0.234 C 
BRANCH  36  37
HETATM   37  C19 UNL     1     -12.476  15.183  33.597  1.00  0.00     0.047 C 
BRANCH  37  38
HETATM   38  C20 UNL     1     -12.689  14.099  32.551  1.00  0.00     0.123 C 
BRANCH  38  39
HETATM   39  N8  UNL     1     -11.678  14.270  31.522  1.00  0.00    -0.367 N 
HETATM   40  C21 UNL     1     -11.952  13.987  30.284  1.00  0.00     0.196 C 
HETATM   41  N9  UNL     1     -13.257  13.510  29.972  1.00  0.00    -0.067 NA
HETATM   42  N10 UNL     1     -10.946  14.164  29.309  1.00  0.00    -0.067 NA
ATOM     43  H8  UNL     1     -10.751  14.613  31.771  1.00  0.00     0.161 HD
ENDBRANCH  38  39
ENDBRANCH  37  38
ENDBRANCH  36  37
ENDBRANCH  33  36
ENDBRANCH  32  33
ENDBRANCH  31  32
ENDBRANCH  30  31
ENDBRANCH  28  30
ENDBRANCH  25  26
ENDBRANCH   1  25
BRANCH   1  44
HETATM   44  C22 UNL     1      -6.420  17.210  28.346  1.00  0.00     0.240 C 
HETATM   45  O3  UNL     1      -5.386  16.581  28.061  1.00  0.00    -0.271 OA
HETATM   46  N11 UNL     1      -6.503  18.594  28.086  1.00  0.00    -0.359 N 
ATOM     47  H11 UNL     1      -7.356  19.100  28.322  1.00  0.00     0.162 HD
BRANCH  46  48
HETATM   48  C23 UNL     1      -5.402  19.299  27.494  1.00  0.00     0.128 C 
BRANCH  48  49
HETATM   49  C24 UNL     1      -5.590  19.709  26.067  1.00  0.00     0.076 C 
BRANCH  49  50
HETATM   50  C25 UNL     1      -4.601  18.924  25.240  1.00  0.00     0.010 A 
HETATM   51  C26 UNL     1      -4.031  19.475  24.104  1.00  0.00     0.025 A 
HETATM   52  C27 UNL     1      -3.136  18.783  23.329  1.00  0.00     0.003 A 
HETATM   53  C28 UNL     1      -2.807  17.505  23.709  1.00  0.00     0.017 A 
HETATM   54  C29 UNL     1      -3.371  16.946  24.841  1.00  0.00     0.088 A 
HETATM   55  N12 UNL     1      -4.250  17.681  25.566  1.00  0.00    -0.369 N 
ATOM     56  H12 UNL     1      -4.662  17.263  26.400  1.00  0.00     0.165 HD
ENDBRANCH  49  50
ENDBRANCH  48  49
ENDBRANCH  46  48
ENDBRANCH   1  44
TORSDOF 20
ENDMDL
MODEL 4
REMARK VINA RESULT: -8.120255391      1.203      1.659
REMARK  20 active torsions:
REMARK  status: ('A' for Active; 'I' for Inactive)
REMARK    1  A    between atoms: N2_4  and  N3_6 
REMARK    2  A    between atoms: N3_6  and  C1_8 
REMARK    3  A    between atoms: C1_8  and  C2_9 
REMARK    4  A    between atoms: C1_8  and  C11_20 
REMARK    5  A    between atoms: C2_9  and  C3_10 
REMARK       I    between atoms: C11_20  and  N5_22 
REMARK    6  A    between atoms: N5_22  and  C12_24 
REMARK    7  A    between atoms: C12_24  and  C13_25 
REMARK    8  A    between atoms: C12_24  and  C22_44 
REMARK    9  A    between atoms: C13_25  and  C14_26 
REMARK       I    between atoms: C14_26  and  N6_28 
REMARK   10  A    between atoms: N6_28  and  C15_30 
REMARK   11  A    between atoms: C15_30  and  C16_31 
REMARK   12  A    between atoms: C16_31  and  C17_32 
REMARK   13  A    between atoms: C17_32  and  N7_33 
REMARK   14  A    between atoms: N7_33  and  C18_36 
REMARK   15  A    between atoms: C18_36  and  C19_37 
REMARK   16  A    between atoms: C19_37  and  C20_38 
REMARK   17  A    between atoms: C20_38  and  N8_39 
REMARK       I    between atoms: C22_44  and  N11_46 
REMARK   18  A    between atoms: N11_46  and  C23_48 
REMARK   19  A    between atoms: C23_48  and  C24_49 
REMARK   20  A    between atoms: C24_49  and  C25_50 
ROOT
HETATM    1  C12 UNL     1      -8.907  16.534  29.942  1.00  0.00     0.185 C 
ENDROOT
BRANCH   1   2
HETATM    2  N5  UNL     1      -9.573  15.678  28.996  1.00  0.00    -0.346 N 
HETATM    3  C11 UNL     1     -10.732  16.121  28.307  1.00  0.00     0.242 C 
HETATM    4  O1  UNL     1     -11.141  17.302  28.580  1.00  0.00    -0.271 OA
ATOM      5  H5  UNL     1      -9.208  14.742  28.818  1.00  0.00     0.163 HD
BRANCH   3   6
HETATM    6  C1  UNL     1     -11.480  15.328  27.317  1.00  0.00     0.197 C 
BRANCH   6   7
HETATM    7  N3  UNL     1     -11.296  15.929  26.018  1.00  0.00    -0.308 N 
ATOM      8  H3  UNL     1     -12.068  15.925  25.350  1.00  0.00     0.182 HD
BRANCH   7   9
HETATM    9  N2  UNL     1     -10.089  16.511  25.663  1.00  0.00    -0.253 N 
HETATM   10  N1  UNL     1      -9.966  17.768  25.705  1.00  0.00    -0.331 N 
ATOM     11  H12 UNL     1     -10.761  18.336  26.000  1.00  0.00     0.178 HD
ATOM     12  H11 UNL     1      -9.079  18.197  25.443  1.00  0.00     0.178 HD
ATOM     13  H2  UNL     1      -9.305  15.928  25.370  1.00  0.00     0.207 HD
ENDBRANCH   7   9
ENDBRANCH   6   7
BRANCH   6  14
HETATM   14  C2  UNL     1     -12.968  15.226  27.652  1.00  0.00     0.077 C 
BRANCH  14  15
HETATM   15  C3  UNL     1     -13.142  14.058  28.554  1.00  0.00    -0.028 A 
HETATM   16  C4  UNL     1     -12.291  12.974  28.615  1.00  0.00     0.096 A 
HETATM   17  N4  UNL     1     -12.810  12.157  29.547  1.00  0.00    -0.365 N 
HETATM   18  C5  UNL     1     -13.937  12.671  30.071  1.00  0.00     0.042 A 
ATOM     19  H4  UNL     1     -12.402  11.264  29.821  1.00  0.00     0.165 HD
HETATM   20  C6  UNL     1     -14.802  12.194  31.045  1.00  0.00     0.030 A 
HETATM   21  C10 UNL     1     -14.177  13.896  29.450  1.00  0.00    -0.002 A 
HETATM   22  C7  UNL     1     -15.906  12.932  31.404  1.00  0.00     0.002 A 
HETATM   23  C8  UNL     1     -16.146  14.157  30.784  1.00  0.00     0.001 A 
HETATM   24  C9  UNL     1     -15.286  14.630  29.815  1.00  0.00     0.014 A 
ENDBRANCH  14  15
ENDBRANCH   6  14
ENDBRANCH   3   6
ENDBRANCH   1   2
BRANCH   1  25
HETATM   25  C13 UNL     1      -7.464  16.771  29.664  1.00  0.00     0.138 C 
BRANCH  25  26
HETATM   26  C14 UNL     1      -7.305  17.456  28.327  1.00  0.00     0.223 C 
HETATM   27  O2  UNL     1      -7.465  16.759  27.341  1.00  0.00    -0.273 OA
HETATM   28  N6  UNL     1      -6.996  18.803  28.350  1.00  0.00    -0.341 N 
ATOM     29  H6  UNL     1      -6.926  19.199  29.288  1.00  0.00     0.167 HD
BRANCH  28  30
HETATM   30  C15 UNL     1      -6.758  19.733  27.312  1.00  0.00     0.065 C 
BRANCH  30  31
HETATM   31  C16 UNL     1      -5.521  19.655  26.560  1.00  0.00     0.072 C 
BRANCH  31  32
HETATM   32  C17 UNL     1      -5.440  18.917  25.290  1.00  0.00     0.237 C 
BRANCH  32  33
HETATM   33  N7  UNL     1      -6.729  18.484  24.837  1.00  0.00    -0.075 N 
ATOM     34  H72 UNL     1      -7.267  18.054  25.589  1.00  0.00     0.277 HD
ATOM     35  H71 UNL     1      -7.344  19.274  24.640  1.00  0.00     0.277 HD
BRANCH  33  36
HETATM   36  C18 UNL     1      -6.612  17.613  23.710  1.00  0.00     0.234 C 
BRANCH  36  37
HETATM   37  C19 UNL     1      -7.131  18.261  22.473  1.00  0.00     0.047 C 
BRANCH  37  38
HETATM   38  C20 UNL     1      -6.408  17.671  21.271  1.00  0.00     0.123 C 
BRANCH  38  39
HETATM   39  N8  UNL     1      -5.169  18.408  21.093  1.00  0.00    -0.367 N 
HETATM   40  C21 UNL     1      -4.108  17.806  20.645  1.00  0.00     0.196 C 
HETATM   41  N9  UNL     1      -4.199  16.418  20.339  1.00  0.00    -0.067 NA
HETATM   42  N10 UNL     1      -2.921  18.552  20.486  1.00  0.00    -0.067 NA
ATOM     43  H8  UNL     1      -5.131  19.402  21.320  1.00  0.00     0.161 HD
ENDBRANCH  38  39
ENDBRANCH  37  38
ENDBRANCH  36  37
ENDBRANCH  33  36
ENDBRANCH  32  33
ENDBRANCH  31  32
ENDBRANCH  30  31
ENDBRANCH  28  30
ENDBRANCH  25  26
ENDBRANCH   1  25
BRANCH   1  44
HETATM   44  C22 UNL     1      -8.981  15.944  31.331  1.00  0.00     0.240 C 
HETATM   45  O3  UNL     1      -9.206  14.733  31.501  1.00  0.00    -0.271 OA
HETATM   46  N11 UNL     1      -8.790  16.793  32.442  1.00  0.00    -0.359 N 
ATOM     47  H11 UNL     1      -8.604  17.784  32.291  1.00  0.00     0.162 HD
BRANCH  46  48
HETATM   48  C23 UNL     1      -8.854  16.280  33.781  1.00  0.00     0.128 C 
BRANCH  48  49
HETATM   49  C24 UNL     1     -10.075  16.659  34.560  1.00  0.00     0.076 C 
BRANCH  49  50
HETATM   50  C25 UNL     1     -11.068  15.532  34.416  1.00  0.00     0.010 A 
HETATM   51  C26 UNL     1     -11.993  15.528  33.386  1.00  0.00     0.025 A 
HETATM   52  C27 UNL     1     -12.912  14.522  33.235  1.00  0.00     0.003 A 
HETATM   53  C28 UNL     1     -12.898  13.493  34.145  1.00  0.00     0.017 A 
HETATM   54  C29 UNL     1     -11.978  13.489  35.178  1.00  0.00     0.088 A 
HETATM   55  N12 UNL     1     -11.094  14.513  35.274  1.00  0.00    -0.369 N 
ATOM     56  H12 UNL     1     -10.419  14.503  36.038  1.00  0.00     0.165 HD
ENDBRANCH  49  50
ENDBRANCH  48  49
ENDBRANCH  46  48
ENDBRANCH   1  44
TORSDOF 20
ENDMDL
MODEL 5
REMARK VINA RESULT: -8.011973347      1.888      5.396
REMARK  20 active torsions:
REMARK  status: ('A' for Active; 'I' for Inactive)
REMARK    1  A    between atoms: N2_4  and  N3_6 
REMARK    2  A    between atoms: N3_6  and  C1_8 
REMARK    3  A    between atoms: C1_8  and  C2_9 
REMARK    4  A    between atoms: C1_8  and  C11_20 
REMARK    5  A    between atoms: C2_9  and  C3_10 
REMARK       I    between atoms: C11_20  and  N5_22 
REMARK    6  A    between atoms: N5_22  and  C12_24 
REMARK    7  A    between atoms: C12_24  and  C13_25 
REMARK    8  A    between atoms: C12_24  and  C22_44 
REMARK    9  A    between atoms: C13_25  and  C14_26 
REMARK       I    between atoms: C14_26  and  N6_28 
REMARK   10  A    between atoms: N6_28  and  C15_30 
REMARK   11  A    between atoms: C15_30  and  C16_31 
REMARK   12  A    between atoms: C16_31  and  C17_32 
REMARK   13  A    between atoms: C17_32  and  N7_33 
REMARK   14  A    between atoms: N7_33  and  C18_36 
REMARK   15  A    between atoms: C18_36  and  C19_37 
REMARK   16  A    between atoms: C19_37  and  C20_38 
REMARK   17  A    between atoms: C20_38  and  N8_39 
REMARK       I    between atoms: C22_44  and  N11_46 
REMARK   18  A    between atoms: N11_46  and  C23_48 
REMARK   19  A    between atoms: C23_48  and  C24_49 
REMARK   20  A    between atoms: C24_49  and  C25_50 
ROOT
HETATM    1  C12 UNL     1     -10.278  15.485  26.531  1.00  0.00     0.185 C 
ENDROOT
BRANCH   1   2
HETATM    2  N5  UNL     1      -9.977  16.528  27.478  1.00  0.00    -0.346 N 
HETATM    3  C11 UNL     1      -8.854  16.422  28.340  1.00  0.00     0.242 C 
HETATM    4  O1  UNL     1      -8.147  15.363  28.228  1.00  0.00    -0.271 OA
ATOM      5  H5  UNL     1     -10.577  17.351  27.530  1.00  0.00     0.163 HD
BRANCH   3   6
HETATM    6  C1  UNL     1      -8.456  17.433  29.334  1.00  0.00     0.197 C 
BRANCH   6   7
HETATM    7  N3  UNL     1      -7.420  18.256  28.759  1.00  0.00    -0.308 N 
ATOM      8  H3  UNL     1      -6.508  18.303  29.213  1.00  0.00     0.182 HD
BRANCH   7   9
HETATM    9  N2  UNL     1      -7.644  18.983  27.601  1.00  0.00    -0.253 N 
HETATM   10  N1  UNL     1      -7.057  20.090  27.435  1.00  0.00    -0.331 N 
ATOM     11  H12 UNL     1      -6.425  20.432  28.160  1.00  0.00     0.178 HD
ATOM     12  H11 UNL     1      -7.222  20.625  26.583  1.00  0.00     0.178 HD
ATOM     13  H2  UNL     1      -8.279  18.627  26.886  1.00  0.00     0.207 HD
ENDBRANCH   7   9
ENDBRANCH   6   7
BRANCH   6  14
HETATM   14  C2  UNL     1      -7.976  16.808  30.644  1.00  0.00     0.077 C 
BRANCH  14  15
HETATM   15  C3  UNL     1      -9.181  16.394  31.408  1.00  0.00    -0.028 A 
HETATM   16  C4  UNL     1     -10.462  16.341  30.897  1.00  0.00     0.096 A 
HETATM   17  N4  UNL     1     -11.240  15.923  31.908  1.00  0.00    -0.365 N 
HETATM   18  C5  UNL     1     -10.518  15.712  33.022  1.00  0.00     0.042 A 
ATOM     19  H4  UNL     1     -12.248  15.784  31.840  1.00  0.00     0.165 HD
HETATM   20  C6  UNL     1     -10.883  15.284  34.291  1.00  0.00     0.030 A 
HETATM   21  C10 UNL     1      -9.187  16.007  32.731  1.00  0.00    -0.002 A 
HETATM   22  C7  UNL     1      -9.928  15.148  35.271  1.00  0.00     0.002 A 
HETATM   23  C8  UNL     1      -8.596  15.442  34.981  1.00  0.00     0.001 A 
HETATM   24  C9  UNL     1      -8.234  15.868  33.720  1.00  0.00     0.014 A 
ENDBRANCH  14  15
ENDBRANCH   6  14
ENDBRANCH   3   6
ENDBRANCH   1   2
BRANCH   1  25
HETATM   25  C13 UNL     1     -10.679  15.964  25.181  1.00  0.00     0.138 C 
BRANCH  25  26
HETATM   26  C14 UNL     1      -9.488  16.569  24.475  1.00  0.00     0.223 C 
HETATM   27  O2  UNL     1      -8.975  17.534  25.014  1.00  0.00    -0.273 OA
HETATM   28  N6  UNL     1      -9.094  15.972  23.293  1.00  0.00    -0.341 N 
ATOM     29  H6  UNL     1      -9.652  15.159  23.030  1.00  0.00     0.167 HD
BRANCH  28  30
HETATM   30  C15 UNL     1      -8.060  16.281  22.380  1.00  0.00     0.065 C 
BRANCH  30  31
HETATM   31  C16 UNL     1      -8.050  17.579  21.734  1.00  0.00     0.072 C 
BRANCH  31  32
HETATM   32  C17 UNL     1      -6.989  18.562  22.002  1.00  0.00     0.237 C 
BRANCH  32  33
HETATM   33  N7  UNL     1      -6.571  18.541  23.374  1.00  0.00    -0.075 N 
ATOM     34  H72 UNL     1      -7.351  18.716  24.007  1.00  0.00     0.277 HD
ATOM     35  H71 UNL     1      -6.333  17.597  23.680  1.00  0.00     0.277 HD
BRANCH  33  36
HETATM   36  C18 UNL     1      -5.495  19.455  23.598  1.00  0.00     0.234 C 
BRANCH  36  37
HETATM   37  C19 UNL     1      -4.176  18.791  23.403  1.00  0.00     0.047 C 
BRANCH  37  38
HETATM   38  C20 UNL     1      -4.131  17.533  24.257  1.00  0.00     0.123 C 
BRANCH  38  39
HETATM   39  N8  UNL     1      -3.833  17.933  25.622  1.00  0.00    -0.367 N 
HETATM   40  C21 UNL     1      -4.694  17.714  26.570  1.00  0.00     0.196 C 
HETATM   41  N9  UNL     1      -5.922  17.077  26.233  1.00  0.00    -0.067 NA
HETATM   42  N10 UNL     1      -4.372  18.117  27.884  1.00  0.00    -0.067 NA
ATOM     43  H8  UNL     1      -2.945  18.387  25.836  1.00  0.00     0.161 HD
ENDBRANCH  38  39
ENDBRANCH  37  38
ENDBRANCH  36  37
ENDBRANCH  33  36
ENDBRANCH  32  33
ENDBRANCH  31  32
ENDBRANCH  30  31
ENDBRANCH  28  30
ENDBRANCH  25  26
ENDBRANCH   1  25
BRANCH   1  44
HETATM   44  C22 UNL     1     -11.416  14.628  27.034  1.00  0.00     0.240 C 
HETATM   45  O3  UNL     1     -11.242  13.428  27.306  1.00  0.00    -0.271 OA
HETATM   46  N11 UNL     1     -12.690  15.213  27.192  1.00  0.00    -0.359 N 
ATOM     47  H11 UNL     1     -12.822  16.200  26.968  1.00  0.00     0.162 HD
BRANCH  46  48
HETATM   48  C23 UNL     1     -13.803  14.440  27.663  1.00  0.00     0.128 C 
BRANCH  48  49
HETATM   49  C24 UNL     1     -14.194  14.673  29.089  1.00  0.00     0.076 C 
BRANCH  49  50
HETATM   50  C25 UNL     1     -14.037  13.361  29.818  1.00  0.00     0.010 A 
HETATM   51  C26 UNL     1     -15.042  12.882  30.641  1.00  0.00     0.025 A 
HETATM   52  C27 UNL     1     -14.925  11.698  31.323  1.00  0.00     0.003 A 
HETATM   53  C28 UNL     1     -13.765  10.978  31.170  1.00  0.00     0.017 A 
HETATM   54  C29 UNL     1     -12.755  11.448  30.350  1.00  0.00     0.088 A 
HETATM   55  N12 UNL     1     -12.931  12.627  29.703  1.00  0.00    -0.369 N 
ATOM     56  H12 UNL     1     -12.182  12.967  29.100  1.00  0.00     0.165 HD
ENDBRANCH  49  50
ENDBRANCH  48  49
ENDBRANCH  46  48
ENDBRANCH   1  44
TORSDOF 20
ENDMDL
