MODEL 1
REMARK VINA RESULT: -8.192001982      0.000      0.000
REMARK  23 active torsions:
REMARK  status: ('A' for Active; 'I' for Inactive)
REMARK    1  A    between atoms: N1_2  and  C2_4 
REMARK    2  A    between atoms: C6_8  and  C7_9 
REMARK    3  A    between atoms: C7_9  and  S1_10 
REMARK    4  A    between atoms: S1_10  and  N2_13 
REMARK    5  A    between atoms: N2_13  and  C8_15 
REMARK    6  A    between atoms: C8_15  and  C9_16 
REMARK    7  A    between atoms: C9_16  and  C10_17 
REMARK    8  A    between atoms: C10_17  and  C11_18 
REMARK    9  A    between atoms: C11_18  and  C12_19 
REMARK   10  A    between atoms: C12_19  and  C13_20 
REMARK   11  A    between atoms: C13_20  and  C14_21 
REMARK       I    between atoms: C14_21  and  N3_23 
REMARK   12  A    between atoms: N3_23  and  C15_25 
REMARK   13  A    between atoms: C15_25  and  C16_26 
REMARK   14  A    between atoms: C16_26  and  C17_27 
REMARK   15  A    between atoms: C17_27  and  N4_28 
REMARK   16  A    between atoms: N4_28  and  C18_30 
REMARK   17  A    between atoms: C20_34  and  C21_35 
REMARK   18  A    between atoms: C21_35  and  N6_36 
REMARK   19  A    between atoms: N6_36  and  C22_38 
REMARK   20  A    between atoms: C22_38  and  C23_39 
REMARK   21  A    between atoms: C23_39  and  C24_40 
REMARK   22  A    between atoms: C24_40  and  N7_41 
REMARK       I    between atoms: N7_41  and  C25_43 
REMARK       I    between atoms: C25_43  and  N9_45 
REMARK   23  A    between atoms: N9_45  and  N10_47 
ROOT
HETATM    1  C16 UNL     1     -12.558  13.021  27.377  1.00  0.00     0.040 C 
ENDROOT
BRANCH   1   2
HETATM    2  C15 UNL     1     -12.053  14.439  27.364  1.00  0.00     0.124 C 
BRANCH   2   3
HETATM    3  N3  UNL     1     -10.656  14.458  27.723  1.00  0.00    -0.361 N 
HETATM    4  C14 UNL     1      -9.705  15.218  27.012  1.00  0.00     0.217 C 
HETATM    5  O3  UNL     1     -10.008  15.931  26.009  1.00  0.00    -0.274 OA
ATOM      6  H3  UNL     1     -10.345  13.902  28.520  1.00  0.00     0.162 HD
BRANCH   4   7
HETATM    7  C13 UNL     1      -8.293  15.187  27.444  1.00  0.00     0.103 C 
BRANCH   7   8
HETATM    8  C12 UNL     1      -7.676  16.540  27.327  1.00  0.00     0.009 C 
BRANCH   8   9
HETATM    9  C11 UNL     1      -6.651  16.752  28.384  1.00  0.00     0.001 C 
BRANCH   9  10
HETATM   10  C10 UNL     1      -5.388  17.391  27.864  1.00  0.00     0.002 C 
BRANCH  10  11
HETATM   11  C9  UNL     1      -5.651  18.740  27.251  1.00  0.00     0.020 C 
BRANCH  11  12
HETATM   12  C8  UNL     1      -4.999  18.783  25.877  1.00  0.00     0.132 C 
BRANCH  12  13
HETATM   13  N2  UNL     1      -5.848  19.372  24.901  1.00  0.00    -0.319 N 
ATOM     14  H2  UNL     1      -6.212  20.319  25.015  1.00  0.00     0.172 HD
BRANCH  13  15
HETATM   15  S1  UNL     1      -6.231  18.438  23.546  1.00  0.00     0.231 S 
HETATM   16  O1  UNL     1      -5.012  17.848  22.866  1.00  0.00    -0.206 OA
HETATM   17  O2  UNL     1      -6.877  19.318  22.484  1.00  0.00    -0.206 OA
BRANCH  15  18
HETATM   18  C7  UNL     1      -7.379  17.124  23.849  1.00  0.00     0.220 C 
BRANCH  18  19
HETATM   19  C6  UNL     1      -8.043  16.786  22.532  1.00  0.00     0.026 A 
HETATM   20  C5  UNL     1      -9.380  16.509  22.433  1.00  0.00     0.026 A 
HETATM   21  C4  UNL     1      -9.927  16.199  21.205  1.00  0.00     0.006 A 
HETATM   22  C3  UNL     1      -9.093  16.180  20.099  1.00  0.00     0.048 A 
HETATM   23  C2  UNL     1      -7.750  16.461  20.214  1.00  0.00     0.100 A 
HETATM   24  N13 UNL     1      -7.282  16.753  21.428  1.00  0.00    -0.345 N 
ATOM     25  H13 UNL     1      -6.288  16.962  21.523  1.00  0.00     0.167 HD
BRANCH  23  26
HETATM   26  N1  UNL     1      -6.996  16.431  19.150  1.00  0.00    -0.381 N 
HETATM   27  C1  UNL     1      -5.576  16.676  19.206  1.00  0.00     0.147 C 
ATOM     28  H1  UNL     1      -7.425  16.227  18.248  1.00  0.00     0.160 HD
ENDBRANCH  23  26
ENDBRANCH  18  19
ENDBRANCH  15  18
ENDBRANCH  13  15
ENDBRANCH  12  13
ENDBRANCH  11  12
ENDBRANCH  10  11
ENDBRANCH   9  10
ENDBRANCH   8   9
ENDBRANCH   7   8
ENDBRANCH   4   7
ENDBRANCH   2   3
ENDBRANCH   1   2
BRANCH   1  29
HETATM   29  C17 UNL     1     -12.689  12.646  28.864  1.00  0.00     0.139 C 
BRANCH  29  30
HETATM   30  N4  UNL     1     -13.786  13.311  29.501  1.00  0.00    -0.226 N 
ATOM     31  H4  UNL     1     -14.662  13.422  28.990  1.00  0.00     0.177 HD
BRANCH  30  32
HETATM   32  C18 UNL     1     -13.700  13.773  30.698  1.00  0.00     0.678 A 
HETATM   33  N5  UNL     1     -14.612  14.440  31.405  1.00  0.00    -0.200 N 
HETATM   34  C19 UNL     1     -14.117  14.760  32.611  1.00  0.00     0.137 A 
ATOM     35  H5  UNL     1     -15.549  14.674  31.078  1.00  0.00     0.183 HD
HETATM   36  C20 UNL     1     -12.810  14.247  32.633  1.00  0.00     0.080 A 
HETATM   37  N12 UNL     1     -12.589  13.655  31.461  1.00  0.00    -0.189 N 
ATOM     38  H12 UNL     1     -11.725  13.190  31.184  1.00  0.00     0.184 HD
BRANCH  36  39
HETATM   39  C21 UNL     1     -11.922  14.387  33.767  1.00  0.00     0.114 C 
BRANCH  39  40
HETATM   40  N6  UNL     1     -10.707  14.522  33.763  1.00  0.00    -0.397 N 
ATOM     41  H6  UNL     1     -10.415  14.672  32.797  1.00  0.00     0.158 HD
BRANCH  40  42
HETATM   42  C22 UNL     1      -9.570  14.551  34.554  1.00  0.00     0.120 C 
BRANCH  42  43
HETATM   43  C23 UNL     1      -8.597  15.679  34.172  1.00  0.00     0.039 C 
BRANCH  43  44
HETATM   44  C24 UNL     1      -8.211  15.460  32.704  1.00  0.00     0.124 C 
BRANCH  44  45
HETATM   45  N7  UNL     1      -8.565  16.606  31.898  1.00  0.00    -0.363 N 
HETATM   46  C25 UNL     1      -9.426  16.512  30.920  1.00  0.00     0.204 C 
HETATM   47  N8  UNL     1      -9.999  15.243  30.676  1.00  0.00    -0.062 NA
HETATM   48  N9  UNL     1      -9.714  17.686  30.179  1.00  0.00    -0.260 N 
ATOM     49  H9  UNL     1      -9.122  18.515  30.236  1.00  0.00     0.191 HD
ATOM     50  H7  UNL     1      -8.132  17.509  32.096  1.00  0.00     0.162 HD
BRANCH  48  51
HETATM   51  N10 UNL     1     -10.856  17.648  29.364  1.00  0.00    -0.247 N 
HETATM   52  N11 UNL     1     -10.909  18.108  28.197  1.00  0.00    -0.331 N 
ATOM     53 2H11 UNL     1     -10.057  18.534  27.833  1.00  0.00     0.178 HD
ATOM     54 1H11 UNL     1     -11.739  18.081  27.605  1.00  0.00     0.178 HD
ATOM     55  H10 UNL     1     -11.699  17.218  29.745  1.00  0.00     0.207 HD
ENDBRANCH  48  51
ENDBRANCH  44  45
ENDBRANCH  43  44
ENDBRANCH  42  43
ENDBRANCH  40  42
ENDBRANCH  39  40
ENDBRANCH  36  39
ENDBRANCH  30  32
ENDBRANCH  29  30
ENDBRANCH   1  29
TORSDOF 23
ENDMDL
MODEL 2
REMARK VINA RESULT: -7.743137744      2.829     10.197
REMARK  23 active torsions:
REMARK  status: ('A' for Active; 'I' for Inactive)
REMARK    1  A    between atoms: N1_2  and  C2_4 
REMARK    2  A    between atoms: C6_8  and  C7_9 
REMARK    3  A    between atoms: C7_9  and  S1_10 
REMARK    4  A    between atoms: S1_10  and  N2_13 
REMARK    5  A    between atoms: N2_13  and  C8_15 
REMARK    6  A    between atoms: C8_15  and  C9_16 
REMARK    7  A    between atoms: C9_16  and  C10_17 
REMARK    8  A    between atoms: C10_17  and  C11_18 
REMARK    9  A    between atoms: C11_18  and  C12_19 
REMARK   10  A    between atoms: C12_19  and  C13_20 
REMARK   11  A    between atoms: C13_20  and  C14_21 
REMARK       I    between atoms: C14_21  and  N3_23 
REMARK   12  A    between atoms: N3_23  and  C15_25 
REMARK   13  A    between atoms: C15_25  and  C16_26 
REMARK   14  A    between atoms: C16_26  and  C17_27 
REMARK   15  A    between atoms: C17_27  and  N4_28 
REMARK   16  A    between atoms: N4_28  and  C18_30 
REMARK   17  A    between atoms: C20_34  and  C21_35 
REMARK   18  A    between atoms: C21_35  and  N6_36 
REMARK   19  A    between atoms: N6_36  and  C22_38 
REMARK   20  A    between atoms: C22_38  and  C23_39 
REMARK   21  A    between atoms: C23_39  and  C24_40 
REMARK   22  A    between atoms: C24_40  and  N7_41 
REMARK       I    between atoms: N7_41  and  C25_43 
REMARK       I    between atoms: C25_43  and  N9_45 
REMARK   23  A    between atoms: N9_45  and  N10_47 
ROOT
HETATM    1  C16 UNL     1      -5.128  18.445  27.554  1.00  0.00     0.040 C 
ENDROOT
BRANCH   1   2
HETATM    2  C15 UNL     1      -5.775  17.094  27.405  1.00  0.00     0.124 C 
BRANCH   2   3
HETATM    3  N3  UNL     1      -6.693  16.874  28.495  1.00  0.00    -0.361 N 
HETATM    4  C14 UNL     1      -7.748  15.942  28.416  1.00  0.00     0.217 C 
HETATM    5  O3  UNL     1      -7.966  15.238  27.385  1.00  0.00    -0.274 OA
ATOM      6  H3  UNL     1      -6.575  17.412  29.354  1.00  0.00     0.162 HD
BRANCH   4   7
HETATM    7  C13 UNL     1      -8.644  15.773  29.577  1.00  0.00     0.103 C 
BRANCH   7   8
HETATM    8  C12 UNL     1      -8.537  16.939  30.501  1.00  0.00     0.009 C 
BRANCH   8   9
HETATM    9  C11 UNL     1      -8.722  16.518  31.916  1.00  0.00     0.001 C 
BRANCH   9  10
HETATM   10  C10 UNL     1      -9.350  15.153  32.051  1.00  0.00     0.002 C 
BRANCH  10  11
HETATM   11  C9  UNL     1     -10.800  15.239  32.445  1.00  0.00     0.020 C 
BRANCH  11  12
HETATM   12  C8  UNL     1     -11.625  14.464  31.427  1.00  0.00     0.132 C 
BRANCH  12  13
HETATM   13  N2  UNL     1     -12.039  15.282  30.341  1.00  0.00    -0.319 N 
ATOM     14  H2  UNL     1     -12.082  16.298  30.427  1.00  0.00     0.172 HD
BRANCH  13  15
HETATM   15  S1  UNL     1     -12.458  14.501  28.902  1.00  0.00     0.231 S 
HETATM   16  O1  UNL     1     -12.019  13.051  28.862  1.00  0.00    -0.206 OA
HETATM   17  O2  UNL     1     -11.733  15.156  27.734  1.00  0.00    -0.206 OA
BRANCH  15  18
HETATM   18  C7  UNL     1     -14.182  14.562  28.498  1.00  0.00     0.220 C 
BRANCH  18  19
HETATM   19  C6  UNL     1     -14.947  13.992  29.672  1.00  0.00     0.026 A 
HETATM   20  C5  UNL     1     -15.996  14.650  30.255  1.00  0.00     0.026 A 
HETATM   21  C4  UNL     1     -16.649  14.082  31.330  1.00  0.00     0.006 A 
HETATM   22  C3  UNL     1     -16.215  12.849  31.787  1.00  0.00     0.048 A 
HETATM   23  C2  UNL     1     -15.158  12.199  31.191  1.00  0.00     0.100 A 
HETATM   24  N13 UNL     1     -14.568  12.800  30.157  1.00  0.00    -0.345 N 
ATOM     25  H13 UNL     1     -13.784  12.325  29.708  1.00  0.00     0.167 HD
BRANCH  23  26
HETATM   26  N1  UNL     1     -14.777  11.039  31.652  1.00  0.00    -0.381 N 
HETATM   27  C1  UNL     1     -13.736  10.909  32.641  1.00  0.00     0.147 C 
ATOM     28  H1  UNL     1     -15.230  10.196  31.299  1.00  0.00     0.160 HD
ENDBRANCH  23  26
ENDBRANCH  18  19
ENDBRANCH  15  18
ENDBRANCH  13  15
ENDBRANCH  12  13
ENDBRANCH  11  12
ENDBRANCH  10  11
ENDBRANCH   9  10
ENDBRANCH   8   9
ENDBRANCH   7   8
ENDBRANCH   4   7
ENDBRANCH   2   3
ENDBRANCH   1   2
BRANCH   1  29
HETATM   29  C17 UNL     1      -6.096  19.439  26.887  1.00  0.00     0.139 C 
BRANCH  29  30
HETATM   30  N4  UNL     1      -5.478  20.176  25.825  1.00  0.00    -0.226 N 
ATOM     31  H4  UNL     1      -5.231  21.153  25.979  1.00  0.00     0.177 HD
BRANCH  30  32
HETATM   32  C18 UNL     1      -5.224  19.640  24.683  1.00  0.00     0.678 A 
HETATM   33  N5  UNL     1      -4.054  19.522  24.056  1.00  0.00    -0.200 N 
HETATM   34  C19 UNL     1      -4.225  18.914  22.872  1.00  0.00     0.137 A 
ATOM     35  H5  UNL     1      -3.159  19.846  24.423  1.00  0.00     0.183 HD
HETATM   36  C20 UNL     1      -5.600  18.645  22.778  1.00  0.00     0.080 A 
HETATM   37  N12 UNL     1      -6.176  19.097  23.890  1.00  0.00    -0.189 N 
ATOM     38  H12 UNL     1      -7.171  19.042  24.109  1.00  0.00     0.184 HD
BRANCH  36  39
HETATM   39  C21 UNL     1      -6.205  17.995  21.635  1.00  0.00     0.114 C 
BRANCH  39  40
HETATM   40  N6  UNL     1      -7.386  17.742  21.447  1.00  0.00    -0.397 N 
ATOM     41  H6  UNL     1      -7.828  17.636  22.360  1.00  0.00     0.158 HD
BRANCH  40  42
HETATM   42  C22 UNL     1      -8.360  17.543  20.484  1.00  0.00     0.120 C 
BRANCH  42  43
HETATM   43  C23 UNL     1      -9.581  16.769  21.009  1.00  0.00     0.039 C 
BRANCH  43  44
HETATM   44  C24 UNL     1      -9.092  15.894  22.169  1.00  0.00     0.124 C 
BRANCH  44  45
HETATM   45  N7  UNL     1      -9.962  16.020  23.316  1.00  0.00    -0.363 N 
HETATM   46  C25 UNL     1      -9.522  16.476  24.459  1.00  0.00     0.204 C 
HETATM   47  N8  UNL     1      -8.159  16.841  24.534  1.00  0.00    -0.062 NA
HETATM   48  N9  UNL     1     -10.444  16.565  25.532  1.00  0.00    -0.260 N 
ATOM     49  H9  UNL     1     -11.345  16.088  25.506  1.00  0.00     0.191 HD
ATOM     50  H7  UNL     1     -10.941  15.746  23.232  1.00  0.00     0.162 HD
BRANCH  48  51
HETATM   51  N10 UNL     1     -10.052  17.344  26.632  1.00  0.00    -0.247 N 
HETATM   52  N11 UNL     1      -9.809  18.575  26.578  1.00  0.00    -0.331 N 
ATOM     53 2H11 UNL     1      -9.908  19.023  25.667  1.00  0.00     0.178 HD
ATOM     54 1H11 UNL     1      -9.524  19.141  27.377  1.00  0.00     0.178 HD
ATOM     55  H10 UNL     1      -9.958  16.879  27.535  1.00  0.00     0.207 HD
ENDBRANCH  48  51
ENDBRANCH  44  45
ENDBRANCH  43  44
ENDBRANCH  42  43
ENDBRANCH  40  42
ENDBRANCH  39  40
ENDBRANCH  36  39
ENDBRANCH  30  32
ENDBRANCH  29  30
ENDBRANCH   1  29
TORSDOF 23
ENDMDL
MODEL 3
REMARK VINA RESULT: -7.630124740      3.255      9.581
REMARK  23 active torsions:
REMARK  status: ('A' for Active; 'I' for Inactive)
REMARK    1  A    between atoms: N1_2  and  C2_4 
REMARK    2  A    between atoms: C6_8  and  C7_9 
REMARK    3  A    between atoms: C7_9  and  S1_10 
REMARK    4  A    between atoms: S1_10  and  N2_13 
REMARK    5  A    between atoms: N2_13  and  C8_15 
REMARK    6  A    between atoms: C8_15  and  C9_16 
REMARK    7  A    between atoms: C9_16  and  C10_17 
REMARK    8  A    between atoms: C10_17  and  C11_18 
REMARK    9  A    between atoms: C11_18  and  C12_19 
REMARK   10  A    between atoms: C12_19  and  C13_20 
REMARK   11  A    between atoms: C13_20  and  C14_21 
REMARK       I    between atoms: C14_21  and  N3_23 
REMARK   12  A    between atoms: N3_23  and  C15_25 
REMARK   13  A    between atoms: C15_25  and  C16_26 
REMARK   14  A    between atoms: C16_26  and  C17_27 
REMARK   15  A    between atoms: C17_27  and  N4_28 
REMARK   16  A    between atoms: N4_28  and  C18_30 
REMARK   17  A    between atoms: C20_34  and  C21_35 
REMARK   18  A    between atoms: C21_35  and  N6_36 
REMARK   19  A    between atoms: N6_36  and  C22_38 
REMARK   20  A    between atoms: C22_38  and  C23_39 
REMARK   21  A    between atoms: C23_39  and  C24_40 
REMARK   22  A    between atoms: C24_40  and  N7_41 
REMARK       I    between atoms: N7_41  and  C25_43 
REMARK       I    between atoms: C25_43  and  N9_45 
REMARK   23  A    between atoms: N9_45  and  N10_47 
ROOT
HETATM    1  C16 UNL     1     -11.953  15.490  28.340  1.00  0.00     0.040 C 
ENDROOT
BRANCH   1   2
HETATM    2  C15 UNL     1     -11.097  14.521  29.111  1.00  0.00     0.124 C 
BRANCH   2   3
HETATM    3  N3  UNL     1     -10.210  15.249  29.985  1.00  0.00    -0.361 N 
HETATM    4  C14 UNL     1      -8.898  15.600  29.605  1.00  0.00     0.217 C 
HETATM    5  O3  UNL     1      -8.406  15.297  28.477  1.00  0.00    -0.274 OA
ATOM      6  H3  UNL     1     -10.544  15.521  30.909  1.00  0.00     0.162 HD
BRANCH   4   7
HETATM    7  C13 UNL     1      -8.052  16.349  30.556  1.00  0.00     0.103 C 
BRANCH   7   8
HETATM    8  C12 UNL     1      -8.878  16.924  31.657  1.00  0.00     0.009 C 
BRANCH   8   9
HETATM    9  C11 UNL     1      -8.256  16.663  32.983  1.00  0.00     0.001 C 
BRANCH   9  10
HETATM   10  C10 UNL     1      -9.184  16.940  34.138  1.00  0.00     0.002 C 
BRANCH  10  11
HETATM   11  C9  UNL     1      -9.123  15.857  35.181  1.00  0.00     0.020 C 
BRANCH  11  12
HETATM   12  C8  UNL     1      -9.283  14.510  34.491  1.00  0.00     0.132 C 
BRANCH  12  13
HETATM   13  N2  UNL     1     -10.507  13.875  34.836  1.00  0.00    -0.319 N 
ATOM     14  H2  UNL     1     -10.569  13.234  35.628  1.00  0.00     0.172 HD
BRANCH  13  15
HETATM   15  S1  UNL     1     -11.855  14.226  33.879  1.00  0.00     0.231 S 
HETATM   16  O1  UNL     1     -11.490  14.714  32.492  1.00  0.00    -0.206 OA
HETATM   17  O2  UNL     1     -12.637  15.376  34.500  1.00  0.00    -0.206 OA
BRANCH  15  18
HETATM   18  C7  UNL     1     -13.010  12.894  33.705  1.00  0.00     0.220 C 
BRANCH  18  19
HETATM   19  C6  UNL     1     -13.642  13.015  32.335  1.00  0.00     0.026 A 
HETATM   20  C5  UNL     1     -13.429  12.095  31.344  1.00  0.00     0.026 A 
HETATM   21  C4  UNL     1     -14.026  12.264  30.112  1.00  0.00     0.006 A 
HETATM   22  C3  UNL     1     -14.833  13.373  29.918  1.00  0.00     0.048 A 
HETATM   23  C2  UNL     1     -15.038  14.290  30.924  1.00  0.00     0.100 A 
HETATM   24  N13 UNL     1     -14.432  14.071  32.092  1.00  0.00    -0.345 N 
ATOM     25  H13 UNL     1     -14.579  14.745  32.844  1.00  0.00     0.167 HD
BRANCH  23  26
HETATM   26  N1  UNL     1     -15.802  15.324  30.703  1.00  0.00    -0.381 N 
HETATM   27  C1  UNL     1     -17.189  15.354  31.099  1.00  0.00     0.147 C 
ATOM     28  H1  UNL     1     -15.406  16.139  30.235  1.00  0.00     0.160 HD
ENDBRANCH  23  26
ENDBRANCH  18  19
ENDBRANCH  15  18
ENDBRANCH  13  15
ENDBRANCH  12  13
ENDBRANCH  11  12
ENDBRANCH  10  11
ENDBRANCH   9  10
ENDBRANCH   8   9
ENDBRANCH   7   8
ENDBRANCH   4   7
ENDBRANCH   2   3
ENDBRANCH   1   2
BRANCH   1  29
HETATM   29  C17 UNL     1     -11.452  15.414  26.886  1.00  0.00     0.139 C 
BRANCH  29  30
HETATM   30  N4  UNL     1     -10.544  16.474  26.565  1.00  0.00    -0.226 N 
ATOM     31  H4  UNL     1     -10.568  17.331  27.117  1.00  0.00     0.177 HD
BRANCH  30  32
HETATM   32  C18 UNL     1      -9.700  16.378  25.599  1.00  0.00     0.678 A 
HETATM   33  N5  UNL     1      -8.919  15.349  25.271  1.00  0.00    -0.200 N 
HETATM   34  C19 UNL     1      -8.168  15.662  24.204  1.00  0.00     0.137 A 
ATOM     35  H5  UNL     1      -8.896  14.454  25.760  1.00  0.00     0.183 HD
HETATM   36  C20 UNL     1      -8.523  16.977  23.863  1.00  0.00     0.080 A 
HETATM   37  N12 UNL     1      -9.452  17.381  24.726  1.00  0.00    -0.189 N 
ATOM     38  H12 UNL     1      -9.904  18.296  24.729  1.00  0.00     0.184 HD
BRANCH  36  39
HETATM   39  C21 UNL     1      -7.928  17.698  22.757  1.00  0.00     0.114 C 
BRANCH  39  40
HETATM   40  N6  UNL     1      -7.162  18.649  22.800  1.00  0.00    -0.397 N 
ATOM     41  H6  UNL     1      -7.680  19.447  23.167  1.00  0.00     0.158 HD
BRANCH  40  42
HETATM   42  C22 UNL     1      -5.867  19.070  22.548  1.00  0.00     0.120 C 
BRANCH  42  43
HETATM   43  C23 UNL     1      -4.846  17.920  22.548  1.00  0.00     0.039 C 
BRANCH  43  44
HETATM   44  C24 UNL     1      -4.173  17.919  23.926  1.00  0.00     0.124 C 
BRANCH  44  45
HETATM   45  N7  UNL     1      -5.010  17.273  24.911  1.00  0.00    -0.363 N 
HETATM   46  C25 UNL     1      -5.511  17.935  25.920  1.00  0.00     0.204 C 
HETATM   47  N8  UNL     1      -5.202  19.311  26.015  1.00  0.00    -0.062 NA
HETATM   48  N9  UNL     1      -6.320  17.222  26.840  1.00  0.00    -0.260 N 
ATOM     49  H9  UNL     1      -6.334  16.202  26.865  1.00  0.00     0.191 HD
ATOM     50  H7  UNL     1      -5.214  16.277  24.818  1.00  0.00     0.162 HD
BRANCH  48  51
HETATM   51  N10 UNL     1      -7.102  17.993  27.715  1.00  0.00    -0.247 N 
HETATM   52  N11 UNL     1      -7.814  18.964  27.361  1.00  0.00    -0.331 N 
ATOM     53 2H11 UNL     1      -7.813  19.195  26.367  1.00  0.00     0.178 HD
ATOM     54 1H11 UNL     1      -8.382  19.524  27.996  1.00  0.00     0.178 HD
ATOM     55  H10 UNL     1      -7.090  17.747  28.705  1.00  0.00     0.207 HD
ENDBRANCH  48  51
ENDBRANCH  44  45
ENDBRANCH  43  44
ENDBRANCH  42  43
ENDBRANCH  40  42
ENDBRANCH  39  40
ENDBRANCH  36  39
ENDBRANCH  30  32
ENDBRANCH  29  30
ENDBRANCH   1  29
TORSDOF 23
ENDMDL
MODEL 4
REMARK VINA RESULT: -7.561859736      3.303     10.215
REMARK  23 active torsions:
REMARK  status: ('A' for Active; 'I' for Inactive)
REMARK    1  A    between atoms: N1_2  and  C2_4 
REMARK    2  A    between atoms: C6_8  and  C7_9 
REMARK    3  A    between atoms: C7_9  and  S1_10 
REMARK    4  A    between atoms: S1_10  and  N2_13 
REMARK    5  A    between atoms: N2_13  and  C8_15 
REMARK    6  A    between atoms: C8_15  and  C9_16 
REMARK    7  A    between atoms: C9_16  and  C10_17 
REMARK    8  A    between atoms: C10_17  and  C11_18 
REMARK    9  A    between atoms: C11_18  and  C12_19 
REMARK   10  A    between atoms: C12_19  and  C13_20 
REMARK   11  A    between atoms: C13_20  and  C14_21 
REMARK       I    between atoms: C14_21  and  N3_23 
REMARK   12  A    between atoms: N3_23  and  C15_25 
REMARK   13  A    between atoms: C15_25  and  C16_26 
REMARK   14  A    between atoms: C16_26  and  C17_27 
REMARK   15  A    between atoms: C17_27  and  N4_28 
REMARK   16  A    between atoms: N4_28  and  C18_30 
REMARK   17  A    between atoms: C20_34  and  C21_35 
REMARK   18  A    between atoms: C21_35  and  N6_36 
REMARK   19  A    between atoms: N6_36  and  C22_38 
REMARK   20  A    between atoms: C22_38  and  C23_39 
REMARK   21  A    between atoms: C23_39  and  C24_40 
REMARK   22  A    between atoms: C24_40  and  N7_41 
REMARK       I    between atoms: N7_41  and  C25_43 
REMARK       I    between atoms: C25_43  and  N9_45 
REMARK   23  A    between atoms: N9_45  and  N10_47 
ROOT
HETATM    1  C16 UNL     1      -5.178  18.389  27.662  1.00  0.00     0.040 C 
ENDROOT
BRANCH   1   2
HETATM    2  C15 UNL     1      -6.663  18.399  27.413  1.00  0.00     0.124 C 
BRANCH   2   3
HETATM    3  N3  UNL     1      -7.365  18.401  28.673  1.00  0.00    -0.361 N 
HETATM    4  C14 UNL     1      -7.875  17.222  29.253  1.00  0.00     0.217 C 
HETATM    5  O3  UNL     1      -7.757  16.083  28.709  1.00  0.00    -0.274 OA
ATOM      6  H3  UNL     1      -7.497  19.287  29.161  1.00  0.00     0.162 HD
BRANCH   4   7
HETATM    7  C13 UNL     1      -8.580  17.306  30.548  1.00  0.00     0.103 C 
BRANCH   7   8
HETATM    8  C12 UNL     1      -8.504  16.005  31.274  1.00  0.00     0.009 C 
BRANCH   8   9
HETATM    9  C11 UNL     1      -7.852  16.172  32.601  1.00  0.00     0.001 C 
BRANCH   9  10
HETATM   10  C10 UNL     1      -8.113  15.020  33.539  1.00  0.00     0.002 C 
BRANCH  10  11
HETATM   11  C9  UNL     1      -9.056  15.401  34.648  1.00  0.00     0.020 C 
BRANCH  11  12
HETATM   12  C8  UNL     1     -10.071  14.282  34.826  1.00  0.00     0.132 C 
BRANCH  12  13
HETATM   13  N2  UNL     1     -10.895  14.121  33.679  1.00  0.00    -0.319 N 
ATOM     14  H2  UNL     1     -10.494  13.991  32.750  1.00  0.00     0.172 HD
BRANCH  13  15
HETATM   15  S1  UNL     1     -12.567  14.154  33.920  1.00  0.00     0.231 S 
HETATM   16  O1  UNL     1     -13.211  15.446  33.459  1.00  0.00    -0.206 OA
HETATM   17  O2  UNL     1     -12.871  14.081  35.410  1.00  0.00    -0.206 OA
BRANCH  15  18
HETATM   18  C7  UNL     1     -13.452  12.808  33.180  1.00  0.00     0.220 C 
BRANCH  18  19
HETATM   19  C6  UNL     1     -14.442  13.398  32.199  1.00  0.00     0.026 A 
HETATM   20  C5  UNL     1     -15.791  13.395  32.426  1.00  0.00     0.026 A 
HETATM   21  C4  UNL     1     -16.645  13.940  31.489  1.00  0.00     0.006 A 
HETATM   22  C3  UNL     1     -16.099  14.480  30.336  1.00  0.00     0.048 A 
HETATM   23  C2  UNL     1     -14.739  14.475  30.121  1.00  0.00     0.100 A 
HETATM   24  N13 UNL     1     -13.967  13.933  31.064  1.00  0.00    -0.345 N 
ATOM     25  H13 UNL     1     -12.958  13.925  30.914  1.00  0.00     0.167 HD
BRANCH  23  26
HETATM   26  N1  UNL     1     -14.262  14.990  29.022  1.00  0.00    -0.381 N 
HETATM   27  C1  UNL     1     -13.703  14.177  27.970  1.00  0.00     0.147 C 
ATOM     28  H1  UNL     1     -14.286  16.002  28.902  1.00  0.00     0.160 HD
ENDBRANCH  23  26
ENDBRANCH  18  19
ENDBRANCH  15  18
ENDBRANCH  13  15
ENDBRANCH  12  13
ENDBRANCH  11  12
ENDBRANCH  10  11
ENDBRANCH   9  10
ENDBRANCH   8   9
ENDBRANCH   7   8
ENDBRANCH   4   7
ENDBRANCH   2   3
ENDBRANCH   1   2
BRANCH   1  29
HETATM   29  C17 UNL     1      -4.580  17.516  26.544  1.00  0.00     0.139 C 
BRANCH  29  30
HETATM   30  N4  UNL     1      -4.153  18.289  25.416  1.00  0.00    -0.226 N 
ATOM     31  H4  UNL     1      -3.212  18.682  25.413  1.00  0.00     0.177 HD
BRANCH  30  32
HETATM   32  C18 UNL     1      -4.921  18.502  24.407  1.00  0.00     0.678 A 
HETATM   33  N5  UNL     1      -5.529  19.631  24.042  1.00  0.00    -0.200 N 
HETATM   34  C19 UNL     1      -6.258  19.425  22.935  1.00  0.00     0.137 A 
ATOM     35  H5  UNL     1      -5.451  20.522  24.533  1.00  0.00     0.183 HD
HETATM   36  C20 UNL     1      -6.076  18.072  22.607  1.00  0.00     0.080 A 
HETATM   37  N12 UNL     1      -5.262  17.542  23.517  1.00  0.00    -0.189 N 
ATOM     38  H12 UNL     1      -4.947  16.572  23.540  1.00  0.00     0.184 HD
BRANCH  36  39
HETATM   39  C21 UNL     1      -6.707  17.440  21.467  1.00  0.00     0.114 C 
BRANCH  39  40
HETATM   40  N6  UNL     1      -7.253  16.347  21.415  1.00  0.00    -0.397 N 
ATOM     41  H6  UNL     1      -6.603  15.698  20.971  1.00  0.00     0.158 HD
BRANCH  40  42
HETATM   42  C22 UNL     1      -8.404  15.643  21.723  1.00  0.00     0.120 C 
BRANCH  42  43
HETATM   43  C23 UNL     1      -9.328  16.390  22.699  1.00  0.00     0.039 C 
BRANCH  43  44
HETATM   44  C24 UNL     1      -8.679  16.303  24.085  1.00  0.00     0.124 C 
BRANCH  44  45
HETATM   45  N7  UNL     1      -9.085  17.412  24.918  1.00  0.00    -0.363 N 
HETATM   46  C25 UNL     1      -9.815  17.230  25.987  1.00  0.00     0.204 C 
HETATM   47  N8  UNL     1     -10.197  15.906  26.298  1.00  0.00    -0.062 NA
HETATM   48  N9  UNL     1     -10.169  18.374  26.746  1.00  0.00    -0.260 N 
ATOM     49  H9  UNL     1     -10.069  19.318  26.372  1.00  0.00     0.191 HD
ATOM     50  H7  UNL     1      -8.796  18.358  24.667  1.00  0.00     0.162 HD
BRANCH  48  51
HETATM   51  N10 UNL     1     -10.664  18.139  28.038  1.00  0.00    -0.247 N 
HETATM   52  N11 UNL     1     -11.643  17.399  28.299  1.00  0.00    -0.331 N 
ATOM     53 2H11 UNL     1     -12.098  16.945  27.508  1.00  0.00     0.178 HD
ATOM     54 1H11 UNL     1     -12.003  17.229  29.238  1.00  0.00     0.178 HD
ATOM     55  H10 UNL     1     -10.196  18.603  28.818  1.00  0.00     0.207 HD
ENDBRANCH  48  51
ENDBRANCH  44  45
ENDBRANCH  43  44
ENDBRANCH  42  43
ENDBRANCH  40  42
ENDBRANCH  39  40
ENDBRANCH  36  39
ENDBRANCH  30  32
ENDBRANCH  29  30
ENDBRANCH   1  29
TORSDOF 23
ENDMDL
MODEL 5
REMARK VINA RESULT: -7.484049862      3.469     10.088
REMARK  23 active torsions:
REMARK  status: ('A' for Active; 'I' for Inactive)
REMARK    1  A    between atoms: N1_2  and  C2_4 
REMARK    2  A    between atoms: C6_8  and  C7_9 
REMARK    3  A    between atoms: C7_9  and  S1_10 
REMARK    4  A    between atoms: S1_10  and  N2_13 
REMARK    5  A    between atoms: N2_13  and  C8_15 
REMARK    6  A    between atoms: C8_15  and  C9_16 
REMARK    7  A    between atoms: C9_16  and  C10_17 
REMARK    8  A    between atoms: C10_17  and  C11_18 
REMARK    9  A    between atoms: C11_18  and  C12_19 
REMARK   10  A    between atoms: C12_19  and  C13_20 
REMARK   11  A    between atoms: C13_20  and  C14_21 
REMARK       I    between atoms: C14_21  and  N3_23 
REMARK   12  A    between atoms: N3_23  and  C15_25 
REMARK   13  A    between atoms: C15_25  and  C16_26 
REMARK   14  A    between atoms: C16_26  and  C17_27 
REMARK   15  A    between atoms: C17_27  and  N4_28 
REMARK   16  A    between atoms: N4_28  and  C18_30 
REMARK   17  A    between atoms: C20_34  and  C21_35 
REMARK   18  A    between atoms: C21_35  and  N6_36 
REMARK   19  A    between atoms: N6_36  and  C22_38 
REMARK   20  A    between atoms: C22_38  and  C23_39 
REMARK   21  A    between atoms: C23_39  and  C24_40 
REMARK   22  A    between atoms: C24_40  and  N7_41 
REMARK       I    between atoms: N7_41  and  C25_43 
REMARK       I    between atoms: C25_43  and  N9_45 
REMARK   23  A    between atoms: N9_45  and  N10_47 
ROOT
HETATM    1  C16 UNL     1     -10.071  15.988  25.703  1.00  0.00     0.040 C 
ENDROOT
BRANCH   1   2
HETATM    2  C15 UNL     1     -10.459  15.937  27.157  1.00  0.00     0.124 C 
BRANCH   2   3
HETATM    3  N3  UNL     1     -11.825  15.491  27.278  1.00  0.00    -0.361 N 
HETATM    4  C14 UNL     1     -12.161  14.136  27.477  1.00  0.00     0.217 C 
HETATM    5  O3  UNL     1     -11.290  13.218  27.561  1.00  0.00    -0.274 OA
ATOM      6  H3  UNL     1     -12.575  16.179  27.216  1.00  0.00     0.162 HD
BRANCH   4   7
HETATM    7  C13 UNL     1     -13.583  13.759  27.594  1.00  0.00     0.103 C 
BRANCH   7   8
HETATM    8  C12 UNL     1     -14.298  14.677  28.527  1.00  0.00     0.009 C 
BRANCH   8   9
HETATM    9  C11 UNL     1     -15.125  13.912  29.499  1.00  0.00     0.001 C 
BRANCH   9  10
HETATM   10  C10 UNL     1     -15.990  14.793  30.364  1.00  0.00     0.002 C 
BRANCH  10  11
HETATM   11  C9  UNL     1     -16.605  14.030  31.507  1.00  0.00     0.020 C 
BRANCH  11  12
HETATM   12  C8  UNL     1     -15.508  13.679  32.501  1.00  0.00     0.132 C 
BRANCH  12  13
HETATM   13  N2  UNL     1     -14.732  14.814  32.863  1.00  0.00    -0.319 N 
ATOM     14  H2  UNL     1     -15.162  15.727  33.012  1.00  0.00     0.172 HD
BRANCH  13  15
HETATM   15  S1  UNL     1     -13.066  14.587  33.034  1.00  0.00     0.231 S 
HETATM   16  O1  UNL     1     -12.713  13.412  33.924  1.00  0.00    -0.206 OA
HETATM   17  O2  UNL     1     -12.454  15.795  33.729  1.00  0.00    -0.206 OA
BRANCH  15  18
HETATM   18  C7  UNL     1     -12.180  14.405  31.510  1.00  0.00     0.220 C 
BRANCH  18  19
HETATM   19  C6  UNL     1     -10.799  14.989  31.714  1.00  0.00     0.026 A 
HETATM   20  C5  UNL     1     -10.146  15.688  30.735  1.00  0.00     0.026 A 
HETATM   21  C4  UNL     1      -8.883  16.189  30.978  1.00  0.00     0.006 A 
HETATM   22  C3  UNL     1      -8.314  15.966  32.221  1.00  0.00     0.048 A 
HETATM   23  C2  UNL     1      -8.983  15.260  33.195  1.00  0.00     0.100 A 
HETATM   24  N13 UNL     1     -10.200  14.802  32.899  1.00  0.00    -0.345 N 
ATOM     25  H13 UNL     1     -10.703  14.278  33.615  1.00  0.00     0.167 HD
BRANCH  23  26
HETATM   26  N1  UNL     1      -8.413  15.068  34.353  1.00  0.00    -0.381 N 
HETATM   27  C1  UNL     1      -8.739  15.861  35.512  1.00  0.00     0.147 C 
ATOM     28  H1  UNL     1      -7.713  14.331  34.440  1.00  0.00     0.160 HD
ENDBRANCH  23  26
ENDBRANCH  18  19
ENDBRANCH  15  18
ENDBRANCH  13  15
ENDBRANCH  12  13
ENDBRANCH  11  12
ENDBRANCH  10  11
ENDBRANCH   9  10
ENDBRANCH   8   9
ENDBRANCH   7   8
ENDBRANCH   4   7
ENDBRANCH   2   3
ENDBRANCH   1   2
BRANCH   1  29
HETATM   29  C17 UNL     1      -9.566  17.422  25.464  1.00  0.00     0.139 C 
BRANCH  29  30
HETATM   30  N4  UNL     1      -9.213  18.088  26.682  1.00  0.00    -0.226 N 
ATOM     31  H4  UNL     1      -9.946  18.314  27.353  1.00  0.00     0.177 HD
BRANCH  30  32
HETATM   32  C18 UNL     1      -7.998  18.410  26.955  1.00  0.00     0.678 A 
HETATM   33  N5  UNL     1      -7.532  19.530  27.507  1.00  0.00    -0.200 N 
HETATM   34  C19 UNL     1      -6.195  19.476  27.603  1.00  0.00     0.137 A 
ATOM     35  H5  UNL     1      -8.109  20.314  27.813  1.00  0.00     0.183 HD
HETATM   36  C20 UNL     1      -5.826  18.231  27.070  1.00  0.00     0.080 A 
HETATM   37  N12 UNL     1      -6.940  17.610  26.687  1.00  0.00    -0.189 N 
ATOM     38  H12 UNL     1      -6.988  16.684  26.262  1.00  0.00     0.184 HD
BRANCH  36  39
HETATM   39  C21 UNL     1      -4.453  17.781  26.980  1.00  0.00     0.114 C 
BRANCH  39  40
HETATM   40  N6  UNL     1      -3.849  17.389  25.993  1.00  0.00    -0.397 N 
ATOM     41  H6  UNL     1      -2.960  16.999  26.308  1.00  0.00     0.158 HD
BRANCH  40  42
HETATM   42  C22 UNL     1      -3.896  17.265  24.615  1.00  0.00     0.120 C 
BRANCH  42  43
HETATM   43  C23 UNL     1      -3.907  18.619  23.885  1.00  0.00     0.039 C 
BRANCH  43  44
HETATM   44  C24 UNL     1      -5.357  18.889  23.464  1.00  0.00     0.124 C 
BRANCH  44  45
HETATM   45  N7  UNL     1      -6.099  17.655  23.341  1.00  0.00    -0.363 N 
HETATM   46  C25 UNL     1      -7.065  17.525  22.471  1.00  0.00     0.204 C 
HETATM   47  N8  UNL     1      -7.361  18.639  21.653  1.00  0.00    -0.062 NA
HETATM   48  N9  UNL     1      -7.742  16.281  22.418  1.00  0.00    -0.260 N 
ATOM     49  H9  UNL     1      -7.655  15.590  23.164  1.00  0.00     0.191 HD
ATOM     50  H7  UNL     1      -5.865  16.868  23.947  1.00  0.00     0.162 HD
BRANCH  48  51
HETATM   51  N10 UNL     1      -8.538  16.048  21.285  1.00  0.00    -0.247 N 
HETATM   52  N11 UNL     1      -9.632  16.621  21.057  1.00  0.00    -0.331 N 
ATOM     53 2H11 UNL     1      -9.948  17.298  21.751  1.00  0.00     0.178 HD
ATOM     54 1H11 UNL     1     -10.210  16.451  20.235  1.00  0.00     0.178 HD
ATOM     55  H10 UNL     1      -8.206  15.367  20.602  1.00  0.00     0.207 HD
ENDBRANCH  48  51
ENDBRANCH  44  45
ENDBRANCH  43  44
ENDBRANCH  42  43
ENDBRANCH  40  42
ENDBRANCH  39  40
ENDBRANCH  36  39
ENDBRANCH  30  32
ENDBRANCH  29  30
ENDBRANCH   1  29
TORSDOF 23
ENDMDL
