MODEL 1
REMARK VINA RESULT: -8.416503643      0.000      0.000
REMARK  22 active torsions:
REMARK  status: ('A' for Active; 'I' for Inactive)
REMARK    1  A    between atoms: N1_1  and  C1_4 
REMARK    2  A    between atoms: C2_9  and  N4_10 
REMARK    3  A    between atoms: N4_10  and  C3_12 
REMARK    4  A    between atoms: C3_12  and  C4_13 
REMARK    5  A    between atoms: C4_13  and  N5_14 
REMARK       I    between atoms: N5_14  and  C5_16 
REMARK    6  A    between atoms: C5_16  and  C6_18 
REMARK    7  A    between atoms: C6_18  and  N6_19 
REMARK    8  A    between atoms: N6_19  and  C7_20 
REMARK       I    between atoms: N6_19  and  C24_49 
REMARK    9  A    between atoms: C7_20  and  C8_21 
REMARK   10  A    between atoms: C8_21  and  C9_22 
REMARK   11  A    between atoms: C9_22  and  N7_23 
REMARK       I    between atoms: N7_23  and  C10_25 
REMARK   12  A    between atoms: N9_27  and  C11_29 
REMARK   13  A    between atoms: C11_29  and  C12_30 
REMARK   14  A    between atoms: C12_30  and  C13_31 
REMARK   15  A    between atoms: C13_31  and  C14_32 
REMARK   16  A    between atoms: N10_36  and  C18_37 
REMARK   17  A    between atoms: C18_37  and  C19_38 
REMARK   18  A    between atoms: C19_38  and  C20_39 
REMARK   19  A    between atoms: C20_39  and  C21_40 
REMARK   20  A    between atoms: C21_40  and  C22_41 
REMARK   21  A    between atoms: C22_41  and  S1_42 
REMARK   22  A    between atoms: S1_42  and  N11_43 
ROOT
HETATM    1  C9  UNL     1     -13.084  13.253  27.335  1.00  0.00     0.123 C 
ENDROOT
BRANCH   1   2
HETATM    2  C8  UNL     1     -14.063  12.992  28.471  1.00  0.00     0.039 C 
BRANCH   2   3
HETATM    3  C7  UNL     1     -14.333  14.279  29.215  1.00  0.00     0.129 C 
BRANCH   3   4
HETATM    4  N6  UNL     1     -14.365  14.130  30.636  1.00  0.00    -0.328 N 
HETATM    5  C24 UNL     1     -15.513  14.480  31.373  1.00  0.00     0.331 C 
HETATM    6  N12 UNL     1     -15.555  14.327  32.772  1.00  0.00    -0.040 NA
HETATM    7  O4  UNL     1     -16.514  14.936  30.762  1.00  0.00    -0.251 OA
BRANCH   4   8
HETATM    8  C6  UNL     1     -13.206  13.600  31.366  1.00  0.00     0.229 C 
BRANCH   8   9
HETATM    9  C5  UNL     1     -12.193  14.680  31.550  1.00  0.00     0.235 C 
HETATM   10  N5  UNL     1     -11.486  15.253  30.472  1.00  0.00    -0.358 N 
ATOM     11  H5  UNL     1     -11.671  14.921  29.525  1.00  0.00     0.162 HD
HETATM   12  O1  UNL     1     -11.948  15.109  32.718  1.00  0.00    -0.272 OA
BRANCH  10  13
HETATM   13  C4  UNL     1     -10.514  16.293  30.671  1.00  0.00     0.143 C 
BRANCH  13  14
HETATM   14  C3  UNL     1      -9.124  15.870  30.246  1.00  0.00     0.157 C 
BRANCH  14  15
HETATM   15  N4  UNL     1      -8.205  15.998  31.345  1.00  0.00    -0.223 N 
ATOM     16  H4  UNL     1      -7.295  16.435  31.203  1.00  0.00     0.177 HD
BRANCH  15  17
HETATM   17  C2  UNL     1      -8.536  15.560  32.515  1.00  0.00     0.707 A 
HETATM   18  N3  UNL     1      -8.880  14.308  32.812  1.00  0.00    -0.117 N 
HETATM   19  N2  UNL     1      -9.146  14.227  34.088  1.00  0.00    -0.118 N 
ATOM     20  H3  UNL     1      -8.928  13.534  32.148  1.00  0.00     0.206 HD
HETATM   21  C1  UNL     1      -8.973  15.432  34.616  1.00  0.00     0.705 A 
ATOM     22  H2  UNL     1      -9.435  13.388  34.590  1.00  0.00     0.206 HD
HETATM   23  N13 UNL     1      -8.591  16.280  33.651  1.00  0.00    -0.020 N 
ATOM     24  H13 UNL     1      -8.384  17.273  33.757  1.00  0.00     0.203 HD
BRANCH  21  25
HETATM   25  N1  UNL     1      -9.140  15.749  35.858  1.00  0.00    -0.233 N 
ATOM     26  H12 UNL     1      -8.909  16.655  36.266  1.00  0.00     0.174 HD
ATOM     27  H11 UNL     1      -9.521  15.144  36.586  1.00  0.00     0.174 HD
ENDBRANCH  21  25
ENDBRANCH  15  17
ENDBRANCH  14  15
ENDBRANCH  13  14
ENDBRANCH  10  13
ENDBRANCH   8   9
ENDBRANCH   4   8
ENDBRANCH   3   4
ENDBRANCH   2   3
ENDBRANCH   1   2
BRANCH   1  28
HETATM   28  N7  UNL     1     -12.748  14.655  27.368  1.00  0.00    -0.365 N 
HETATM   29  C10 UNL     1     -11.385  15.024  27.197  1.00  0.00     0.183 C 
HETATM   30  N8  UNL     1     -10.353  14.063  27.488  1.00  0.00    -0.064 NA
HETATM   31  N9  UNL     1     -11.056  16.194  26.790  1.00  0.00    -0.365 N 
ATOM     32  H9  UNL     1     -11.774  16.887  26.580  1.00  0.00     0.162 HD
ATOM     33  H7  UNL     1     -13.468  15.363  27.510  1.00  0.00     0.162 HD
BRANCH  31  34
HETATM   34  C11 UNL     1      -9.645  16.524  26.631  1.00  0.00     0.122 C 
BRANCH  34  35
HETATM   35  C12 UNL     1      -9.508  17.015  25.196  1.00  0.00     0.024 C 
BRANCH  35  36
HETATM   36  C13 UNL     1      -9.936  15.974  24.204  1.00  0.00     0.041 C 
BRANCH  36  37
HETATM   37  C14 UNL     1      -9.415  16.408  22.877  1.00  0.00    -0.043 A 
HETATM   38  C15 UNL     1     -10.081  16.104  21.711  1.00  0.00     0.010 A 
HETATM   39  C16 UNL     1      -9.553  16.539  20.490  1.00  0.00     0.018 A 
HETATM   40  C17 UNL     1      -8.366  17.267  20.502  1.00  0.00     0.090 A 
HETATM   41  N10 UNL     1      -7.737  17.549  21.651  1.00  0.00    -0.366 N 
HETATM   42  C23 UNL     1      -8.231  17.139  22.826  1.00  0.00     0.097 A 
BRANCH  41  43
HETATM   43  C18 UNL     1      -6.510  18.310  21.613  1.00  0.00     0.128 C 
BRANCH  43  44
HETATM   44  C19 UNL     1      -5.750  18.159  22.931  1.00  0.00     0.020 C 
BRANCH  44  45
HETATM   45  C20 UNL     1      -5.242  19.533  23.379  1.00  0.00     0.002 C 
BRANCH  45  46
HETATM   46  C21 UNL     1      -5.271  19.582  24.870  1.00  0.00     0.017 C 
BRANCH  46  47
HETATM   47  C22 UNL     1      -5.755  18.309  25.502  1.00  0.00     0.163 C 
BRANCH  47  48
HETATM   48  S1  UNL     1      -6.173  18.453  27.198  1.00  0.00     0.224 S 
HETATM   49  O2  UNL     1      -6.424  17.152  27.879  1.00  0.00    -0.206 OA
HETATM   50  O3  UNL     1      -4.964  19.063  27.896  1.00  0.00    -0.206 OA
BRANCH  48  51
HETATM   51  N11 UNL     1      -7.480  19.557  27.455  1.00  0.00    -0.328 N 
ATOM     52 2H11 UNL     1      -7.744  20.275  26.779  1.00  0.00     0.168 HD
ATOM     53 1H11 UNL     1      -7.944  19.401  28.350  1.00  0.00     0.168 HD
ENDBRANCH  48  51
ENDBRANCH  47  48
ENDBRANCH  46  47
ENDBRANCH  45  46
ENDBRANCH  44  45
ENDBRANCH  43  44
ENDBRANCH  41  43
ENDBRANCH  36  37
ENDBRANCH  35  36
ENDBRANCH  34  35
ENDBRANCH  31  34
ENDBRANCH   1  28
TORSDOF 22
ENDMDL
MODEL 2
REMARK VINA RESULT: -8.341208321      1.483      2.364
REMARK  22 active torsions:
REMARK  status: ('A' for Active; 'I' for Inactive)
REMARK    1  A    between atoms: N1_1  and  C1_4 
REMARK    2  A    between atoms: C2_9  and  N4_10 
REMARK    3  A    between atoms: N4_10  and  C3_12 
REMARK    4  A    between atoms: C3_12  and  C4_13 
REMARK    5  A    between atoms: C4_13  and  N5_14 
REMARK       I    between atoms: N5_14  and  C5_16 
REMARK    6  A    between atoms: C5_16  and  C6_18 
REMARK    7  A    between atoms: C6_18  and  N6_19 
REMARK    8  A    between atoms: N6_19  and  C7_20 
REMARK       I    between atoms: N6_19  and  C24_49 
REMARK    9  A    between atoms: C7_20  and  C8_21 
REMARK   10  A    between atoms: C8_21  and  C9_22 
REMARK   11  A    between atoms: C9_22  and  N7_23 
REMARK       I    between atoms: N7_23  and  C10_25 
REMARK   12  A    between atoms: N9_27  and  C11_29 
REMARK   13  A    between atoms: C11_29  and  C12_30 
REMARK   14  A    between atoms: C12_30  and  C13_31 
REMARK   15  A    between atoms: C13_31  and  C14_32 
REMARK   16  A    between atoms: N10_36  and  C18_37 
REMARK   17  A    between atoms: C18_37  and  C19_38 
REMARK   18  A    between atoms: C19_38  and  C20_39 
REMARK   19  A    between atoms: C20_39  and  C21_40 
REMARK   20  A    between atoms: C21_40  and  C22_41 
REMARK   21  A    between atoms: C22_41  and  S1_42 
REMARK   22  A    between atoms: S1_42  and  N11_43 
ROOT
HETATM    1  C9  UNL     1     -13.546  14.378  27.773  1.00  0.00     0.123 C 
ENDROOT
BRANCH   1   2
HETATM    2  C8  UNL     1     -14.165  14.221  29.155  1.00  0.00     0.039 C 
BRANCH   2   3
HETATM    3  C7  UNL     1     -13.077  13.961  30.171  1.00  0.00     0.129 C 
BRANCH   3   4
HETATM    4  N6  UNL     1     -13.496  13.152  31.273  1.00  0.00    -0.328 N 
HETATM    5  C24 UNL     1     -13.270  11.762  31.275  1.00  0.00     0.331 C 
HETATM    6  N12 UNL     1     -13.671  10.960  32.361  1.00  0.00    -0.040 NA
HETATM    7  O4  UNL     1     -12.698  11.236  30.285  1.00  0.00    -0.251 OA
BRANCH   4   8
HETATM    8  C6  UNL     1     -14.165  13.749  32.436  1.00  0.00     0.229 C 
BRANCH   8   9
HETATM    9  C5  UNL     1     -13.145  14.338  33.353  1.00  0.00     0.235 C 
HETATM   10  N5  UNL     1     -12.160  13.560  33.997  1.00  0.00    -0.358 N 
ATOM     11  H5  UNL     1     -12.138  12.554  33.835  1.00  0.00     0.162 HD
HETATM   12  O1  UNL     1     -13.153  15.587  33.568  1.00  0.00    -0.272 OA
BRANCH  10  13
HETATM   13  C4  UNL     1     -11.187  14.148  34.877  1.00  0.00     0.143 C 
BRANCH  13  14
HETATM   14  C3  UNL     1      -9.909  14.520  34.154  1.00  0.00     0.157 C 
BRANCH  14  15
HETATM   15  N4  UNL     1      -9.906  15.923  33.836  1.00  0.00    -0.223 N 
ATOM     16  H4  UNL     1      -9.908  16.617  34.583  1.00  0.00     0.177 HD
BRANCH  15  17
HETATM   17  C2  UNL     1      -9.900  16.302  32.601  1.00  0.00     0.707 A 
HETATM   18  N3  UNL     1     -10.888  16.128  31.725  1.00  0.00    -0.117 N 
HETATM   19  N2  UNL     1     -10.537  16.640  30.575  1.00  0.00    -0.118 N 
ATOM     20  H3  UNL     1     -11.777  15.668  31.920  1.00  0.00     0.206 HD
HETATM   21  C1  UNL     1      -9.319  17.146  30.711  1.00  0.00     0.705 A 
ATOM     22  H2  UNL     1     -11.100  16.649  29.725  1.00  0.00     0.206 HD
HETATM   23  N13 UNL     1      -8.901  16.947  31.969  1.00  0.00    -0.020 N 
ATOM     24  H13 UNL     1      -8.006  17.228  32.368  1.00  0.00     0.203 HD
BRANCH  21  25
HETATM   25  N1  UNL     1      -8.634  17.739  29.789  1.00  0.00    -0.233 N 
ATOM     26  H12 UNL     1      -8.243  18.679  29.863  1.00  0.00     0.174 HD
ATOM     27  H11 UNL     1      -8.398  17.352  28.875  1.00  0.00     0.174 HD
ENDBRANCH  21  25
ENDBRANCH  15  17
ENDBRANCH  14  15
ENDBRANCH  13  14
ENDBRANCH  10  13
ENDBRANCH   8   9
ENDBRANCH   4   8
ENDBRANCH   3   4
ENDBRANCH   2   3
ENDBRANCH   1   2
BRANCH   1  28
HETATM   28  N7  UNL     1     -12.710  15.552  27.804  1.00  0.00    -0.365 N 
HETATM   29  C10 UNL     1     -11.356  15.426  27.387  1.00  0.00     0.183 C 
HETATM   30  N8  UNL     1     -10.725  14.132  27.425  1.00  0.00    -0.064 NA
HETATM   31  N9  UNL     1     -10.685  16.438  26.978  1.00  0.00    -0.365 N 
ATOM     32  H9  UNL     1     -11.116  17.362  26.946  1.00  0.00     0.162 HD
ATOM     33  H7  UNL     1     -13.079  16.450  28.118  1.00  0.00     0.162 HD
BRANCH  31  34
HETATM   34  C11 UNL     1      -9.301  16.256  26.561  1.00  0.00     0.122 C 
BRANCH  34  35
HETATM   35  C12 UNL     1      -9.216  16.879  25.174  1.00  0.00     0.024 C 
BRANCH  35  36
HETATM   36  C13 UNL     1      -9.936  16.057  24.146  1.00  0.00     0.041 C 
BRANCH  36  37
HETATM   37  C14 UNL     1      -9.377  16.444  22.820  1.00  0.00    -0.043 A 
HETATM   38  C15 UNL     1     -10.009  16.098  21.646  1.00  0.00     0.010 A 
HETATM   39  C16 UNL     1      -9.447  16.490  20.427  1.00  0.00     0.018 A 
HETATM   40  C17 UNL     1      -8.261  17.221  20.447  1.00  0.00     0.090 A 
HETATM   41  N10 UNL     1      -7.665  17.544  21.603  1.00  0.00    -0.366 N 
HETATM   42  C23 UNL     1      -8.193  17.175  22.776  1.00  0.00     0.097 A 
BRANCH  41  43
HETATM   43  C18 UNL     1      -6.438  18.305  21.573  1.00  0.00     0.128 C 
BRANCH  43  44
HETATM   44  C19 UNL     1      -5.772  18.293  22.950  1.00  0.00     0.020 C 
BRANCH  44  45
HETATM   45  C20 UNL     1      -5.450  19.731  23.365  1.00  0.00     0.002 C 
BRANCH  45  46
HETATM   46  C21 UNL     1      -5.156  19.744  24.828  1.00  0.00     0.017 C 
BRANCH  46  47
HETATM   47  C22 UNL     1      -5.582  18.489  25.535  1.00  0.00     0.163 C 
BRANCH  47  48
HETATM   48  S1  UNL     1      -6.077  18.725  27.200  1.00  0.00     0.224 S 
HETATM   49  O2  UNL     1      -6.343  17.463  27.944  1.00  0.00    -0.206 OA
HETATM   50  O3  UNL     1      -4.907  19.392  27.913  1.00  0.00    -0.206 OA
BRANCH  48  51
HETATM   51  N11 UNL     1      -7.407  19.824  27.334  1.00  0.00    -0.328 N 
ATOM     52 2H11 UNL     1      -7.821  20.297  26.530  1.00  0.00     0.168 HD
ATOM     53 1H11 UNL     1      -7.716  19.936  28.299  1.00  0.00     0.168 HD
ENDBRANCH  48  51
ENDBRANCH  47  48
ENDBRANCH  46  47
ENDBRANCH  45  46
ENDBRANCH  44  45
ENDBRANCH  43  44
ENDBRANCH  41  43
ENDBRANCH  36  37
ENDBRANCH  35  36
ENDBRANCH  34  35
ENDBRANCH  31  34
ENDBRANCH   1  28
TORSDOF 22
ENDMDL
MODEL 3
REMARK VINA RESULT: -8.294476369      2.732     10.593
REMARK  22 active torsions:
REMARK  status: ('A' for Active; 'I' for Inactive)
REMARK    1  A    between atoms: N1_1  and  C1_4 
REMARK    2  A    between atoms: C2_9  and  N4_10 
REMARK    3  A    between atoms: N4_10  and  C3_12 
REMARK    4  A    between atoms: C3_12  and  C4_13 
REMARK    5  A    between atoms: C4_13  and  N5_14 
REMARK       I    between atoms: N5_14  and  C5_16 
REMARK    6  A    between atoms: C5_16  and  C6_18 
REMARK    7  A    between atoms: C6_18  and  N6_19 
REMARK    8  A    between atoms: N6_19  and  C7_20 
REMARK       I    between atoms: N6_19  and  C24_49 
REMARK    9  A    between atoms: C7_20  and  C8_21 
REMARK   10  A    between atoms: C8_21  and  C9_22 
REMARK   11  A    between atoms: C9_22  and  N7_23 
REMARK       I    between atoms: N7_23  and  C10_25 
REMARK   12  A    between atoms: N9_27  and  C11_29 
REMARK   13  A    between atoms: C11_29  and  C12_30 
REMARK   14  A    between atoms: C12_30  and  C13_31 
REMARK   15  A    between atoms: C13_31  and  C14_32 
REMARK   16  A    between atoms: N10_36  and  C18_37 
REMARK   17  A    between atoms: C18_37  and  C19_38 
REMARK   18  A    between atoms: C19_38  and  C20_39 
REMARK   19  A    between atoms: C20_39  and  C21_40 
REMARK   20  A    between atoms: C21_40  and  C22_41 
REMARK   21  A    between atoms: C22_41  and  S1_42 
REMARK   22  A    between atoms: S1_42  and  N11_43 
ROOT
HETATM    1  C9  UNL     1      -5.494  19.350  27.042  1.00  0.00     0.123 C 
ENDROOT
BRANCH   1   2
HETATM    2  C8  UNL     1      -5.336  19.451  25.531  1.00  0.00     0.039 C 
BRANCH   2   3
HETATM    3  C7  UNL     1      -5.206  18.066  24.941  1.00  0.00     0.129 C 
BRANCH   3   4
HETATM    4  N6  UNL     1      -4.420  18.017  23.748  1.00  0.00    -0.328 N 
HETATM    5  C24 UNL     1      -3.268  17.210  23.674  1.00  0.00     0.331 C 
HETATM    6  N12 UNL     1      -2.495  17.149  22.499  1.00  0.00    -0.040 NA
HETATM    7  O4  UNL     1      -2.932  16.534  24.681  1.00  0.00    -0.251 OA
BRANCH   4   8
HETATM    8  C6  UNL     1      -4.797  18.799  22.563  1.00  0.00     0.229 C 
BRANCH   8   9
HETATM    9  C5  UNL     1      -6.123  18.337  22.059  1.00  0.00     0.235 C 
HETATM   10  N5  UNL     1      -6.303  17.092  21.421  1.00  0.00    -0.358 N 
ATOM     11  H5  UNL     1      -5.499  16.477  21.296  1.00  0.00     0.162 HD
HETATM   12  O1  UNL     1      -7.137  19.084  22.204  1.00  0.00    -0.272 OA
BRANCH  10  13
HETATM   13  C4  UNL     1      -7.589  16.666  20.942  1.00  0.00     0.143 C 
BRANCH  13  14
HETATM   14  C3  UNL     1      -8.280  15.725  21.907  1.00  0.00     0.157 C 
BRANCH  14  15
HETATM   15  N4  UNL     1      -7.777  15.922  23.241  1.00  0.00    -0.223 N 
ATOM     16  H4  UNL     1      -6.802  15.716  23.455  1.00  0.00     0.177 HD
BRANCH  15  17
HETATM   17  C2  UNL     1      -8.564  16.360  24.167  1.00  0.00     0.707 A 
HETATM   18  N3  UNL     1      -8.752  17.638  24.493  1.00  0.00    -0.117 N 
HETATM   19  N2  UNL     1      -9.619  17.709  25.468  1.00  0.00    -0.118 N 
ATOM     20  H3  UNL     1      -8.292  18.435  24.052  1.00  0.00     0.206 HD
HETATM   21  C1  UNL     1      -9.991  16.472  25.771  1.00  0.00     0.705 A 
ATOM     22  H2  UNL     1      -9.950  18.562  25.917  1.00  0.00     0.206 HD
HETATM   23  N13 UNL     1      -9.345  15.614  24.970  1.00  0.00    -0.020 N 
ATOM     24  H13 UNL     1      -9.429  14.597  24.969  1.00  0.00     0.203 HD
BRANCH  21  25
HETATM   25  N1  UNL     1     -10.839  16.137  26.687  1.00  0.00    -0.233 N 
ATOM     26  H12 UNL     1     -11.649  16.692  26.966  1.00  0.00     0.174 HD
ATOM     27  H11 UNL     1     -10.813  15.284  27.246  1.00  0.00     0.174 HD
ENDBRANCH  21  25
ENDBRANCH  15  17
ENDBRANCH  14  15
ENDBRANCH  13  14
ENDBRANCH  10  13
ENDBRANCH   8   9
ENDBRANCH   4   8
ENDBRANCH   3   4
ENDBRANCH   2   3
ENDBRANCH   1   2
BRANCH   1  28
HETATM   28  N7  UNL     1      -6.885  19.090  27.315  1.00  0.00    -0.365 N 
HETATM   29  C10 UNL     1      -7.217  17.939  28.080  1.00  0.00     0.183 C 
HETATM   30  N8  UNL     1      -6.290  16.839  28.137  1.00  0.00    -0.064 NA
HETATM   31  N9  UNL     1      -8.325  17.858  28.719  1.00  0.00    -0.365 N 
ATOM     32  H9  UNL     1      -8.994  18.627  28.689  1.00  0.00     0.162 HD
ATOM     33  H7  UNL     1      -7.612  19.716  26.968  1.00  0.00     0.162 HD
BRANCH  31  34
HETATM   34  C11 UNL     1      -8.619  16.656  29.489  1.00  0.00     0.122 C 
BRANCH  34  35
HETATM   35  C12 UNL     1      -8.948  17.150  30.892  1.00  0.00     0.024 C 
BRANCH  35  36
HETATM   36  C13 UNL     1      -8.143  16.439  31.940  1.00  0.00     0.041 C 
BRANCH  36  37
HETATM   37  C14 UNL     1      -9.116  15.857  32.906  1.00  0.00    -0.043 A 
HETATM   38  C15 UNL     1      -8.725  15.454  34.163  1.00  0.00     0.010 A 
HETATM   39  C16 UNL     1      -9.678  14.919  35.036  1.00  0.00     0.018 A 
HETATM   40  C17 UNL     1     -10.995  14.813  34.597  1.00  0.00     0.090 A 
HETATM   41  N10 UNL     1     -11.351  15.211  33.367  1.00  0.00    -0.366 N 
HETATM   42  C23 UNL     1     -10.448  15.725  32.523  1.00  0.00     0.097 A 
BRANCH  41  43
HETATM   43  C18 UNL     1     -12.729  15.084  32.958  1.00  0.00     0.128 C 
BRANCH  43  44
HETATM   44  C19 UNL     1     -13.022  13.648  32.518  1.00  0.00     0.020 C 
BRANCH  44  45
HETATM   45  C20 UNL     1     -14.159  13.659  31.492  1.00  0.00     0.002 C 
BRANCH  45  46
HETATM   46  C21 UNL     1     -13.977  12.495  30.577  1.00  0.00     0.017 C 
BRANCH  46  47
HETATM   47  C22 UNL     1     -12.636  12.468  29.901  1.00  0.00     0.163 C 
BRANCH  47  48
HETATM   48  S1  UNL     1     -12.382  13.753  28.737  1.00  0.00     0.224 S 
HETATM   49  O2  UNL     1     -11.695  14.954  29.290  1.00  0.00    -0.206 OA
HETATM   50  O3  UNL     1     -11.452  13.195  27.667  1.00  0.00    -0.206 OA
BRANCH  48  51
HETATM   51  N11 UNL     1     -13.844  14.188  27.919  1.00  0.00    -0.328 N 
ATOM     52 2H11 UNL     1     -14.749  13.772  28.137  1.00  0.00     0.168 HD
ATOM     53 1H11 UNL     1     -13.686  14.899  27.204  1.00  0.00     0.168 HD
ENDBRANCH  48  51
ENDBRANCH  47  48
ENDBRANCH  46  47
ENDBRANCH  45  46
ENDBRANCH  44  45
ENDBRANCH  43  44
ENDBRANCH  41  43
ENDBRANCH  36  37
ENDBRANCH  35  36
ENDBRANCH  34  35
ENDBRANCH  31  34
ENDBRANCH   1  28
TORSDOF 22
ENDMDL
MODEL 4
REMARK VINA RESULT: -8.177583759      2.551     10.697
REMARK  22 active torsions:
REMARK  status: ('A' for Active; 'I' for Inactive)
REMARK    1  A    between atoms: N1_1  and  C1_4 
REMARK    2  A    between atoms: C2_9  and  N4_10 
REMARK    3  A    between atoms: N4_10  and  C3_12 
REMARK    4  A    between atoms: C3_12  and  C4_13 
REMARK    5  A    between atoms: C4_13  and  N5_14 
REMARK       I    between atoms: N5_14  and  C5_16 
REMARK    6  A    between atoms: C5_16  and  C6_18 
REMARK    7  A    between atoms: C6_18  and  N6_19 
REMARK    8  A    between atoms: N6_19  and  C7_20 
REMARK       I    between atoms: N6_19  and  C24_49 
REMARK    9  A    between atoms: C7_20  and  C8_21 
REMARK   10  A    between atoms: C8_21  and  C9_22 
REMARK   11  A    between atoms: C9_22  and  N7_23 
REMARK       I    between atoms: N7_23  and  C10_25 
REMARK   12  A    between atoms: N9_27  and  C11_29 
REMARK   13  A    between atoms: C11_29  and  C12_30 
REMARK   14  A    between atoms: C12_30  and  C13_31 
REMARK   15  A    between atoms: C13_31  and  C14_32 
REMARK   16  A    between atoms: N10_36  and  C18_37 
REMARK   17  A    between atoms: C18_37  and  C19_38 
REMARK   18  A    between atoms: C19_38  and  C20_39 
REMARK   19  A    between atoms: C20_39  and  C21_40 
REMARK   20  A    between atoms: C21_40  and  C22_41 
REMARK   21  A    between atoms: C22_41  and  S1_42 
REMARK   22  A    between atoms: S1_42  and  N11_43 
ROOT
HETATM    1  C9  UNL     1      -9.206  16.727  24.481  1.00  0.00     0.123 C 
ENDROOT
BRANCH   1   2
HETATM    2  C8  UNL     1      -7.708  16.482  24.603  1.00  0.00     0.039 C 
BRANCH   2   3
HETATM    3  C7  UNL     1      -6.981  17.805  24.655  1.00  0.00     0.129 C 
BRANCH   3   4
HETATM    4  N6  UNL     1      -5.891  17.831  25.580  1.00  0.00    -0.328 N 
HETATM    5  C24 UNL     1      -6.048  18.384  26.865  1.00  0.00     0.331 C 
HETATM    6  N12 UNL     1      -4.982  18.404  27.785  1.00  0.00    -0.040 NA
HETATM    7  O4  UNL     1      -7.165  18.866  27.189  1.00  0.00    -0.251 OA
BRANCH   4   8
HETATM    8  C6  UNL     1      -4.581  17.273  25.219  1.00  0.00     0.229 C 
BRANCH   8   9
HETATM    9  C5  UNL     1      -4.103  17.897  23.950  1.00  0.00     0.235 C 
HETATM   10  N5  UNL     1      -3.963  17.169  22.749  1.00  0.00    -0.358 N 
ATOM     11  H5  UNL     1      -4.196  16.176  22.740  1.00  0.00     0.162 HD
HETATM   12  O1  UNL     1      -3.809  19.130  23.937  1.00  0.00    -0.272 OA
BRANCH  10  13
HETATM   13  C4  UNL     1      -3.502  17.789  21.538  1.00  0.00     0.143 C 
BRANCH  13  14
HETATM   14  C3  UNL     1      -4.525  17.710  20.425  1.00  0.00     0.157 C 
BRANCH  14  15
HETATM   15  N4  UNL     1      -5.798  18.203  20.881  1.00  0.00    -0.223 N 
ATOM     16  H4  UNL     1      -5.842  19.033  21.472  1.00  0.00     0.177 HD
BRANCH  15  17
HETATM   17  C2  UNL     1      -6.884  17.592  20.540  1.00  0.00     0.707 A 
HETATM   18  N3  UNL     1      -7.004  16.699  19.559  1.00  0.00    -0.117 N 
HETATM   19  N2  UNL     1      -8.242  16.287  19.503  1.00  0.00    -0.118 N 
ATOM     20  H3  UNL     1      -6.248  16.386  18.949  1.00  0.00     0.206 HD
HETATM   21  C1  UNL     1      -8.923  16.918  20.451  1.00  0.00     0.705 A 
ATOM     22  H2  UNL     1      -8.618  15.603  18.847  1.00  0.00     0.206 HD
HETATM   23  N13 UNL     1      -8.094  17.737  21.111  1.00  0.00    -0.020 N 
ATOM     24  H13 UNL     1      -8.333  18.349  21.891  1.00  0.00     0.203 HD
BRANCH  21  25
HETATM   25  N1  UNL     1     -10.182  16.772  20.706  1.00  0.00    -0.233 N 
ATOM     26  H12 UNL     1     -10.593  16.772  21.640  1.00  0.00     0.174 HD
ATOM     27  H11 UNL     1     -10.923  16.641  20.018  1.00  0.00     0.174 HD
ENDBRANCH  21  25
ENDBRANCH  15  17
ENDBRANCH  14  15
ENDBRANCH  13  14
ENDBRANCH  10  13
ENDBRANCH   8   9
ENDBRANCH   4   8
ENDBRANCH   3   4
ENDBRANCH   2   3
ENDBRANCH   1   2
BRANCH   1  28
HETATM   28  N7  UNL     1      -9.587  17.621  25.546  1.00  0.00    -0.365 N 
HETATM   29  C10 UNL     1      -9.967  17.056  26.795  1.00  0.00     0.183 C 
HETATM   30  N8  UNL     1     -10.437  15.695  26.839  1.00  0.00    -0.064 NA
HETATM   31  N9  UNL     1      -9.903  17.732  27.881  1.00  0.00    -0.365 N 
ATOM     32  H9  UNL     1      -9.573  18.697  27.868  1.00  0.00     0.162 HD
ATOM     33  H7  UNL     1      -9.584  18.631  25.408  1.00  0.00     0.162 HD
BRANCH  31  34
HETATM   34  C11 UNL     1     -10.304  17.108  29.135  1.00  0.00     0.122 C 
BRANCH  34  35
HETATM   35  C12 UNL     1      -9.002  16.750  29.840  1.00  0.00     0.024 C 
BRANCH  35  36
HETATM   36  C13 UNL     1      -8.884  17.425  31.175  1.00  0.00     0.041 C 
BRANCH  36  37
HETATM   37  C14 UNL     1      -9.102  16.372  32.207  1.00  0.00    -0.043 A 
HETATM   38  C15 UNL     1      -8.072  15.566  32.639  1.00  0.00     0.010 A 
HETATM   39  C16 UNL     1      -8.327  14.596  33.614  1.00  0.00     0.018 A 
HETATM   40  C17 UNL     1      -9.622  14.482  34.114  1.00  0.00     0.090 A 
HETATM   41  N10 UNL     1     -10.607  15.278  33.676  1.00  0.00    -0.366 N 
HETATM   42  C23 UNL     1     -10.376  16.210  32.744  1.00  0.00     0.097 A 
BRANCH  41  43
HETATM   43  C18 UNL     1     -11.933  15.123  34.227  1.00  0.00     0.128 C 
BRANCH  43  44
HETATM   44  C19 UNL     1     -12.625  13.906  33.612  1.00  0.00     0.020 C 
BRANCH  44  45
HETATM   45  C20 UNL     1     -13.486  14.361  32.430  1.00  0.00     0.002 C 
BRANCH  45  46
HETATM   46  C21 UNL     1     -13.162  13.502  31.253  1.00  0.00     0.017 C 
BRANCH  46  47
HETATM   47  C22 UNL     1     -12.532  14.256  30.118  1.00  0.00     0.163 C 
BRANCH  47  48
HETATM   48  S1  UNL     1     -13.575  14.481  28.727  1.00  0.00     0.224 S 
HETATM   49  O2  UNL     1     -13.486  13.394  27.712  1.00  0.00    -0.206 OA
HETATM   50  O3  UNL     1     -15.007  14.451  29.247  1.00  0.00    -0.206 OA
BRANCH  48  51
HETATM   51  N11 UNL     1     -13.364  16.037  28.000  1.00  0.00    -0.328 N 
ATOM     52 2H11 UNL     1     -12.656  16.704  28.309  1.00  0.00     0.168 HD
ATOM     53 1H11 UNL     1     -14.024  16.197  27.239  1.00  0.00     0.168 HD
ENDBRANCH  48  51
ENDBRANCH  47  48
ENDBRANCH  46  47
ENDBRANCH  45  46
ENDBRANCH  44  45
ENDBRANCH  43  44
ENDBRANCH  41  43
ENDBRANCH  36  37
ENDBRANCH  35  36
ENDBRANCH  34  35
ENDBRANCH  31  34
ENDBRANCH   1  28
TORSDOF 22
ENDMDL
MODEL 5
REMARK VINA RESULT: -8.131685951      2.728      9.794
REMARK  22 active torsions:
REMARK  status: ('A' for Active; 'I' for Inactive)
REMARK    1  A    between atoms: N1_1  and  C1_4 
REMARK    2  A    between atoms: C2_9  and  N4_10 
REMARK    3  A    between atoms: N4_10  and  C3_12 
REMARK    4  A    between atoms: C3_12  and  C4_13 
REMARK    5  A    between atoms: C4_13  and  N5_14 
REMARK       I    between atoms: N5_14  and  C5_16 
REMARK    6  A    between atoms: C5_16  and  C6_18 
REMARK    7  A    between atoms: C6_18  and  N6_19 
REMARK    8  A    between atoms: N6_19  and  C7_20 
REMARK       I    between atoms: N6_19  and  C24_49 
REMARK    9  A    between atoms: C7_20  and  C8_21 
REMARK   10  A    between atoms: C8_21  and  C9_22 
REMARK   11  A    between atoms: C9_22  and  N7_23 
REMARK       I    between atoms: N7_23  and  C10_25 
REMARK   12  A    between atoms: N9_27  and  C11_29 
REMARK   13  A    between atoms: C11_29  and  C12_30 
REMARK   14  A    between atoms: C12_30  and  C13_31 
REMARK   15  A    between atoms: C13_31  and  C14_32 
REMARK   16  A    between atoms: N10_36  and  C18_37 
REMARK   17  A    between atoms: C18_37  and  C19_38 
REMARK   18  A    between atoms: C19_38  and  C20_39 
REMARK   19  A    between atoms: C20_39  and  C21_40 
REMARK   20  A    between atoms: C21_40  and  C22_41 
REMARK   21  A    between atoms: C22_41  and  S1_42 
REMARK   22  A    between atoms: S1_42  and  N11_43 
ROOT
HETATM    1  C9  UNL     1      -8.951  15.642  25.385  1.00  0.00     0.123 C 
ENDROOT
BRANCH   1   2
HETATM    2  C8  UNL     1      -8.927  16.768  24.361  1.00  0.00     0.039 C 
BRANCH   2   3
HETATM    3  C7  UNL     1      -7.972  16.418  23.244  1.00  0.00     0.129 C 
BRANCH   3   4
HETATM    4  N6  UNL     1      -8.470  16.723  21.939  1.00  0.00    -0.328 N 
HETATM    5  C24 UNL     1      -9.621  16.086  21.438  1.00  0.00     0.331 C 
HETATM    6  N12 UNL     1     -10.122  16.389  20.158  1.00  0.00    -0.040 NA
HETATM    7  O4  UNL     1     -10.206  15.232  22.154  1.00  0.00    -0.251 OA
BRANCH   4   8
HETATM    8  C6  UNL     1      -7.800  17.717  21.090  1.00  0.00     0.229 C 
BRANCH   8   9
HETATM    9  C5  UNL     1      -6.689  18.360  21.851  1.00  0.00     0.235 C 
HETATM   10  N5  UNL     1      -5.379  17.837  21.873  1.00  0.00    -0.358 N 
ATOM     11  H5  UNL     1      -5.175  16.986  21.350  1.00  0.00     0.162 HD
HETATM   12  O1  UNL     1      -6.919  19.419  22.508  1.00  0.00    -0.272 OA
BRANCH  10  13
HETATM   13  C4  UNL     1      -4.323  18.472  22.614  1.00  0.00     0.143 C 
BRANCH  13  14
HETATM   14  C3  UNL     1      -3.827  17.615  23.759  1.00  0.00     0.157 C 
BRANCH  14  15
HETATM   15  N4  UNL     1      -4.937  17.113  24.524  1.00  0.00    -0.223 N 
ATOM     16  H4  UNL     1      -5.416  16.261  24.233  1.00  0.00     0.177 HD
BRANCH  15  17
HETATM   17  C2  UNL     1      -5.327  17.745  25.581  1.00  0.00     0.707 A 
HETATM   18  N3  UNL     1      -4.899  17.529  26.824  1.00  0.00    -0.117 N 
HETATM   19  N2  UNL     1      -5.504  18.353  27.636  1.00  0.00    -0.118 N 
ATOM     20  H3  UNL     1      -4.207  16.830  27.098  1.00  0.00     0.206 HD
HETATM   21  C1  UNL     1      -6.326  19.103  26.915  1.00  0.00     0.705 A 
ATOM     22  H2  UNL     1      -5.370  18.409  28.645  1.00  0.00     0.206 HD
HETATM   23  N13 UNL     1      -6.232  18.741  25.629  1.00  0.00    -0.020 N 
ATOM     24  H13 UNL     1      -6.742  19.141  24.841  1.00  0.00     0.203 HD
BRANCH  21  25
HETATM   25  N1  UNL     1      -7.098  20.037  27.368  1.00  0.00    -0.233 N 
ATOM     26  H12 UNL     1      -6.777  20.903  27.801  1.00  0.00     0.174 HD
ATOM     27  H11 UNL     1      -8.118  20.032  27.352  1.00  0.00     0.174 HD
ENDBRANCH  21  25
ENDBRANCH  15  17
ENDBRANCH  14  15
ENDBRANCH  13  14
ENDBRANCH  10  13
ENDBRANCH   8   9
ENDBRANCH   4   8
ENDBRANCH   3   4
ENDBRANCH   2   3
ENDBRANCH   1   2
BRANCH   1  28
HETATM   28  N7  UNL     1      -9.588  16.151  26.574  1.00  0.00    -0.365 N 
HETATM   29  C10 UNL     1      -8.771  16.452  27.699  1.00  0.00     0.183 C 
HETATM   30  N8  UNL     1      -7.486  15.813  27.828  1.00  0.00    -0.064 NA
HETATM   31  N9  UNL     1      -9.153  17.277  28.602  1.00  0.00    -0.365 N 
ATOM     32  H9  UNL     1     -10.061  17.737  28.527  1.00  0.00     0.162 HD
ATOM     33  H7  UNL     1     -10.597  16.293  26.608  1.00  0.00     0.162 HD
BRANCH  31  34
HETATM   34  C11 UNL     1      -8.280  17.551  29.735  1.00  0.00     0.122 C 
BRANCH  34  35
HETATM   35  C12 UNL     1      -9.089  17.161  30.966  1.00  0.00     0.024 C 
BRANCH  35  36
HETATM   36  C13 UNL     1      -8.268  16.383  31.952  1.00  0.00     0.041 C 
BRANCH  36  37
HETATM   37  C14 UNL     1      -9.220  15.810  32.945  1.00  0.00    -0.043 A 
HETATM   38  C15 UNL     1      -8.801  15.411  34.194  1.00  0.00     0.010 A 
HETATM   39  C16 UNL     1      -9.735  14.885  35.092  1.00  0.00     0.018 A 
HETATM   40  C17 UNL     1     -11.063  14.784  34.685  1.00  0.00     0.090 A 
HETATM   41  N10 UNL     1     -11.446  15.178  33.463  1.00  0.00    -0.366 N 
HETATM   42  C23 UNL     1     -10.562  15.684  32.594  1.00  0.00     0.097 A 
BRANCH  41  43
HETATM   43  C18 UNL     1     -12.835  15.056  33.087  1.00  0.00     0.128 C 
BRANCH  43  44
HETATM   44  C19 UNL     1     -13.134  13.631  32.619  1.00  0.00     0.020 C 
BRANCH  44  45
HETATM   45  C20 UNL     1     -14.006  13.688  31.360  1.00  0.00     0.002 C 
BRANCH  45  46
HETATM   46  C21 UNL     1     -13.305  12.952  30.269  1.00  0.00     0.017 C 
BRANCH  46  47
HETATM   47  C22 UNL     1     -13.563  13.516  28.902  1.00  0.00     0.163 C 
BRANCH  47  48
HETATM   48  S1  UNL     1     -12.405  14.726  28.384  1.00  0.00     0.224 S 
HETATM   49  O2  UNL     1     -11.233  14.880  29.291  1.00  0.00    -0.206 OA
HETATM   50  O3  UNL     1     -11.843  14.249  27.051  1.00  0.00    -0.206 OA
BRANCH  48  51
HETATM   51  N11 UNL     1     -13.156  16.252  28.067  1.00  0.00    -0.328 N 
ATOM     52 2H11 UNL     1     -14.143  16.348  27.828  1.00  0.00     0.168 HD
ATOM     53 1H11 UNL     1     -12.498  17.028  28.148  1.00  0.00     0.168 HD
ENDBRANCH  48  51
ENDBRANCH  47  48
ENDBRANCH  46  47
ENDBRANCH  45  46
ENDBRANCH  44  45
ENDBRANCH  43  44
ENDBRANCH  41  43
ENDBRANCH  36  37
ENDBRANCH  35  36
ENDBRANCH  34  35
ENDBRANCH  31  34
ENDBRANCH   1  28
TORSDOF 22
ENDMDL
