MODEL 1
REMARK VINA RESULT: -6.467399998      0.000      0.000
REMARK  19 active torsions:
REMARK  status: ('A' for Active; 'I' for Inactive)
REMARK    1  A    between atoms: C2_2  and  O1_3 
REMARK    2  A    between atoms: C4_7  and  C5_8 
REMARK    3  A    between atoms: C4_7  and  C6_11 
REMARK    4  A    between atoms: C5_8  and  O3_9 
REMARK    5  A    between atoms: C9_17  and  C10_18 
REMARK    6  A    between atoms: C10_18  and  O7_19 
REMARK    7  A    between atoms: C10_18  and  C11_21 
REMARK    8  A    between atoms: C11_21  and  C12_22 
REMARK    9  A    between atoms: C11_21  and  C13_25 
REMARK   10  A    between atoms: C12_22  and  O8_23 
REMARK   11  A    between atoms: C14_27  and  N1_28 
REMARK   12  A    between atoms: C18_36  and  C19_37 
REMARK   13  A    between atoms: C19_37  and  O12_38 
REMARK   14  A    between atoms: C19_37  and  O13_40 
REMARK   15  A    between atoms: C21_45  and  O14_46 
REMARK   16  A    between atoms: C22_48  and  O15_49 
REMARK   17  A    between atoms: C23_51  and  O16_52 
REMARK   18  A    between atoms: C24_54  and  O17_55 
REMARK   19  A    between atoms: C25_57  and  O18_58 
ROOT
HETATM    1  C11 UNL     1      35.728   8.660   2.693  1.00  0.00     0.072 C 
ENDROOT
BRANCH   1   2
HETATM    2  C10 UNL     1      34.945   7.430   2.478  1.00  0.00     0.158 C 
BRANCH   2   3
HETATM    3  C9  UNL     1      35.314   6.217   3.275  1.00  0.00     0.182 C 
HETATM    4  O6  UNL     1      35.070   6.572   4.641  1.00  0.00    -0.380 OA
HETATM    5  C8  UNL     1      35.700   5.673   5.505  1.00  0.00     0.178 C 
HETATM    6  C7  UNL     1      35.230   4.283   5.255  1.00  0.00     0.083 C 
HETATM    7  C4  UNL     1      34.981   3.456   6.490  1.00  0.00     0.142 C 
HETATM    8  C25 UNL     1      34.040   4.359   4.339  1.00  0.00     0.157 C 
HETATM    9  C3  UNL     1      34.746   2.060   6.008  1.00  0.00     0.190 C 
HETATM   10  C2  UNL     1      34.035   1.804   4.727  1.00  0.00     0.179 C 
HETATM   11  O2  UNL     1      35.124   1.093   6.642  1.00  0.00    -0.293 OA
HETATM   12  C1  UNL     1      32.925   0.780   4.941  1.00  0.00     0.063 C 
HETATM   13  C26 UNL     1      33.484   3.022   4.109  1.00  0.00     0.205 C 
HETATM   14  O19 UNL     1      32.502   2.958   3.351  1.00  0.00    -0.291 OA
HETATM   15  C24 UNL     1      34.613   4.951   3.024  1.00  0.00     0.192 C 
BRANCH   7  16
HETATM   16  C5  UNL     1      33.850   3.952   7.317  1.00  0.00     0.193 C 
BRANCH  16  17
HETATM   17  O3  UNL     1      33.503   2.996   8.262  1.00  0.00    -0.399 OA
ATOM     18  H3  UNL     1      33.299   3.419   9.088  1.00  0.00     0.209 HD
ENDBRANCH  16  17
ENDBRANCH   7  16
BRANCH   7  19
HETATM   19  C6  UNL     1      36.227   3.501   7.291  1.00  0.00     0.192 C 
HETATM   20  O4  UNL     1      37.360   3.155   6.873  1.00  0.00    -0.647 OA
HETATM   21  O5  UNL     1      36.134   3.959   8.596  1.00  0.00    -0.647 OA
ENDBRANCH   7  19
BRANCH  10  22
HETATM   22  O1  UNL     1      34.976   1.175   3.882  1.00  0.00    -0.374 OA
ATOM     23  H1  UNL     1      34.824   1.535   3.016  1.00  0.00     0.211 HD
ENDBRANCH  10  22
BRANCH   8  24
HETATM   24  O18 UNL     1      33.085   5.283   4.753  1.00  0.00    -0.379 OA
ATOM     25  H18 UNL     1      32.366   5.381   4.140  1.00  0.00     0.211 HD
ENDBRANCH   8  24
BRANCH  15  26
HETATM   26  O17 UNL     1      35.599   3.986   2.668  1.00  0.00    -0.389 OA
ATOM     27  H17 UNL     1      35.217   3.426   2.001  1.00  0.00     0.210 HD
ENDBRANCH  15  26
ENDBRANCH   2   3
BRANCH   2  28
HETATM   28  O7  UNL     1      33.624   7.741   2.941  1.00  0.00    -0.392 OA
ATOM     29  H7  UNL     1      33.546   8.672   2.770  1.00  0.00     0.210 HD
ENDBRANCH   2  28
ENDBRANCH   1   2
BRANCH   1  30
HETATM   30  C12 UNL     1      37.146   8.559   3.103  1.00  0.00     0.174 C 
BRANCH  30  31
HETATM   31  O8  UNL     1      37.369   8.664   4.475  1.00  0.00    -0.400 OA
ATOM     32  H8  UNL     1      38.253   8.453   4.754  1.00  0.00     0.209 HD
ENDBRANCH  30  31
ENDBRANCH   1  30
BRANCH   1  33
HETATM   33  C13 UNL     1      35.587   9.677   1.578  1.00  0.00     0.164 C 
HETATM   34  O9  UNL     1      34.717  10.715   1.992  1.00  0.00    -0.355 OA
HETATM   35  C14 UNL     1      34.790  11.826   1.195  1.00  0.00     0.262 C 
HETATM   36  C21 UNL     1      34.820  11.515  -0.270  1.00  0.00     0.198 C 
HETATM   37  C22 UNL     1      34.365  10.099  -0.563  1.00  0.00     0.182 C 
HETATM   38  C23 UNL     1      35.221   9.115   0.251  1.00  0.00     0.179 C 
BRANCH  35  39
HETATM   39  N1  UNL     1      35.867  12.739   1.549  1.00  0.00    -0.297 N 
HETATM   40  C15 UNL     1      36.495  13.638   0.793  1.00  0.00     0.188 A 
HETATM   41  N2  UNL     1      37.413  14.237   1.565  1.00  0.00    -0.344 N 
HETATM   42  C16 UNL     1      37.381  13.736   2.797  1.00  0.00     0.154 A 
ATOM     43  H2  UNL     1      38.046  14.973   1.252  1.00  0.00     0.167 HD
HETATM   44  C17 UNL     1      38.080  13.965   3.978  1.00  0.00     0.320 A 
HETATM   45  C20 UNL     1      36.387  12.778   2.774  1.00  0.00     0.146 A 
HETATM   46  O10 UNL     1      38.973  14.851   3.934  1.00  0.00    -0.257 OA
HETATM   47  O11 UNL     1      37.780  13.271   5.029  1.00  0.00    -0.255 OA
HETATM   48  C18 UNL     1      36.847  12.351   5.062  1.00  0.00     0.184 A 
HETATM   49  N3  UNL     1      36.151  12.104   3.938  1.00  0.00    -0.320 N 
ATOM     50  H3  UNL     1      35.423  11.390   3.955  1.00  0.00     0.169 HD
BRANCH  48  51
HETATM   51  C19 UNL     1      36.565  11.594   6.329  1.00  0.00     0.331 C 
BRANCH  51  52
HETATM   52  O12 UNL     1      36.538  12.420   7.431  1.00  0.00    -0.364 OA
ATOM     53  H12 UNL     1      37.347  12.381   7.927  1.00  0.00     0.213 HD
ENDBRANCH  51  52
BRANCH  51  54
HETATM   54  O13 UNL     1      37.544  10.632   6.480  1.00  0.00    -0.364 OA
ATOM     55  H13 UNL     1      38.386  11.036   6.305  1.00  0.00     0.213 HD
ENDBRANCH  51  54
ENDBRANCH  48  51
ENDBRANCH  35  39
BRANCH  36  56
HETATM   56  O14 UNL     1      36.141  11.638  -0.753  1.00  0.00    -0.388 OA
ATOM     57  H14 UNL     1      36.143  12.163  -1.544  1.00  0.00     0.210 HD
ENDBRANCH  36  56
BRANCH  37  58
HETATM   58  O15 UNL     1      33.025   9.957  -0.319  1.00  0.00    -0.390 OA
ATOM     59  H15 UNL     1      32.858   9.189   0.214  1.00  0.00     0.210 HD
ENDBRANCH  37  58
BRANCH  38  60
HETATM   60  O16 UNL     1      36.381   8.950  -0.548  1.00  0.00    -0.390 OA
ATOM     61  H16 UNL     1      36.464   8.044  -0.824  1.00  0.00     0.210 HD
ENDBRANCH  38  60
ENDBRANCH   1  33
TORSDOF 19
ENDMDL
MODEL 2
REMARK VINA RESULT: -6.240549545      4.343      8.276
REMARK  19 active torsions:
REMARK  status: ('A' for Active; 'I' for Inactive)
REMARK    1  A    between atoms: C2_2  and  O1_3 
REMARK    2  A    between atoms: C4_7  and  C5_8 
REMARK    3  A    between atoms: C4_7  and  C6_11 
REMARK    4  A    between atoms: C5_8  and  O3_9 
REMARK    5  A    between atoms: C9_17  and  C10_18 
REMARK    6  A    between atoms: C10_18  and  O7_19 
REMARK    7  A    between atoms: C10_18  and  C11_21 
REMARK    8  A    between atoms: C11_21  and  C12_22 
REMARK    9  A    between atoms: C11_21  and  C13_25 
REMARK   10  A    between atoms: C12_22  and  O8_23 
REMARK   11  A    between atoms: C14_27  and  N1_28 
REMARK   12  A    between atoms: C18_36  and  C19_37 
REMARK   13  A    between atoms: C19_37  and  O12_38 
REMARK   14  A    between atoms: C19_37  and  O13_40 
REMARK   15  A    between atoms: C21_45  and  O14_46 
REMARK   16  A    between atoms: C22_48  and  O15_49 
REMARK   17  A    between atoms: C23_51  and  O16_52 
REMARK   18  A    between atoms: C24_54  and  O17_55 
REMARK   19  A    between atoms: C25_57  and  O18_58 
ROOT
HETATM    1  C11 UNL     1      35.527   2.912   5.918  1.00  0.00     0.072 C 
ENDROOT
BRANCH   1   2
HETATM    2  C10 UNL     1      35.979   2.516   7.265  1.00  0.00     0.158 C 
BRANCH   2   3
HETATM    3  C9  UNL     1      37.361   2.913   7.683  1.00  0.00     0.182 C 
HETATM    4  O6  UNL     1      37.675   4.075   6.907  1.00  0.00    -0.380 OA
HETATM    5  C8  UNL     1      39.047   4.332   6.937  1.00  0.00     0.178 C 
HETATM    6  C7  UNL     1      39.520   4.520   8.336  1.00  0.00     0.083 C 
HETATM    7  C4  UNL     1      40.511   5.638   8.536  1.00  0.00     0.142 C 
HETATM    8  C25 UNL     1      38.307   4.633   9.218  1.00  0.00     0.157 C 
HETATM    9  C3  UNL     1      41.010   5.497   9.939  1.00  0.00     0.190 C 
HETATM   10  C2  UNL     1      40.109   5.032  11.027  1.00  0.00     0.179 C 
HETATM   11  O2  UNL     1      42.160   5.754  10.236  1.00  0.00    -0.293 OA
HETATM   12  C1  UNL     1      40.202   5.976  12.221  1.00  0.00     0.063 C 
HETATM   13  C26 UNL     1      38.705   4.891  10.605  1.00  0.00     0.205 C 
HETATM   14  O19 UNL     1      37.784   4.987  11.432  1.00  0.00    -0.291 OA
HETATM   15  C24 UNL     1      37.618   3.248   9.090  1.00  0.00     0.192 C 
BRANCH   7  16
HETATM   16  C5  UNL     1      39.938   6.987   8.287  1.00  0.00     0.193 C 
BRANCH  16  17
HETATM   17  O3  UNL     1      40.597   7.929   9.066  1.00  0.00    -0.399 OA
ATOM     18  H3  UNL     1      41.525   7.924   8.861  1.00  0.00     0.209 HD
ENDBRANCH  16  17
ENDBRANCH   7  16
BRANCH   7  19
HETATM   19  C6  UNL     1      41.622   5.397   7.587  1.00  0.00     0.192 C 
HETATM   20  O4  UNL     1      42.240   4.310   7.469  1.00  0.00    -0.647 OA
HETATM   21  O5  UNL     1      42.007   6.449   6.770  1.00  0.00    -0.647 OA
ENDBRANCH   7  19
BRANCH  10  22
HETATM   22  O1  UNL     1      40.643   3.802  11.472  1.00  0.00    -0.374 OA
ATOM     23  H1  UNL     1      40.633   3.229  10.714  1.00  0.00     0.211 HD
ENDBRANCH  10  22
BRANCH   8  24
HETATM   24  O18 UNL     1      37.364   5.540   8.743  1.00  0.00    -0.379 OA
ATOM     25  H18 UNL     1      37.046   6.135   9.412  1.00  0.00     0.211 HD
ENDBRANCH   8  24
BRANCH  15  26
HETATM   26  O17 UNL     1      38.634   2.366   9.556  1.00  0.00    -0.389 OA
ATOM     27  H17 UNL     1      39.240   2.228   8.838  1.00  0.00     0.210 HD
ENDBRANCH  15  26
ENDBRANCH   2   3
BRANCH   2  28
HETATM   28  O7  UNL     1      35.138   3.244   8.170  1.00  0.00    -0.392 OA
ATOM     29  H7  UNL     1      34.726   2.559   8.683  1.00  0.00     0.210 HD
ENDBRANCH   2  28
ENDBRANCH   1   2
BRANCH   1  30
HETATM   30  C12 UNL     1      36.296   2.473   4.732  1.00  0.00     0.174 C 
BRANCH  30  31
HETATM   31  O8  UNL     1      36.994   3.487   4.077  1.00  0.00    -0.400 OA
ATOM     32  H8  UNL     1      36.530   4.314   4.013  1.00  0.00     0.209 HD
ENDBRANCH  30  31
ENDBRANCH   1  30
BRANCH   1  33
HETATM   33  C13 UNL     1      34.047   2.691   5.681  1.00  0.00     0.164 C 
HETATM   34  O9  UNL     1      33.310   3.739   6.283  1.00  0.00    -0.355 OA
HETATM   35  C14 UNL     1      32.014   3.803   5.845  1.00  0.00     0.262 C 
HETATM   36  C21 UNL     1      31.341   2.468   5.758  1.00  0.00     0.198 C 
HETATM   37  C22 UNL     1      32.083   1.402   6.539  1.00  0.00     0.182 C 
HETATM   38  C23 UNL     1      33.540   1.344   6.053  1.00  0.00     0.179 C 
BRANCH  35  39
HETATM   39  N1  UNL     1      31.844   4.547   4.605  1.00  0.00    -0.297 N 
HETATM   40  C15 UNL     1      30.796   4.591   3.783  1.00  0.00     0.188 A 
HETATM   41  N2  UNL     1      31.116   5.415   2.774  1.00  0.00    -0.344 N 
HETATM   42  C16 UNL     1      32.346   5.895   2.939  1.00  0.00     0.154 A 
ATOM     43  H2  UNL     1      30.502   5.641   1.992  1.00  0.00     0.167 HD
HETATM   44  C17 UNL     1      33.173   6.761   2.231  1.00  0.00     0.320 A 
HETATM   45  C20 UNL     1      32.801   5.332   4.114  1.00  0.00     0.146 A 
HETATM   46  O10 UNL     1      32.699   7.240   1.169  1.00  0.00    -0.257 OA
HETATM   47  O11 UNL     1      34.354   7.017   2.695  1.00  0.00    -0.255 OA
HETATM   48  C18 UNL     1      34.836   6.512   3.804  1.00  0.00     0.184 A 
HETATM   49  N3  UNL     1      34.062   5.671   4.513  1.00  0.00    -0.320 N 
ATOM     50  H3  UNL     1      34.429   5.273   5.377  1.00  0.00     0.169 HD
BRANCH  48  51
HETATM   51  C19 UNL     1      36.220   6.867   4.268  1.00  0.00     0.331 C 
BRANCH  51  52
HETATM   52  O12 UNL     1      37.182   6.522   3.344  1.00  0.00    -0.364 OA
ATOM     53  H12 UNL     1      36.915   5.784   2.809  1.00  0.00     0.213 HD
ENDBRANCH  51  52
BRANCH  51  54
HETATM   54  O13 UNL     1      36.453   6.214   5.462  1.00  0.00    -0.364 OA
ATOM     55  H13 UNL     1      36.441   6.859   6.159  1.00  0.00     0.213 HD
ENDBRANCH  51  54
ENDBRANCH  48  51
ENDBRANCH  35  39
BRANCH  36  56
HETATM   56  O14 UNL     1      31.297   2.047   4.412  1.00  0.00    -0.388 OA
ATOM     57  H14 UNL     1      31.298   1.098   4.375  1.00  0.00     0.210 HD
ENDBRANCH  36  56
BRANCH  37  58
HETATM   58  O15 UNL     1      31.986   1.629   7.886  1.00  0.00    -0.390 OA
ATOM     59  H15 UNL     1      32.645   1.134   8.360  1.00  0.00     0.210 HD
ENDBRANCH  37  58
BRANCH  38  60
HETATM   60  O16 UNL     1      33.471   0.512   4.906  1.00  0.00    -0.390 OA
ATOM     61  H16 UNL     1      32.569   0.275   4.726  1.00  0.00     0.210 HD
ENDBRANCH  38  60
ENDBRANCH   1  33
TORSDOF 19
ENDMDL
MODEL 3
REMARK VINA RESULT: -6.231453675      7.981     12.103
REMARK  19 active torsions:
REMARK  status: ('A' for Active; 'I' for Inactive)
REMARK    1  A    between atoms: C2_2  and  O1_3 
REMARK    2  A    between atoms: C4_7  and  C5_8 
REMARK    3  A    between atoms: C4_7  and  C6_11 
REMARK    4  A    between atoms: C5_8  and  O3_9 
REMARK    5  A    between atoms: C9_17  and  C10_18 
REMARK    6  A    between atoms: C10_18  and  O7_19 
REMARK    7  A    between atoms: C10_18  and  C11_21 
REMARK    8  A    between atoms: C11_21  and  C12_22 
REMARK    9  A    between atoms: C11_21  and  C13_25 
REMARK   10  A    between atoms: C12_22  and  O8_23 
REMARK   11  A    between atoms: C14_27  and  N1_28 
REMARK   12  A    between atoms: C18_36  and  C19_37 
REMARK   13  A    between atoms: C19_37  and  O12_38 
REMARK   14  A    between atoms: C19_37  and  O13_40 
REMARK   15  A    between atoms: C21_45  and  O14_46 
REMARK   16  A    between atoms: C22_48  and  O15_49 
REMARK   17  A    between atoms: C23_51  and  O16_52 
REMARK   18  A    between atoms: C24_54  and  O17_55 
REMARK   19  A    between atoms: C25_57  and  O18_58 
ROOT
HETATM    1  C11 UNL     1      26.033   2.819   1.217  1.00  0.00     0.072 C 
ENDROOT
BRANCH   1   2
HETATM    2  C10 UNL     1      26.857   2.856   2.440  1.00  0.00     0.158 C 
BRANCH   2   3
HETATM    3  C9  UNL     1      28.335   3.031   2.283  1.00  0.00     0.182 C 
HETATM    4  O6  UNL     1      28.513   4.381   1.839  1.00  0.00    -0.380 OA
HETATM    5  C8  UNL     1      29.796   4.565   1.318  1.00  0.00     0.178 C 
HETATM    6  C7  UNL     1      30.832   4.229   2.333  1.00  0.00     0.083 C 
HETATM    7  C4  UNL     1      32.008   5.170   2.387  1.00  0.00     0.142 C 
HETATM    8  C25 UNL     1      30.138   4.064   3.657  1.00  0.00     0.157 C 
HETATM    9  C3  UNL     1      33.007   4.524   3.294  1.00  0.00     0.190 C 
HETATM   10  C2  UNL     1      32.568   3.736   4.476  1.00  0.00     0.179 C 
HETATM   11  O2  UNL     1      34.203   4.622   3.097  1.00  0.00    -0.293 OA
HETATM   12  C1  UNL     1      33.324   4.193   5.719  1.00  0.00     0.063 C 
HETATM   13  C26 UNL     1      31.116   3.801   4.717  1.00  0.00     0.205 C 
HETATM   14  O19 UNL     1      30.657   3.630   5.858  1.00  0.00    -0.291 OA
HETATM   15  C24 UNL     1      29.210   2.838   3.446  1.00  0.00     0.192 C 
BRANCH   7  16
HETATM   16  C5  UNL     1      31.651   6.539   2.844  1.00  0.00     0.193 C 
BRANCH  16  17
HETATM   17  O3  UNL     1      32.789   7.334   2.883  1.00  0.00    -0.399 OA
ATOM     18  H3  UNL     1      32.620   8.110   3.404  1.00  0.00     0.209 HD
ENDBRANCH  16  17
ENDBRANCH   7  16
BRANCH   7  19
HETATM   19  C6  UNL     1      32.558   5.243   1.013  1.00  0.00     0.192 C 
HETATM   20  O4  UNL     1      32.717   6.305   0.361  1.00  0.00    -0.647 OA
HETATM   21  O5  UNL     1      32.923   4.052   0.405  1.00  0.00    -0.647 OA
ENDBRANCH   7  19
BRANCH  10  22
HETATM   22  O1  UNL     1      32.995   2.411   4.236  1.00  0.00    -0.374 OA
ATOM     23  H1  UNL     1      32.593   1.885   4.917  1.00  0.00     0.211 HD
ENDBRANCH  10  22
BRANCH   8  24
HETATM   24  O18 UNL     1      29.274   5.112   3.960  1.00  0.00    -0.379 OA
ATOM     25  H18 UNL     1      28.513   5.147   3.392  1.00  0.00     0.211 HD
ENDBRANCH   8  24
BRANCH  15  26
HETATM   26  O17 UNL     1      30.141   1.814   3.111  1.00  0.00    -0.389 OA
ATOM     27  H17 UNL     1      29.660   1.136   2.649  1.00  0.00     0.210 HD
ENDBRANCH  15  26
ENDBRANCH   2   3
BRANCH   2  28
HETATM   28  O7  UNL     1      26.454   4.048   3.127  1.00  0.00    -0.392 OA
ATOM     29  H7  UNL     1      26.514   4.718   2.457  1.00  0.00     0.210 HD
ENDBRANCH   2  28
ENDBRANCH   1   2
BRANCH   1  30
HETATM   30  C12 UNL     1      26.681   2.579  -0.091  1.00  0.00     0.174 C 
BRANCH  30  31
HETATM   31  O8  UNL     1      26.985   3.732  -0.815  1.00  0.00    -0.400 OA
ATOM     32  H8  UNL     1      27.790   4.165  -0.557  1.00  0.00     0.209 HD
ENDBRANCH  30  31
ENDBRANCH   1  30
BRANCH   1  33
HETATM   33  C13 UNL     1      24.792   1.959   1.342  1.00  0.00     0.164 C 
HETATM   34  O9  UNL     1      24.883   1.163   2.509  1.00  0.00    -0.355 OA
HETATM   35  C14 UNL     1      23.685   0.611   2.876  1.00  0.00     0.262 C 
HETATM   36  C21 UNL     1      22.908   0.040   1.729  1.00  0.00     0.198 C 
HETATM   37  C22 UNL     1      23.772  -0.164   0.500  1.00  0.00     0.182 C 
HETATM   38  C23 UNL     1      24.447   1.167   0.131  1.00  0.00     0.179 C 
BRANCH  35  39
HETATM   39  N1  UNL     1      22.847   1.493   3.677  1.00  0.00    -0.297 N 
HETATM   40  C15 UNL     1      21.529   1.680   3.627  1.00  0.00     0.188 A 
HETATM   41  N2  UNL     1      21.221   2.591   4.561  1.00  0.00    -0.344 N 
HETATM   42  C16 UNL     1      22.317   2.986   5.204  1.00  0.00     0.154 A 
ATOM     43  H2  UNL     1      20.279   2.933   4.752  1.00  0.00     0.167 HD
HETATM   44  C17 UNL     1      22.593   3.881   6.233  1.00  0.00     0.320 A 
HETATM   45  C20 UNL     1      23.351   2.276   4.629  1.00  0.00     0.146 A 
HETATM   46  O10 UNL     1      21.607   4.497   6.714  1.00  0.00    -0.257 OA
HETATM   47  O11 UNL     1      23.818   4.025   6.625  1.00  0.00    -0.255 OA
HETATM   48  C18 UNL     1      24.837   3.376   6.115  1.00  0.00     0.184 A 
HETATM   49  N3  UNL     1      24.605   2.503   5.118  1.00  0.00    -0.320 N 
ATOM     50  H3  UNL     1      25.391   1.994   4.716  1.00  0.00     0.169 HD
BRANCH  48  51
HETATM   51  C19 UNL     1      26.227   3.606   6.635  1.00  0.00     0.331 C 
BRANCH  51  52
HETATM   52  O12 UNL     1      26.224   4.139   7.905  1.00  0.00    -0.364 OA
ATOM     53  H12 UNL     1      26.599   5.011   7.928  1.00  0.00     0.213 HD
ENDBRANCH  51  52
BRANCH  51  54
HETATM   54  O13 UNL     1      26.875   4.459   5.763  1.00  0.00    -0.364 OA
ATOM     55  H13 UNL     1      26.385   4.480   4.950  1.00  0.00     0.213 HD
ENDBRANCH  51  54
ENDBRANCH  48  51
ENDBRANCH  35  39
BRANCH  36  56
HETATM   56  O14 UNL     1      21.873   0.929   1.370  1.00  0.00    -0.388 OA
ATOM     57  H14 UNL     1      21.397   0.579   0.626  1.00  0.00     0.210 HD
ENDBRANCH  36  56
BRANCH  37  58
HETATM   58  O15 UNL     1      24.674  -1.174   0.701  1.00  0.00    -0.390 OA
ATOM     59  H15 UNL     1      24.229  -1.995   0.873  1.00  0.00     0.210 HD
ENDBRANCH  37  58
BRANCH  38  60
HETATM   60  O16 UNL     1      23.455   1.839  -0.628  1.00  0.00    -0.390 OA
ATOM     61  H16 UNL     1      23.377   1.445  -1.489  1.00  0.00     0.210 HD
ENDBRANCH  38  60
ENDBRANCH   1  33
TORSDOF 19
ENDMDL
MODEL 4
REMARK VINA RESULT: -6.198328133      5.397      9.346
REMARK  19 active torsions:
REMARK  status: ('A' for Active; 'I' for Inactive)
REMARK    1  A    between atoms: C2_2  and  O1_3 
REMARK    2  A    between atoms: C4_7  and  C5_8 
REMARK    3  A    between atoms: C4_7  and  C6_11 
REMARK    4  A    between atoms: C5_8  and  O3_9 
REMARK    5  A    between atoms: C9_17  and  C10_18 
REMARK    6  A    between atoms: C10_18  and  O7_19 
REMARK    7  A    between atoms: C10_18  and  C11_21 
REMARK    8  A    between atoms: C11_21  and  C12_22 
REMARK    9  A    between atoms: C11_21  and  C13_25 
REMARK   10  A    between atoms: C12_22  and  O8_23 
REMARK   11  A    between atoms: C14_27  and  N1_28 
REMARK   12  A    between atoms: C18_36  and  C19_37 
REMARK   13  A    between atoms: C19_37  and  O12_38 
REMARK   14  A    between atoms: C19_37  and  O13_40 
REMARK   15  A    between atoms: C21_45  and  O14_46 
REMARK   16  A    between atoms: C22_48  and  O15_49 
REMARK   17  A    between atoms: C23_51  and  O16_52 
REMARK   18  A    between atoms: C24_54  and  O17_55 
REMARK   19  A    between atoms: C25_57  and  O18_58 
ROOT
HETATM    1  C11 UNL     1      31.669   5.605   2.339  1.00  0.00     0.072 C 
ENDROOT
BRANCH   1   2
HETATM    2  C10 UNL     1      30.957   5.437   3.620  1.00  0.00     0.158 C 
BRANCH   2   3
HETATM    3  C9  UNL     1      29.805   4.481   3.659  1.00  0.00     0.182 C 
HETATM    4  O6  UNL     1      28.677   5.227   3.190  1.00  0.00    -0.380 OA
HETATM    5  C8  UNL     1      27.485   4.572   3.509  1.00  0.00     0.178 C 
HETATM    6  C7  UNL     1      27.461   3.203   2.925  1.00  0.00     0.083 C 
HETATM    7  C4  UNL     1      26.144   2.782   2.325  1.00  0.00     0.142 C 
HETATM    8  C25 UNL     1      28.615   3.094   1.967  1.00  0.00     0.157 C 
HETATM    9  C3  UNL     1      26.282   1.325   2.015  1.00  0.00     0.190 C 
HETATM   10  C2  UNL     1      27.578   0.762   1.554  1.00  0.00     0.179 C 
HETATM   11  O2  UNL     1      25.346   0.557   2.129  1.00  0.00    -0.293 OA
HETATM   12  C1  UNL     1      27.365  -0.082   0.301  1.00  0.00     0.063 C 
HETATM   13  C26 UNL     1      28.606   1.787   1.301  1.00  0.00     0.205 C 
HETATM   14  O19 UNL     1      29.526   1.575   0.495  1.00  0.00    -0.291 OA
HETATM   15  C24 UNL     1      29.869   3.245   2.868  1.00  0.00     0.192 C 
BRANCH   7  16
HETATM   16  C5  UNL     1      25.762   3.569   1.123  1.00  0.00     0.193 C 
BRANCH  16  17
HETATM   17  O3  UNL     1      24.789   2.887   0.404  1.00  0.00    -0.399 OA
ATOM     18  H3  UNL     1      24.533   3.399  -0.354  1.00  0.00     0.209 HD
ENDBRANCH  16  17
ENDBRANCH   7  16
BRANCH   7  19
HETATM   19  C6  UNL     1      25.118   2.971   3.377  1.00  0.00     0.192 C 
HETATM   20  O4  UNL     1      24.022   3.563   3.211  1.00  0.00    -0.647 OA
HETATM   21  O5  UNL     1      25.387   2.458   4.636  1.00  0.00    -0.647 OA
ENDBRANCH   7  19
BRANCH  10  22
HETATM   22  O1  UNL     1      27.985  -0.144   2.558  1.00  0.00    -0.374 OA
ATOM     23  H1  UNL     1      28.082   0.375   3.348  1.00  0.00     0.211 HD
ENDBRANCH  10  22
BRANCH   8  24
HETATM   24  O18 UNL     1      28.691   4.159   1.075  1.00  0.00    -0.379 OA
ATOM     25  H18 UNL     1      29.128   4.921   1.436  1.00  0.00     0.211 HD
ENDBRANCH   8  24
BRANCH  15  26
HETATM   26  O17 UNL     1      29.720   2.156   3.772  1.00  0.00    -0.389 OA
ATOM     27  H17 UNL     1      30.577   1.759   3.881  1.00  0.00     0.210 HD
ENDBRANCH  15  26
ENDBRANCH   2   3
BRANCH   2  28
HETATM   28  O7  UNL     1      31.914   4.837   4.503  1.00  0.00    -0.392 OA
ATOM     29  H7  UNL     1      32.312   5.584   4.934  1.00  0.00     0.210 HD
ENDBRANCH   2  28
ENDBRANCH   1   2
BRANCH   1  30
HETATM   30  C12 UNL     1      32.676   6.680   2.201  1.00  0.00     0.174 C 
BRANCH  30  31
HETATM   31  O8  UNL     1      33.441   6.918   3.343  1.00  0.00    -0.400 OA
ATOM     32  H8  UNL     1      34.112   7.583   3.242  1.00  0.00     0.209 HD
ENDBRANCH  30  31
ENDBRANCH   1  30
BRANCH   1  33
HETATM   33  C13 UNL     1      32.215   4.312   1.769  1.00  0.00     0.164 C 
HETATM   34  O9  UNL     1      33.421   3.975   2.430  1.00  0.00    -0.355 OA
HETATM   35  C14 UNL     1      33.803   2.677   2.219  1.00  0.00     0.262 C 
HETATM   36  C21 UNL     1      33.669   2.234   0.794  1.00  0.00     0.198 C 
HETATM   37  C22 UNL     1      33.527   3.405  -0.158  1.00  0.00     0.182 C 
HETATM   38  C23 UNL     1      32.342   4.277   0.288  1.00  0.00     0.179 C 
BRANCH  35  39
HETATM   39  N1  UNL     1      33.174   1.721   3.118  1.00  0.00    -0.297 N 
HETATM   40  C15 UNL     1      32.493   0.612   2.829  1.00  0.00     0.188 A 
HETATM   41  N2  UNL     1      32.109   0.067   3.992  1.00  0.00    -0.344 N 
HETATM   42  C16 UNL     1      32.533   0.806   5.014  1.00  0.00     0.154 A 
ATOM     43  H2  UNL     1      31.569  -0.794   4.081  1.00  0.00     0.167 HD
HETATM   44  C17 UNL     1      32.434   0.730   6.399  1.00  0.00     0.320 A 
HETATM   45  C20 UNL     1      33.213   1.862   4.441  1.00  0.00     0.146 A 
HETATM   46  O10 UNL     1      31.801  -0.256   6.859  1.00  0.00    -0.257 OA
HETATM   47  O11 UNL     1      32.983   1.655   7.118  1.00  0.00    -0.255 OA
HETATM   48  C18 UNL     1      33.640   2.678   6.627  1.00  0.00     0.184 A 
HETATM   49  N3  UNL     1      33.756   2.782   5.291  1.00  0.00    -0.320 N 
ATOM     50  H3  UNL     1      34.265   3.574   4.901  1.00  0.00     0.169 HD
BRANCH  48  51
HETATM   51  C19 UNL     1      34.248   3.705   7.539  1.00  0.00     0.331 C 
BRANCH  51  52
HETATM   52  O12 UNL     1      35.494   3.327   7.990  1.00  0.00    -0.364 OA
ATOM     53  H12 UNL     1      35.487   3.101   8.912  1.00  0.00     0.213 HD
ENDBRANCH  51  52
BRANCH  51  54
HETATM   54  O13 UNL     1      33.393   3.889   8.608  1.00  0.00    -0.364 OA
ATOM     55  H13 UNL     1      33.504   4.777   8.926  1.00  0.00     0.213 HD
ENDBRANCH  51  54
ENDBRANCH  48  51
ENDBRANCH  35  39
BRANCH  36  56
HETATM   56  O14 UNL     1      32.511   1.439   0.654  1.00  0.00    -0.388 OA
ATOM     57  H14 UNL     1      32.509   0.759   1.317  1.00  0.00     0.210 HD
ENDBRANCH  36  56
BRANCH  37  58
HETATM   58  O15 UNL     1      34.698   4.110  -0.240  1.00  0.00    -0.390 OA
ATOM     59  H15 UNL     1      35.439   3.524  -0.345  1.00  0.00     0.210 HD
ENDBRANCH  37  58
BRANCH  38  60
HETATM   60  O16 UNL     1      31.220   3.625  -0.285  1.00  0.00    -0.390 OA
ATOM     61  H16 UNL     1      31.446   3.269  -1.137  1.00  0.00     0.210 HD
ENDBRANCH  38  60
ENDBRANCH   1  33
TORSDOF 19
ENDMDL
MODEL 5
REMARK VINA RESULT: -6.162803902      3.858      9.391
REMARK  19 active torsions:
REMARK  status: ('A' for Active; 'I' for Inactive)
REMARK    1  A    between atoms: C2_2  and  O1_3 
REMARK    2  A    between atoms: C4_7  and  C5_8 
REMARK    3  A    between atoms: C4_7  and  C6_11 
REMARK    4  A    between atoms: C5_8  and  O3_9 
REMARK    5  A    between atoms: C9_17  and  C10_18 
REMARK    6  A    between atoms: C10_18  and  O7_19 
REMARK    7  A    between atoms: C10_18  and  C11_21 
REMARK    8  A    between atoms: C11_21  and  C12_22 
REMARK    9  A    between atoms: C11_21  and  C13_25 
REMARK   10  A    between atoms: C12_22  and  O8_23 
REMARK   11  A    between atoms: C14_27  and  N1_28 
REMARK   12  A    between atoms: C18_36  and  C19_37 
REMARK   13  A    between atoms: C19_37  and  O12_38 
REMARK   14  A    between atoms: C19_37  and  O13_40 
REMARK   15  A    between atoms: C21_45  and  O14_46 
REMARK   16  A    between atoms: C22_48  and  O15_49 
REMARK   17  A    between atoms: C23_51  and  O16_52 
REMARK   18  A    between atoms: C24_54  and  O17_55 
REMARK   19  A    between atoms: C25_57  and  O18_58 
ROOT
HETATM    1  C11 UNL     1      35.198   3.925   5.875  1.00  0.00     0.072 C 
ENDROOT
BRANCH   1   2
HETATM    2  C10 UNL     1      35.793   4.432   4.624  1.00  0.00     0.158 C 
BRANCH   2   3
HETATM    3  C9  UNL     1      35.843   5.915   4.425  1.00  0.00     0.182 C 
HETATM    4  O6  UNL     1      37.227   6.267   4.530  1.00  0.00    -0.380 OA
HETATM    5  C8  UNL     1      37.374   7.643   4.718  1.00  0.00     0.178 C 
HETATM    6  C7  UNL     1      36.747   8.399   3.599  1.00  0.00     0.083 C 
HETATM    7  C4  UNL     1      37.535   9.584   3.102  1.00  0.00     0.142 C 
HETATM    8  C25 UNL     1      36.405   7.413   2.515  1.00  0.00     0.157 C 
HETATM    9  C3  UNL     1      36.630  10.311   2.158  1.00  0.00     0.190 C 
HETATM   10  C2  UNL     1      35.680   9.569   1.287  1.00  0.00     0.179 C 
HETATM   11  O2  UNL     1      36.639  11.524   2.072  1.00  0.00    -0.293 OA
HETATM   12  C1  UNL     1      35.813  10.047  -0.156  1.00  0.00     0.063 C 
HETATM   13  C26 UNL     1      35.847   8.107   1.350  1.00  0.00     0.205 C 
HETATM   14  O19 UNL     1      35.510   7.391   0.394  1.00  0.00    -0.291 OA
HETATM   15  C24 UNL     1      35.344   6.489   3.168  1.00  0.00     0.192 C 
BRANCH   7  16
HETATM   16  C5  UNL     1      38.821   9.212   2.457  1.00  0.00     0.193 C 
BRANCH  16  17
HETATM   17  O3  UNL     1      39.285  10.270   1.687  1.00  0.00    -0.399 OA
ATOM     18  H3  UNL     1      39.857   9.943   1.002  1.00  0.00     0.209 HD
ENDBRANCH  16  17
ENDBRANCH   7  16
BRANCH   7  19
HETATM   19  C6  UNL     1      37.811  10.436   4.282  1.00  0.00     0.192 C 
HETATM   20  O4  UNL     1      38.957  10.776   4.668  1.00  0.00    -0.647 OA
HETATM   21  O5  UNL     1      36.724  10.891   5.012  1.00  0.00    -0.647 OA
ENDBRANCH   7  19
BRANCH  10  22
HETATM   22  O1  UNL     1      34.389   9.962   1.701  1.00  0.00    -0.374 OA
ATOM     23  H1  UNL     1      34.385   9.878   2.647  1.00  0.00     0.211 HD
ENDBRANCH  10  22
BRANCH   8  24
HETATM   24  O18 UNL     1      37.460   6.565   2.191  1.00  0.00    -0.379 OA
ATOM     25  H18 UNL     1      38.076   6.443   2.904  1.00  0.00     0.211 HD
ENDBRANCH   8  24
BRANCH  15  26
HETATM   26  O17 UNL     1      34.312   7.411   3.505  1.00  0.00    -0.389 OA
ATOM     27  H17 UNL     1      33.573   6.904   3.822  1.00  0.00     0.210 HD
ENDBRANCH  15  26
ENDBRANCH   2   3
BRANCH   2  28
HETATM   28  O7  UNL     1      37.176   4.061   4.690  1.00  0.00    -0.392 OA
ATOM     29  H7  UNL     1      37.613   4.759   4.216  1.00  0.00     0.210 HD
ENDBRANCH   2  28
ENDBRANCH   1   2
BRANCH   1  30
HETATM   30  C12 UNL     1      35.129   4.808   7.060  1.00  0.00     0.174 C 
BRANCH  30  31
HETATM   31  O8  UNL     1      34.932   4.148   8.273  1.00  0.00    -0.400 OA
ATOM     32  H8  UNL     1      34.178   4.444   8.770  1.00  0.00     0.209 HD
ENDBRANCH  30  31
ENDBRANCH   1  30
BRANCH   1  33
HETATM   33  C13 UNL     1      33.870   3.223   5.679  1.00  0.00     0.164 C 
HETATM   34  O9  UNL     1      32.834   4.002   6.247  1.00  0.00    -0.355 OA
HETATM   35  C14 UNL     1      31.586   3.619   5.832  1.00  0.00     0.262 C 
HETATM   36  C21 UNL     1      31.385   2.135   5.822  1.00  0.00     0.198 C 
HETATM   37  C22 UNL     1      32.438   1.410   6.637  1.00  0.00     0.182 C 
HETATM   38  C23 UNL     1      33.832   1.804   6.123  1.00  0.00     0.179 C 
BRANCH  35  39
HETATM   39  N1  UNL     1      31.178   4.203   4.563  1.00  0.00    -0.297 N 
HETATM   40  C15 UNL     1      31.925   4.762   3.611  1.00  0.00     0.188 A 
HETATM   41  N2  UNL     1      31.095   5.154   2.633  1.00  0.00    -0.344 N 
HETATM   42  C16 UNL     1      29.837   4.855   2.945  1.00  0.00     0.154 A 
ATOM     43  H2  UNL     1      31.389   5.615   1.772  1.00  0.00     0.167 HD
HETATM   44  C17 UNL     1      28.599   5.020   2.331  1.00  0.00     0.320 A 
HETATM   45  C20 UNL     1      29.903   4.247   4.182  1.00  0.00     0.146 A 
HETATM   46  O10 UNL     1      28.607   5.582   1.205  1.00  0.00    -0.257 OA
HETATM   47  O11 UNL     1      27.538   4.598   2.939  1.00  0.00    -0.255 OA
HETATM   48  C18 UNL     1      27.543   4.014   4.112  1.00  0.00     0.184 A 
HETATM   49  N3  UNL     1      28.723   3.838   4.734  1.00  0.00    -0.320 N 
ATOM     50  H3  UNL     1      28.737   3.385   5.647  1.00  0.00     0.169 HD
BRANCH  48  51
HETATM   51  C19 UNL     1      26.260   3.554   4.743  1.00  0.00     0.331 C 
BRANCH  51  52
HETATM   52  O12 UNL     1      25.194   3.644   3.875  1.00  0.00    -0.364 OA
ATOM     53  H12 UNL     1      25.474   3.727   2.971  1.00  0.00     0.213 HD
ENDBRANCH  51  52
BRANCH  51  54
HETATM   54  O13 UNL     1      26.029   4.330   5.861  1.00  0.00    -0.364 OA
ATOM     55  H13 UNL     1      25.092   4.354   6.016  1.00  0.00     0.213 HD
ENDBRANCH  51  54
ENDBRANCH  48  51
ENDBRANCH  35  39
BRANCH  36  56
HETATM   56  O14 UNL     1      31.476   1.655   4.498  1.00  0.00    -0.388 OA
ATOM     57  H14 UNL     1      32.297   1.935   4.113  1.00  0.00     0.210 HD
ENDBRANCH  36  56
BRANCH  37  58
HETATM   58  O15 UNL     1      32.278   1.660   7.973  1.00  0.00    -0.390 OA
ATOM     59  H15 UNL     1      33.035   1.365   8.465  1.00  0.00     0.210 HD
ENDBRANCH  37  58
BRANCH  38  60
HETATM   60  O16 UNL     1      34.033   0.938   5.018  1.00  0.00    -0.390 OA
ATOM     61  H16 UNL     1      33.252   0.907   4.479  1.00  0.00     0.210 HD
ENDBRANCH  38  60
ENDBRANCH   1  33
TORSDOF 19
ENDMDL
