MODEL 1
REMARK VINA RESULT: -7.254985280      0.000      0.000
REMARK  17 active torsions:
REMARK  status: ('A' for Active; 'I' for Inactive)
REMARK    1  A    between atoms: C5_14  and  C6_15 
REMARK    2  A    between atoms: C6_15  and  O1_16 
REMARK    3  A    between atoms: O1_16  and  C7_17 
REMARK    4  A    between atoms: C8_19  and  C9_20 
REMARK    5  A    between atoms: C9_20  and  O3_21 
REMARK    6  A    between atoms: C9_20  and  C10_23 
REMARK    7  A    between atoms: C11_25  and  C12_26 
REMARK    8  A    between atoms: C12_26  and  O5_27 
REMARK    9  A    between atoms: C13_29  and  O6_30 
REMARK   10  A    between atoms: C14_32  and  O7_33 
REMARK   11  A    between atoms: C15_35  and  O8_36 
REMARK   12  A    between atoms: C16_38  and  N5_39 
REMARK   13  A    between atoms: N7_48  and  N8_49 
REMARK   14  A    between atoms: N9_52  and  C21_53 
REMARK   15  A    between atoms: C22_54  and  O11_55 
REMARK   16  A    between atoms: C24_59  and  O13_60 
REMARK   17  A    between atoms: C25_62  and  O14_63 
ROOT
HETATM    1  C7  UNL     1      29.961   3.112   3.066  1.00  0.00     0.364 C 
HETATM    2  O2  UNL     1      28.822   2.503   3.574  1.00  0.00    -0.335 OA
HETATM    3  C8  UNL     1      27.816   2.570   2.622  1.00  0.00     0.197 C 
HETATM    4  C16 UNL     1      28.446   2.873   1.310  1.00  0.00     0.224 C 
HETATM    5  N7  UNL     1      29.720   3.428   1.675  1.00  0.00    -0.159 NA
ENDROOT
BRANCH   1   6
HETATM    6  O1  UNL     1      30.240   4.214   3.828  1.00  0.00    -0.340 OA
BRANCH   6   7
HETATM    7  C6  UNL     1      31.163   4.077   4.822  1.00  0.00     0.249 C 
BRANCH   7   8
HETATM    8  C5  UNL     1      32.393   4.819   4.521  1.00  0.00     0.110 A 
HETATM    9  N4  UNL     1      32.467   5.872   3.691  1.00  0.00    -0.338 N 
HETATM   10  C4  UNL     1      33.720   6.338   3.607  1.00  0.00     0.122 A 
ATOM     11  H4  UNL     1      31.671   6.266   3.189  1.00  0.00     0.167 HD
HETATM   12  C1  UNL     1      34.289   7.382   2.898  1.00  0.00     0.131 A 
HETATM   13  C3  UNL     1      34.472   5.528   4.434  1.00  0.00     0.141 A 
HETATM   14  N1  UNL     1      33.535   8.092   2.151  1.00  0.00    -0.383 N 
HETATM   15  N2  UNL     1      35.599   7.583   3.039  1.00  0.00    -0.337 N 
ATOM     16  H12 UNL     1      33.955   8.860   1.629  1.00  0.00     0.157 HD
ATOM     17  H11 UNL     1      32.533   7.938   2.042  1.00  0.00     0.157 HD
HETATM   18  C2  UNL     1      36.336   6.790   3.849  1.00  0.00     0.183 A 
ATOM     19  H2  UNL     1      36.051   8.343   2.530  1.00  0.00     0.168 HD
HETATM   20  N3  UNL     1      35.811   5.768   4.550  1.00  0.00    -0.336 N 
ATOM     21  H3  UNL     1      36.397   5.189   5.151  1.00  0.00     0.168 HD
HETATM   22  N9  UNL     1      33.641   4.617   4.973  1.00  0.00    -0.308 N 
BRANCH  22  23
HETATM   23  C21 UNL     1      34.092   3.578   5.907  1.00  0.00     0.161 A 
HETATM   24  C22 UNL     1      33.080   3.388   7.016  1.00  0.00     0.216 A 
HETATM   25  C23 UNL     1      32.619   1.990   6.933  1.00  0.00     0.188 A 
HETATM   26  O12 UNL     1      31.812   1.491   7.670  1.00  0.00    -0.292 OA
HETATM   27  C24 UNL     1      33.289   1.287   5.816  1.00  0.00     0.221 A 
HETATM   28  C25 UNL     1      34.267   2.261   5.221  1.00  0.00     0.180 A 
BRANCH  24  29
HETATM   29  O11 UNL     1      33.577   3.680   8.269  1.00  0.00    -0.386 OA
ATOM     30  H11 UNL     1      33.329   3.046   8.932  1.00  0.00     0.210 HD
ENDBRANCH  24  29
BRANCH  27  31
HETATM   31  O13 UNL     1      33.936   0.133   6.317  1.00  0.00    -0.385 OA
ATOM     32  H13 UNL     1      34.564  -0.176   5.674  1.00  0.00     0.210 HD
ENDBRANCH  27  31
BRANCH  28  33
HETATM   33  O14 UNL     1      34.104   2.332   3.833  1.00  0.00    -0.390 OA
ATOM     34  H14 UNL     1      33.651   1.581   3.468  1.00  0.00     0.210 HD
ENDBRANCH  28  33
ENDBRANCH  22  23
ENDBRANCH   7   8
ENDBRANCH   6   7
ENDBRANCH   1   6
BRANCH   5  35
HETATM   35  N8  UNL     1      30.729   2.908   0.836  1.00  0.00    -0.357 NA
ATOM     36  H82 UNL     1      31.535   3.532   0.834  1.00  0.00     0.171 HD
ATOM     37  H81 UNL     1      30.408   2.807  -0.127  1.00  0.00     0.171 HD
ENDBRANCH   5  35
BRANCH   3  38
HETATM   38  C9  UNL     1      26.839   3.614   3.097  1.00  0.00     0.182 C 
BRANCH  38  39
HETATM   39  O3  UNL     1      27.466   4.449   4.064  1.00  0.00    -0.390 OA
ATOM     40  H3  UNL     1      28.274   4.799   3.706  1.00  0.00     0.210 HD
ENDBRANCH  38  39
BRANCH  38  41
HETATM   41  C10 UNL     1      25.647   3.028   3.834  1.00  0.00     0.184 C 
HETATM   42  O4  UNL     1      24.834   4.123   4.137  1.00  0.00    -0.370 OA
HETATM   43  C11 UNL     1      23.695   3.780   4.822  1.00  0.00     0.177 C 
HETATM   44  C13 UNL     1      22.864   2.736   4.111  1.00  0.00     0.180 C 
HETATM   45  C14 UNL     1      23.682   1.607   3.580  1.00  0.00     0.180 C 
HETATM   46  C15 UNL     1      24.865   2.208   2.828  1.00  0.00     0.181 C 
BRANCH  43  47
HETATM   47  C12 UNL     1      23.958   3.288   6.220  1.00  0.00     0.198 C 
BRANCH  47  48
HETATM   48  O5  UNL     1      24.344   4.332   7.040  1.00  0.00    -0.398 OA
ATOM     49  H5  UNL     1      25.027   4.053   7.639  1.00  0.00     0.209 HD
ENDBRANCH  47  48
ENDBRANCH  43  47
BRANCH  44  50
HETATM   50  O6  UNL     1      22.188   3.340   3.062  1.00  0.00    -0.390 OA
ATOM     51  H6  UNL     1      22.821   3.640   2.421  1.00  0.00     0.210 HD
ENDBRANCH  44  50
BRANCH  45  52
HETATM   52  O7  UNL     1      22.947   0.861   2.674  1.00  0.00    -0.390 OA
ATOM     53  H7  UNL     1      23.432   0.088   2.408  1.00  0.00     0.210 HD
ENDBRANCH  45  52
BRANCH  46  54
HETATM   54  O8  UNL     1      24.311   3.120   1.920  1.00  0.00    -0.390 OA
ATOM     55  H8  UNL     1      23.820   2.606   1.290  1.00  0.00     0.210 HD
ENDBRANCH  46  54
ENDBRANCH  38  41
ENDBRANCH   3  38
BRANCH   4  56
HETATM   56  N5  UNL     1      27.733   3.753   0.448  1.00  0.00    -0.288 N 
HETATM   57  C17 UNL     1      28.016   5.060   0.367  1.00  0.00     0.103 A 
HETATM   58  C18 UNL     1      27.322   5.906  -0.472  1.00  0.00     0.092 A 
HETATM   59  C19 UNL     1      26.308   5.357  -1.240  1.00  0.00     0.250 A 
HETATM   60  O9  UNL     1      25.614   6.041  -2.036  1.00  0.00    -0.268 OA
HETATM   61  N6  UNL     1      26.041   4.044  -1.144  1.00  0.00    -0.275 N 
HETATM   62  C20 UNL     1      26.743   3.282  -0.320  1.00  0.00     0.330 A 
ATOM     63  H6  UNL     1      25.296   3.634  -1.706  1.00  0.00     0.173 HD
HETATM   64  O10 UNL     1      26.428   2.045  -0.285  1.00  0.00    -0.246 OA
ENDBRANCH   4  56
TORSDOF 17
ENDMDL
MODEL 2
REMARK VINA RESULT: -7.185059816      3.560      7.626
REMARK  17 active torsions:
REMARK  status: ('A' for Active; 'I' for Inactive)
REMARK    1  A    between atoms: C5_14  and  C6_15 
REMARK    2  A    between atoms: C6_15  and  O1_16 
REMARK    3  A    between atoms: O1_16  and  C7_17 
REMARK    4  A    between atoms: C8_19  and  C9_20 
REMARK    5  A    between atoms: C9_20  and  O3_21 
REMARK    6  A    between atoms: C9_20  and  C10_23 
REMARK    7  A    between atoms: C11_25  and  C12_26 
REMARK    8  A    between atoms: C12_26  and  O5_27 
REMARK    9  A    between atoms: C13_29  and  O6_30 
REMARK   10  A    between atoms: C14_32  and  O7_33 
REMARK   11  A    between atoms: C15_35  and  O8_36 
REMARK   12  A    between atoms: C16_38  and  N5_39 
REMARK   13  A    between atoms: N7_48  and  N8_49 
REMARK   14  A    between atoms: N9_52  and  C21_53 
REMARK   15  A    between atoms: C22_54  and  O11_55 
REMARK   16  A    between atoms: C24_59  and  O13_60 
REMARK   17  A    between atoms: C25_62  and  O14_63 
ROOT
HETATM    1  C7  UNL     1      33.215   6.088   0.802  1.00  0.00     0.364 C 
HETATM    2  O2  UNL     1      34.057   5.376   1.645  1.00  0.00    -0.335 OA
HETATM    3  C8  UNL     1      33.298   4.488   2.389  1.00  0.00     0.197 C 
HETATM    4  C16 UNL     1      31.978   4.338   1.720  1.00  0.00     0.224 C 
HETATM    5  N7  UNL     1      31.892   5.511   0.895  1.00  0.00    -0.159 NA
ENDROOT
BRANCH   1   6
HETATM    6  O1  UNL     1      33.254   7.408   1.164  1.00  0.00    -0.340 OA
BRANCH   6   7
HETATM    7  C6  UNL     1      34.186   8.200   0.562  1.00  0.00     0.249 C 
BRANCH   7   8
HETATM    8  C5  UNL     1      34.845   9.086   1.528  1.00  0.00     0.110 A 
HETATM    9  N4  UNL     1      34.344  10.257   1.956  1.00  0.00    -0.338 N 
HETATM   10  C4  UNL     1      35.171  10.849   2.828  1.00  0.00     0.122 A 
ATOM     11  H4  UNL     1      33.450  10.646   1.655  1.00  0.00     0.167 HD
HETATM   12  C1  UNL     1      35.101  12.041   3.529  1.00  0.00     0.131 A 
HETATM   13  C3  UNL     1      36.251   9.997   2.952  1.00  0.00     0.141 A 
HETATM   14  N1  UNL     1      34.074  12.782   3.367  1.00  0.00    -0.383 N 
HETATM   15  N2  UNL     1      36.118  12.344   4.335  1.00  0.00    -0.337 N 
ATOM     16  H12 UNL     1      34.023  13.660   3.884  1.00  0.00     0.157 HD
ATOM     17  H11 UNL     1      33.296  12.550   2.750  1.00  0.00     0.157 HD
HETATM   18  C2  UNL     1      37.176  11.510   4.457  1.00  0.00     0.183 A 
ATOM     19  H2  UNL     1      36.099  13.215   4.866  1.00  0.00     0.168 HD
HETATM   20  N3  UNL     1      37.271  10.346   3.789  1.00  0.00    -0.336 N 
ATOM     21  H3  UNL     1      38.084   9.741   3.904  1.00  0.00     0.168 HD
HETATM   22  N9  UNL     1      36.024   8.939   2.152  1.00  0.00    -0.308 N 
BRANCH  22  23
HETATM   23  C21 UNL     1      36.967   7.821   2.020  1.00  0.00     0.161 A 
HETATM   24  C22 UNL     1      38.351   8.334   1.684  1.00  0.00     0.216 A 
HETATM   25  C23 UNL     1      39.237   7.908   2.783  1.00  0.00     0.188 A 
HETATM   26  O12 UNL     1      40.415   8.142   2.841  1.00  0.00    -0.292 OA
HETATM   27  C24 UNL     1      38.476   7.155   3.804  1.00  0.00     0.221 A 
HETATM   28  C25 UNL     1      37.069   7.036   3.288  1.00  0.00     0.180 A 
BRANCH  24  29
HETATM   29  O11 UNL     1      38.817   7.894   0.463  1.00  0.00    -0.386 OA
ATOM     30  H11 UNL     1      39.086   8.599  -0.116  1.00  0.00     0.210 HD
ENDBRANCH  24  29
BRANCH  27  31
HETATM   31  O13 UNL     1      39.077   5.888   3.988  1.00  0.00    -0.385 OA
ATOM     32  H13 UNL     1      38.773   5.297   3.308  1.00  0.00     0.210 HD
ENDBRANCH  27  31
BRANCH  28  33
HETATM   33  O14 UNL     1      36.154   7.440   4.267  1.00  0.00    -0.390 OA
ATOM     34  H14 UNL     1      36.106   6.846   5.007  1.00  0.00     0.210 HD
ENDBRANCH  28  33
ENDBRANCH  22  23
ENDBRANCH   7   8
ENDBRANCH   6   7
ENDBRANCH   1   6
BRANCH   5  35
HETATM   35  N8  UNL     1      31.378   5.169  -0.375  1.00  0.00    -0.357 NA
ATOM     36  H82 UNL     1      32.119   5.215  -1.073  1.00  0.00     0.171 HD
ATOM     37  H81 UNL     1      30.633   5.803  -0.666  1.00  0.00     0.171 HD
ENDBRANCH   5  35
BRANCH   3  38
HETATM   38  C9  UNL     1      33.224   5.046   3.787  1.00  0.00     0.182 C 
BRANCH  38  39
HETATM   39  O3  UNL     1      33.712   6.382   3.793  1.00  0.00    -0.390 OA
ATOM     40  H3  UNL     1      34.546   6.414   4.248  1.00  0.00     0.210 HD
ENDBRANCH  38  39
BRANCH  38  41
HETATM   41  C10 UNL     1      34.126   4.319   4.771  1.00  0.00     0.184 C 
HETATM   42  O4  UNL     1      34.320   5.221   5.819  1.00  0.00    -0.370 OA
HETATM   43  C11 UNL     1      35.130   4.732   6.814  1.00  0.00     0.177 C 
HETATM   44  C13 UNL     1      34.647   3.418   7.382  1.00  0.00     0.180 C 
HETATM   45  C14 UNL     1      34.234   2.446   6.328  1.00  0.00     0.180 C 
HETATM   46  C15 UNL     1      33.315   3.182   5.358  1.00  0.00     0.181 C 
BRANCH  43  47
HETATM   47  C12 UNL     1      36.563   4.553   6.388  1.00  0.00     0.198 C 
BRANCH  47  48
HETATM   48  O5  UNL     1      37.281   5.717   6.594  1.00  0.00    -0.398 OA
ATOM     49  H5  UNL     1      36.892   6.440   6.117  1.00  0.00     0.209 HD
ENDBRANCH  47  48
ENDBRANCH  43  47
BRANCH  44  50
HETATM   50  O6  UNL     1      33.572   3.661   8.223  1.00  0.00    -0.390 OA
ATOM     51  H6  UNL     1      32.777   3.692   7.703  1.00  0.00     0.210 HD
ENDBRANCH  44  50
BRANCH  45  52
HETATM   52  O7  UNL     1      33.506   1.408   6.885  1.00  0.00    -0.390 OA
ATOM     53  H7  UNL     1      33.876   1.155   7.723  1.00  0.00     0.210 HD
ENDBRANCH  45  52
BRANCH  46  54
HETATM   54  O8  UNL     1      32.324   3.773   6.152  1.00  0.00    -0.390 OA
ATOM     55  H8  UNL     1      31.946   4.473   5.632  1.00  0.00     0.210 HD
ENDBRANCH  46  54
ENDBRANCH  38  41
ENDBRANCH   3  38
BRANCH   4  56
HETATM   56  N5  UNL     1      30.841   4.226   2.569  1.00  0.00    -0.288 N 
HETATM   57  C17 UNL     1      30.122   5.291   2.947  1.00  0.00     0.103 A 
HETATM   58  C18 UNL     1      29.020   5.173   3.768  1.00  0.00     0.092 A 
HETATM   59  C19 UNL     1      28.674   3.902   4.197  1.00  0.00     0.250 A 
HETATM   60  O9  UNL     1      27.688   3.685   4.948  1.00  0.00    -0.268 OA
HETATM   61  N6  UNL     1      29.408   2.848   3.805  1.00  0.00    -0.275 N 
HETATM   62  C20 UNL     1      30.456   3.023   3.015  1.00  0.00     0.330 A 
ATOM     63  H6  UNL     1      29.158   1.909   4.117  1.00  0.00     0.173 HD
HETATM   64  O10 UNL     1      31.102   1.973   2.688  1.00  0.00    -0.246 OA
ENDBRANCH   4  56
TORSDOF 17
ENDMDL
MODEL 3
REMARK VINA RESULT: -7.154318297      4.030      8.210
REMARK  17 active torsions:
REMARK  status: ('A' for Active; 'I' for Inactive)
REMARK    1  A    between atoms: C5_14  and  C6_15 
REMARK    2  A    between atoms: C6_15  and  O1_16 
REMARK    3  A    between atoms: O1_16  and  C7_17 
REMARK    4  A    between atoms: C8_19  and  C9_20 
REMARK    5  A    between atoms: C9_20  and  O3_21 
REMARK    6  A    between atoms: C9_20  and  C10_23 
REMARK    7  A    between atoms: C11_25  and  C12_26 
REMARK    8  A    between atoms: C12_26  and  O5_27 
REMARK    9  A    between atoms: C13_29  and  O6_30 
REMARK   10  A    between atoms: C14_32  and  O7_33 
REMARK   11  A    between atoms: C15_35  and  O8_36 
REMARK   12  A    between atoms: C16_38  and  N5_39 
REMARK   13  A    between atoms: N7_48  and  N8_49 
REMARK   14  A    between atoms: N9_52  and  C21_53 
REMARK   15  A    between atoms: C22_54  and  O11_55 
REMARK   16  A    between atoms: C24_59  and  O13_60 
REMARK   17  A    between atoms: C25_62  and  O14_63 
ROOT
HETATM    1  C7  UNL     1      32.953   5.768   0.980  1.00  0.00     0.364 C 
HETATM    2  O2  UNL     1      33.720   5.222   2.000  1.00  0.00    -0.335 OA
HETATM    3  C8  UNL     1      32.902   4.449   2.809  1.00  0.00     0.197 C 
HETATM    4  C16 UNL     1      31.651   4.163   2.059  1.00  0.00     0.224 C 
HETATM    5  N7  UNL     1      31.632   5.184   1.048  1.00  0.00    -0.159 NA
ENDROOT
BRANCH   1   6
HETATM    6  O1  UNL     1      32.948   7.129   1.123  1.00  0.00    -0.340 OA
BRANCH   6   7
HETATM    7  C6  UNL     1      33.978   7.826   0.564  1.00  0.00     0.249 C 
BRANCH   7   8
HETATM    8  C5  UNL     1      34.876   8.374   1.588  1.00  0.00     0.110 A 
HETATM    9  N4  UNL     1      35.569   7.636   2.470  1.00  0.00    -0.338 N 
HETATM   10  C4  UNL     1      36.296   8.411   3.286  1.00  0.00     0.122 A 
ATOM     11  H4  UNL     1      35.545   6.617   2.513  1.00  0.00     0.167 HD
HETATM   12  C1  UNL     1      37.154   8.126   4.336  1.00  0.00     0.131 A 
HETATM   13  C3  UNL     1      36.042   9.708   2.889  1.00  0.00     0.141 A 
HETATM   14  N1  UNL     1      37.344   6.903   4.651  1.00  0.00    -0.383 N 
HETATM   15  N2  UNL     1      37.732   9.153   4.957  1.00  0.00    -0.337 N 
ATOM     16  H12 UNL     1      37.975   6.694   5.423  1.00  0.00     0.157 HD
ATOM     17  H11 UNL     1      36.901   6.117   4.176  1.00  0.00     0.157 HD
HETATM   18  C2  UNL     1      37.483  10.424   4.568  1.00  0.00     0.183 A 
ATOM     19  H2  UNL     1      38.368   8.979   5.735  1.00  0.00     0.168 HD
HETATM   20  N3  UNL     1      36.655  10.731   3.554  1.00  0.00    -0.336 N 
ATOM     21  H3  UNL     1      36.489  11.702   3.288  1.00  0.00     0.168 HD
HETATM   22  N9  UNL     1      35.177   9.653   1.859  1.00  0.00    -0.308 N 
BRANCH  22  23
HETATM   23  C21 UNL     1      34.672  10.850   1.177  1.00  0.00     0.161 A 
HETATM   24  C22 UNL     1      34.521  11.994   2.157  1.00  0.00     0.216 A 
HETATM   25  C23 UNL     1      35.408  13.074   1.686  1.00  0.00     0.188 A 
HETATM   26  O12 UNL     1      35.535  14.139   2.228  1.00  0.00    -0.292 OA
HETATM   27  C24 UNL     1      36.119  12.664   0.455  1.00  0.00     0.221 A 
HETATM   28  C25 UNL     1      35.601  11.300   0.095  1.00  0.00     0.180 A 
BRANCH  24  29
HETATM   29  O11 UNL     1      33.221  12.433   2.291  1.00  0.00    -0.386 OA
ATOM     30  H11 UNL     1      33.145  13.250   2.771  1.00  0.00     0.210 HD
ENDBRANCH  24  29
BRANCH  27  31
HETATM   31  O13 UNL     1      35.863  13.610  -0.565  1.00  0.00    -0.385 OA
ATOM     32  H13 UNL     1      35.782  13.157  -1.396  1.00  0.00     0.210 HD
ENDBRANCH  27  31
BRANCH  28  33
HETATM   33  O14 UNL     1      36.664  10.416  -0.127  1.00  0.00    -0.390 OA
ATOM     34  H14 UNL     1      37.402  10.818  -0.570  1.00  0.00     0.210 HD
ENDBRANCH  28  33
ENDBRANCH  22  23
ENDBRANCH   7   8
ENDBRANCH   6   7
ENDBRANCH   1   6
BRANCH   5  35
HETATM   35  N8  UNL     1      31.239   4.629  -0.189  1.00  0.00    -0.357 NA
ATOM     36  H82 UNL     1      31.779   3.785  -0.378  1.00  0.00     0.171 HD
ATOM     37  H81 UNL     1      31.390   5.278  -0.961  1.00  0.00     0.171 HD
ENDBRANCH   5  35
BRANCH   3  38
HETATM   38  C9  UNL     1      32.697   5.225   4.084  1.00  0.00     0.182 C 
BRANCH  38  39
HETATM   39  O3  UNL     1      33.550   6.363   4.093  1.00  0.00    -0.390 OA
ATOM     40  H3  UNL     1      34.271   6.216   4.693  1.00  0.00     0.210 HD
ENDBRANCH  38  39
BRANCH  38  41
HETATM   41  C10 UNL     1      33.102   4.452   5.329  1.00  0.00     0.184 C 
HETATM   42  O4  UNL     1      33.300   3.140   4.891  1.00  0.00    -0.370 OA
HETATM   43  C11 UNL     1      33.669   2.282   5.898  1.00  0.00     0.177 C 
HETATM   44  C13 UNL     1      34.899   2.738   6.647  1.00  0.00     0.180 C 
HETATM   45  C14 UNL     1      34.863   4.189   6.995  1.00  0.00     0.180 C 
HETATM   46  C15 UNL     1      34.472   4.955   5.735  1.00  0.00     0.181 C 
BRANCH  43  47
HETATM   47  C12 UNL     1      32.579   2.033   6.906  1.00  0.00     0.198 C 
BRANCH  47  48
HETATM   48  O5  UNL     1      31.482   1.447   6.302  1.00  0.00    -0.398 OA
ATOM     49  H5  UNL     1      30.737   1.441   6.893  1.00  0.00     0.209 HD
ENDBRANCH  47  48
ENDBRANCH  43  47
BRANCH  44  50
HETATM   50  O6  UNL     1      36.018   2.487   5.868  1.00  0.00    -0.390 OA
ATOM     51  H6  UNL     1      36.709   3.087   6.121  1.00  0.00     0.210 HD
ENDBRANCH  44  50
BRANCH  45  52
HETATM   52  O7  UNL     1      36.119   4.628   7.377  1.00  0.00    -0.390 OA
ATOM     53  H7  UNL     1      36.793   4.175   6.885  1.00  0.00     0.210 HD
ENDBRANCH  45  52
BRANCH  46  54
HETATM   54  O8  UNL     1      35.362   4.526   4.742  1.00  0.00    -0.390 OA
ATOM     55  H8  UNL     1      36.235   4.642   5.096  1.00  0.00     0.210 HD
ENDBRANCH  46  54
ENDBRANCH  38  41
ENDBRANCH   3  38
BRANCH   4  56
HETATM   56  N5  UNL     1      30.442   4.163   2.810  1.00  0.00    -0.288 N 
HETATM   57  C17 UNL     1      29.672   5.253   2.925  1.00  0.00     0.103 A 
HETATM   58  C18 UNL     1      28.500   5.246   3.652  1.00  0.00     0.092 A 
HETATM   59  C19 UNL     1      28.138   4.059   4.271  1.00  0.00     0.250 A 
HETATM   60  O9  UNL     1      27.091   3.946   4.959  1.00  0.00    -0.268 OA
HETATM   61  N6  UNL     1      28.925   2.979   4.142  1.00  0.00    -0.275 N 
HETATM   62  C20 UNL     1      30.039   3.047   3.430  1.00  0.00     0.330 A 
ATOM     63  H6  UNL     1      28.665   2.103   4.595  1.00  0.00     0.173 HD
HETATM   64  O10 UNL     1      30.732   1.978   3.356  1.00  0.00    -0.246 OA
ENDBRANCH   4  56
TORSDOF 17
ENDMDL
MODEL 4
REMARK VINA RESULT: -7.130604837      6.259     10.651
REMARK  17 active torsions:
REMARK  status: ('A' for Active; 'I' for Inactive)
REMARK    1  A    between atoms: C5_14  and  C6_15 
REMARK    2  A    between atoms: C6_15  and  O1_16 
REMARK    3  A    between atoms: O1_16  and  C7_17 
REMARK    4  A    between atoms: C8_19  and  C9_20 
REMARK    5  A    between atoms: C9_20  and  O3_21 
REMARK    6  A    between atoms: C9_20  and  C10_23 
REMARK    7  A    between atoms: C11_25  and  C12_26 
REMARK    8  A    between atoms: C12_26  and  O5_27 
REMARK    9  A    between atoms: C13_29  and  O6_30 
REMARK   10  A    between atoms: C14_32  and  O7_33 
REMARK   11  A    between atoms: C15_35  and  O8_36 
REMARK   12  A    between atoms: C16_38  and  N5_39 
REMARK   13  A    between atoms: N7_48  and  N8_49 
REMARK   14  A    between atoms: N9_52  and  C21_53 
REMARK   15  A    between atoms: C22_54  and  O11_55 
REMARK   16  A    between atoms: C24_59  and  O13_60 
REMARK   17  A    between atoms: C25_62  and  O14_63 
ROOT
HETATM    1  C7  UNL     1      35.122   5.840   2.708  1.00  0.00     0.364 C 
HETATM    2  O2  UNL     1      36.339   5.593   3.328  1.00  0.00    -0.335 OA
HETATM    3  C8  UNL     1      36.189   4.524   4.198  1.00  0.00     0.197 C 
HETATM    4  C16 UNL     1      34.942   3.803   3.829  1.00  0.00     0.224 C 
HETATM    5  N7  UNL     1      34.208   4.780   3.073  1.00  0.00    -0.159 NA
ENDROOT
BRANCH   1   6
HETATM    6  O1  UNL     1      34.686   7.081   3.087  1.00  0.00    -0.340 OA
BRANCH   6   7
HETATM    7  C6  UNL     1      35.049   8.141   2.310  1.00  0.00     0.249 C 
BRANCH   7   8
HETATM    8  C5  UNL     1      35.935   9.061   3.034  1.00  0.00     0.110 A 
HETATM    9  N4  UNL     1      36.883   8.681   3.905  1.00  0.00    -0.338 N 
HETATM   10  C4  UNL     1      37.527   9.740   4.414  1.00  0.00     0.122 A 
ATOM     11  H4  UNL     1      37.088   7.711   4.148  1.00  0.00     0.167 HD
HETATM   12  C1  UNL     1      38.558   9.861   5.331  1.00  0.00     0.131 A 
HETATM   13  C3  UNL     1      36.946  10.845   3.826  1.00  0.00     0.141 A 
HETATM   14  N1  UNL     1      39.050   8.797   5.837  1.00  0.00    -0.383 N 
HETATM   15  N2  UNL     1      38.977  11.091   5.630  1.00  0.00    -0.337 N 
ATOM     16  H12 UNL     1      39.809   8.887   6.512  1.00  0.00     0.157 HD
ATOM     17  H11 UNL     1      38.729   7.856   5.609  1.00  0.00     0.157 HD
HETATM   18  C2  UNL     1      38.408  12.174   5.053  1.00  0.00     0.183 A 
ATOM     19  H2  UNL     1      39.734  11.216   6.301  1.00  0.00     0.168 HD
HETATM   20  N3  UNL     1      37.405  12.086   4.161  1.00  0.00    -0.336 N 
ATOM     21  H3  UNL     1      36.998  12.924   3.746  1.00  0.00     0.168 HD
HETATM   22  N9  UNL     1      35.984  10.401   2.995  1.00  0.00    -0.308 N 
BRANCH  22  23
HETATM   23  C21 UNL     1      35.144  11.300   2.195  1.00  0.00     0.161 A 
HETATM   24  C22 UNL     1      35.061  12.665   2.845  1.00  0.00     0.216 A 
HETATM   25  C23 UNL     1      35.622  13.627   1.879  1.00  0.00     0.188 A 
HETATM   26  O12 UNL     1      35.709  14.811   2.066  1.00  0.00    -0.292 OA
HETATM   27  C24 UNL     1      36.064  12.934   0.649  1.00  0.00     0.221 A 
HETATM   28  C25 UNL     1      35.695  11.486   0.817  1.00  0.00     0.180 A 
BRANCH  24  29
HETATM   29  O11 UNL     1      33.781  13.017   3.219  1.00  0.00    -0.386 OA
ATOM     30  H11 UNL     1      33.309  13.496   2.548  1.00  0.00     0.210 HD
ENDBRANCH  24  29
BRANCH  27  31
HETATM   31  O13 UNL     1      35.418  13.515  -0.468  1.00  0.00    -0.385 OA
ATOM     32  H13 UNL     1      35.925  13.331  -1.250  1.00  0.00     0.210 HD
ENDBRANCH  27  31
BRANCH  28  33
HETATM   33  O14 UNL     1      36.796  10.667   0.544  1.00  0.00    -0.390 OA
ATOM     34  H14 UNL     1      36.782   9.845   1.020  1.00  0.00     0.210 HD
ENDBRANCH  28  33
ENDBRANCH  22  23
ENDBRANCH   7   8
ENDBRANCH   6   7
ENDBRANCH   1   6
BRANCH   5  35
HETATM   35  N8  UNL     1      33.629   4.173   1.938  1.00  0.00    -0.357 NA
ATOM     36  H82 UNL     1      32.859   4.746   1.592  1.00  0.00     0.171 HD
ATOM     37  H81 UNL     1      33.258   3.246   2.150  1.00  0.00     0.171 HD
ENDBRANCH   5  35
BRANCH   3  38
HETATM   38  C9  UNL     1      36.185   5.096   5.592  1.00  0.00     0.182 C 
BRANCH  38  39
HETATM   39  O3  UNL     1      36.686   6.427   5.562  1.00  0.00    -0.390 OA
ATOM     40  H3  UNL     1      37.594   6.432   5.841  1.00  0.00     0.210 HD
ENDBRANCH  38  39
BRANCH  38  41
HETATM   41  C10 UNL     1      37.125   4.370   6.540  1.00  0.00     0.184 C 
HETATM   42  O4  UNL     1      38.192   5.249   6.736  1.00  0.00    -0.370 OA
HETATM   43  C11 UNL     1      39.159   4.750   7.573  1.00  0.00     0.177 C 
HETATM   44  C13 UNL     1      38.620   4.327   8.920  1.00  0.00     0.180 C 
HETATM   45  C14 UNL     1      37.360   3.534   8.819  1.00  0.00     0.180 C 
HETATM   46  C15 UNL     1      36.420   4.282   7.879  1.00  0.00     0.181 C 
BRANCH  43  47
HETATM   47  C12 UNL     1      39.916   3.586   6.992  1.00  0.00     0.198 C 
BRANCH  47  48
HETATM   48  O5  UNL     1      40.773   3.043   7.931  1.00  0.00    -0.398 OA
ATOM     49  H5  UNL     1      40.649   2.103   7.994  1.00  0.00     0.209 HD
ENDBRANCH  47  48
ENDBRANCH  43  47
BRANCH  44  50
HETATM   50  O6  UNL     1      38.383   5.459   9.684  1.00  0.00    -0.390 OA
ATOM     51  H6  UNL     1      37.465   5.479   9.927  1.00  0.00     0.210 HD
ENDBRANCH  44  50
BRANCH  45  52
HETATM   52  O7  UNL     1      36.738   3.452  10.053  1.00  0.00    -0.390 OA
ATOM     53  H7  UNL     1      36.668   2.546  10.331  1.00  0.00     0.210 HD
ENDBRANCH  45  52
BRANCH  46  54
HETATM   54  O8  UNL     1      36.351   5.589   8.376  1.00  0.00    -0.390 OA
ATOM     55  H8  UNL     1      35.559   5.972   8.015  1.00  0.00     0.210 HD
ENDBRANCH  46  54
ENDBRANCH  38  41
ENDBRANCH   3  38
BRANCH   4  56
HETATM   56  N5  UNL     1      34.158   3.293   4.902  1.00  0.00    -0.288 N 
HETATM   57  C17 UNL     1      33.209   4.021   5.505  1.00  0.00     0.103 A 
HETATM   58  C18 UNL     1      32.453   3.519   6.542  1.00  0.00     0.092 A 
HETATM   59  C19 UNL     1      32.707   2.219   6.950  1.00  0.00     0.250 A 
HETATM   60  O9  UNL     1      32.076   1.666   7.887  1.00  0.00    -0.268 OA
HETATM   61  N6  UNL     1      33.664   1.506   6.331  1.00  0.00    -0.275 N 
HETATM   62  C20 UNL     1      34.357   2.043   5.340  1.00  0.00     0.330 A 
ATOM     63  H6  UNL     1      33.856   0.549   6.627  1.00  0.00     0.173 HD
HETATM   64  O10 UNL     1      35.248   1.303   4.804  1.00  0.00    -0.246 OA
ENDBRANCH   4  56
TORSDOF 17
ENDMDL
MODEL 5
REMARK VINA RESULT: -7.115495686      5.276     10.526
REMARK  17 active torsions:
REMARK  status: ('A' for Active; 'I' for Inactive)
REMARK    1  A    between atoms: C5_14  and  C6_15 
REMARK    2  A    between atoms: C6_15  and  O1_16 
REMARK    3  A    between atoms: O1_16  and  C7_17 
REMARK    4  A    between atoms: C8_19  and  C9_20 
REMARK    5  A    between atoms: C9_20  and  O3_21 
REMARK    6  A    between atoms: C9_20  and  C10_23 
REMARK    7  A    between atoms: C11_25  and  C12_26 
REMARK    8  A    between atoms: C12_26  and  O5_27 
REMARK    9  A    between atoms: C13_29  and  O6_30 
REMARK   10  A    between atoms: C14_32  and  O7_33 
REMARK   11  A    between atoms: C15_35  and  O8_36 
REMARK   12  A    between atoms: C16_38  and  N5_39 
REMARK   13  A    between atoms: N7_48  and  N8_49 
REMARK   14  A    between atoms: N9_52  and  C21_53 
REMARK   15  A    between atoms: C22_54  and  O11_55 
REMARK   16  A    between atoms: C24_59  and  O13_60 
REMARK   17  A    between atoms: C25_62  and  O14_63 
ROOT
HETATM    1  C7  UNL     1      37.962   7.065   4.448  1.00  0.00     0.364 C 
HETATM    2  O2  UNL     1      37.416   7.289   3.193  1.00  0.00    -0.335 OA
HETATM    3  C8  UNL     1      37.635   8.611   2.839  1.00  0.00     0.197 C 
HETATM    4  C16 UNL     1      38.707   9.150   3.717  1.00  0.00     0.224 C 
HETATM    5  N7  UNL     1      38.704   8.245   4.834  1.00  0.00    -0.159 NA
ENDROOT
BRANCH   1   6
HETATM    6  O1  UNL     1      36.948   6.759   5.315  1.00  0.00    -0.340 OA
BRANCH   6   7
HETATM    7  C6  UNL     1      36.554   5.457   5.392  1.00  0.00     0.249 C 
BRANCH   7   8
HETATM    8  C5  UNL     1      35.164   5.286   4.951  1.00  0.00     0.110 A 
HETATM    9  N4  UNL     1      34.517   6.124   4.125  1.00  0.00    -0.338 N 
HETATM   10  C4  UNL     1      33.259   5.717   3.909  1.00  0.00     0.122 A 
ATOM     11  H4  UNL     1      34.929   6.961   3.714  1.00  0.00     0.167 HD
HETATM   12  C1  UNL     1      32.221   6.232   3.151  1.00  0.00     0.131 A 
HETATM   13  C3  UNL     1      33.113   4.557   4.644  1.00  0.00     0.141 A 
HETATM   14  N1  UNL     1      32.424   7.309   2.496  1.00  0.00    -0.383 N 
HETATM   15  N2  UNL     1      31.066   5.568   3.153  1.00  0.00    -0.337 N 
ATOM     16  H12 UNL     1      31.659   7.689   1.937  1.00  0.00     0.157 HD
ATOM     17  H11 UNL     1      33.308   7.818   2.495  1.00  0.00     0.157 HD
HETATM   18  C2  UNL     1      30.923   4.432   3.872  1.00  0.00     0.183 A 
ATOM     19  H2  UNL     1      30.280   5.921   2.605  1.00  0.00     0.168 HD
HETATM   20  N3  UNL     1      31.913   3.908   4.618  1.00  0.00    -0.336 N 
ATOM     21  H3  UNL     1      31.770   3.050   5.150  1.00  0.00     0.168 HD
HETATM   22  N9  UNL     1      34.285   4.323   5.265  1.00  0.00    -0.308 N 
BRANCH  22  23
HETATM   23  C21 UNL     1      34.504   3.169   6.145  1.00  0.00     0.161 A 
HETATM   24  C22 UNL     1      33.435   3.110   7.215  1.00  0.00     0.216 A 
HETATM   25  C23 UNL     1      32.729   1.827   7.036  1.00  0.00     0.188 A 
HETATM   26  O12 UNL     1      31.818   1.447   7.720  1.00  0.00    -0.292 OA
HETATM   27  C24 UNL     1      33.299   1.074   5.896  1.00  0.00     0.221 A 
HETATM   28  C25 UNL     1      34.459   1.882   5.386  1.00  0.00     0.180 A 
BRANCH  24  29
HETATM   29  O11 UNL     1      33.932   3.235   8.496  1.00  0.00    -0.386 OA
ATOM     30  H11 UNL     1      33.263   3.422   9.145  1.00  0.00     0.210 HD
ENDBRANCH  24  29
BRANCH  27  31
HETATM   31  O13 UNL     1      33.704  -0.205   6.342  1.00  0.00    -0.385 OA
ATOM     32  H13 UNL     1      33.563  -0.837   5.647  1.00  0.00     0.210 HD
ENDBRANCH  27  31
BRANCH  28  33
HETATM   33  O14 UNL     1      34.362   2.057   4.001  1.00  0.00    -0.390 OA
ATOM     34  H14 UNL     1      34.893   1.445   3.505  1.00  0.00     0.210 HD
ENDBRANCH  28  33
ENDBRANCH  22  23
ENDBRANCH   7   8
ENDBRANCH   6   7
ENDBRANCH   1   6
BRANCH   5  35
HETATM   35  N8  UNL     1      40.030   7.935   5.204  1.00  0.00    -0.357 NA
ATOM     36  H82 UNL     1      40.041   7.496   6.124  1.00  0.00     0.171 HD
ATOM     37  H81 UNL     1      40.617   8.768   5.247  1.00  0.00     0.171 HD
ENDBRANCH   5  35
BRANCH   3  38
HETATM   38  C9  UNL     1      36.312   9.319   2.969  1.00  0.00     0.182 C 
BRANCH  38  39
HETATM   39  O3  UNL     1      35.255   8.413   2.677  1.00  0.00    -0.390 OA
ATOM     40  H3  UNL     1      34.785   8.710   1.907  1.00  0.00     0.210 HD
ENDBRANCH  38  39
BRANCH  38  41
HETATM   41  C10 UNL     1      36.129  10.438   1.956  1.00  0.00     0.184 C 
HETATM   42  O4  UNL     1      35.183   9.954   1.049  1.00  0.00    -0.370 OA
HETATM   43  C11 UNL     1      34.893  10.841   0.042  1.00  0.00     0.177 C 
HETATM   44  C13 UNL     1      34.439  12.190   0.549  1.00  0.00     0.180 C 
HETATM   45  C14 UNL     1      35.288  12.708   1.662  1.00  0.00     0.180 C 
HETATM   46  C15 UNL     1      35.449  11.583   2.679  1.00  0.00     0.181 C 
BRANCH  43  47
HETATM   47  C12 UNL     1      36.039  11.065  -0.909  1.00  0.00     0.198 C 
BRANCH  47  48
HETATM   48  O5  UNL     1      35.734  12.068  -1.811  1.00  0.00    -0.398 OA
ATOM     49  H5  UNL     1      34.819  12.025  -2.064  1.00  0.00     0.209 HD
ENDBRANCH  47  48
ENDBRANCH  43  47
BRANCH  44  50
HETATM   50  O6  UNL     1      33.128  12.086   0.988  1.00  0.00    -0.390 OA
ATOM     51  H6  UNL     1      32.704  12.930   0.890  1.00  0.00     0.210 HD
ENDBRANCH  44  50
BRANCH  45  52
HETATM   52  O7  UNL     1      34.658  13.761   2.302  1.00  0.00    -0.390 OA
ATOM     53  H7  UNL     1      35.007  13.875   3.178  1.00  0.00     0.210 HD
ENDBRANCH  45  52
BRANCH  46  54
HETATM   54  O8  UNL     1      34.150  11.149   2.972  1.00  0.00    -0.390 OA
ATOM     55  H8  UNL     1      33.778  11.796   3.561  1.00  0.00     0.210 HD
ENDBRANCH  46  54
ENDBRANCH  38  41
ENDBRANCH   3  38
BRANCH   4  56
HETATM   56  N5  UNL     1      38.559  10.498   4.151  1.00  0.00    -0.288 N 
HETATM   57  C17 UNL     1      37.843  10.826   5.235  1.00  0.00     0.103 A 
HETATM   58  C18 UNL     1      37.706  12.134   5.650  1.00  0.00     0.092 A 
HETATM   59  C19 UNL     1      38.340  13.113   4.901  1.00  0.00     0.250 A 
HETATM   60  O9  UNL     1      38.278  14.336   5.193  1.00  0.00    -0.268 OA
HETATM   61  N6  UNL     1      39.053  12.761   3.819  1.00  0.00    -0.275 N 
HETATM   62  C20 UNL     1      39.148  11.488   3.470  1.00  0.00     0.330 A 
ATOM     63  H6  UNL     1      39.522  13.477   3.264  1.00  0.00     0.173 HD
HETATM   64  O10 UNL     1      39.842  11.235   2.429  1.00  0.00    -0.246 OA
ENDBRANCH   4  56
TORSDOF 17
ENDMDL
