MODEL 1
REMARK VINA RESULT: -6.844056762      0.000      0.000
REMARK  18 active torsions:
REMARK  status: ('A' for Active; 'I' for Inactive)
REMARK    1  A    between atoms: C2_5  and  C3_6 
REMARK       I    between atoms: C3_6  and  N3_8 
REMARK    2  A    between atoms: N3_8  and  N4_10 
REMARK    3  A    between atoms: C4_15  and  N6_16 
REMARK       I    between atoms: N6_16  and  C5_18 
REMARK    4  A    between atoms: C5_18  and  C6_20 
REMARK    5  A    between atoms: C6_20  and  O3_21 
REMARK    6  A    between atoms: C10_29  and  C11_30 
REMARK       I    between atoms: C11_30  and  N9_32 
REMARK    7  A    between atoms: N9_32  and  C12_34 
REMARK    8  A    between atoms: C12_34  and  C13_35 
REMARK    9  A    between atoms: C13_35  and  O5_36 
REMARK   10  A    between atoms: C14_38  and  O6_39 
REMARK   11  A    between atoms: C17_45  and  C18_46 
REMARK   12  A    between atoms: C18_46  and  O9_47 
REMARK   13  A    between atoms: C18_46  and  O10_49 
REMARK   14  A    between atoms: O10_49  and  C19_50 
REMARK   15  A    between atoms: C21_53  and  O12_54 
REMARK   16  A    between atoms: C22_56  and  O13_57 
REMARK   17  A    between atoms: C23_59  and  O14_60 
REMARK   18  A    between atoms: C24_62  and  O15_63 
ROOT
HETATM    1  C6  UNL     1      28.998   3.341   2.939  1.00  0.00     0.198 C 
HETATM    2  C7  UNL     1      30.131   2.510   3.400  1.00  0.00     0.055 A 
HETATM    3  C8  UNL     1      30.715   1.391   2.849  1.00  0.00     0.122 A 
HETATM    4  N7  UNL     1      31.771   0.829   3.435  1.00  0.00    -0.338 N 
ATOM      5  H7  UNL     1      32.193   0.000   3.015  1.00  0.00     0.167 HD
HETATM    6  C9  UNL     1      32.291   1.328   4.565  1.00  0.00     0.135 A 
HETATM    7  N8  UNL     1      33.432   0.691   5.161  1.00  0.00    -0.082 NA
HETATM    8  C10 UNL     1      31.724   2.464   5.157  1.00  0.00     0.106 A 
HETATM    9  C14 UNL     1      30.604   3.095   4.572  1.00  0.00     0.097 A 
HETATM   10  C15 UNL     1      30.447   0.549   1.682  1.00  0.00     0.310 C 
HETATM   11  O7  UNL     1      31.476  -0.076   1.342  1.00  0.00    -0.258 OA
HETATM   12  O8  UNL     1      29.293   0.353   0.944  1.00  0.00    -0.316 OA
HETATM   13  C16 UNL     1      27.925   0.327   1.279  1.00  0.00     0.191 C 
HETATM   14  C17 UNL     1      27.410   1.645   1.824  1.00  0.00     0.098 C 
HETATM   15  C24 UNL     1      28.303   2.782   1.720  1.00  0.00     0.178 C 
ENDROOT
BRANCH   1  16
HETATM   16  C5  UNL     1      29.657   4.590   2.366  1.00  0.00     0.278 C 
HETATM   17  N6  UNL     1      30.527   4.573   1.269  1.00  0.00    -0.155 N 
ATOM     18  H6  UNL     1      30.351   3.909   0.516  1.00  0.00     0.187 HD
HETATM   19  O2  UNL     1      29.328   5.654   3.002  1.00  0.00    -0.269 OA
BRANCH  17  20
HETATM   20  C4  UNL     1      31.528   5.353   1.174  1.00  0.00     0.703 A 
HETATM   21  N1  UNL     1      32.264   5.621   0.064  1.00  0.00    -0.126 N 
HETATM   22  C1  UNL     1      32.046   5.054  -1.252  1.00  0.00     0.197 C 
HETATM   23  N2  UNL     1      33.224   6.482   0.349  1.00  0.00    -0.264 N 
HETATM   24  C2  UNL     1      33.150   6.802   1.637  1.00  0.00     0.206 A 
ATOM     25  H2  UNL     1      33.912   6.844  -0.312  1.00  0.00     0.189 HD
HETATM   26  N5  UNL     1      32.096   6.095   2.138  1.00  0.00    -0.168 N 
ATOM     27  H5  UNL     1      31.784   6.127   3.109  1.00  0.00     0.186 HD
BRANCH  24  28
HETATM   28  C3  UNL     1      34.020   7.723   2.359  1.00  0.00     0.305 C 
HETATM   29  O1  UNL     1      34.556   7.413   3.457  1.00  0.00    -0.263 OA
HETATM   30  N3  UNL     1      34.301   9.016   1.850  1.00  0.00    -0.270 N 
ATOM     31  H3  UNL     1      33.877   9.286   0.963  1.00  0.00     0.189 HD
BRANCH  30  32
HETATM   32  N4  UNL     1      35.119   9.933   2.492  1.00  0.00    -0.342 N 
ATOM     33  H42 UNL     1      35.118   9.923   3.512  1.00  0.00     0.176 HD
ATOM     34  H41 UNL     1      35.709  10.604   2.000  1.00  0.00     0.176 HD
ENDBRANCH  30  32
ENDBRANCH  24  28
ENDBRANCH  17  20
ENDBRANCH   1  16
BRANCH   1  35
HETATM   35  O3  UNL     1      28.126   3.768   3.884  1.00  0.00    -0.373 OA
ATOM     36  H3  UNL     1      28.622   3.852   4.690  1.00  0.00     0.211 HD
ENDBRANCH   1  35
BRANCH  15  37
HETATM   37  O15 UNL     1      27.600   3.931   1.224  1.00  0.00    -0.391 OA
ATOM     38  H15 UNL     1      26.927   3.533   0.684  1.00  0.00     0.210 HD
ENDBRANCH  15  37
BRANCH   9  39
HETATM   39  O6  UNL     1      30.065   4.148   5.113  1.00  0.00    -0.359 OA
ATOM     40  H6  UNL     1      30.063   5.004   4.701  1.00  0.00     0.217 HD
ENDBRANCH   9  39
BRANCH  14  41
HETATM   41  C18 UNL     1      26.667   1.402   3.101  1.00  0.00     0.268 C 
BRANCH  41  42
HETATM   42  O9  UNL     1      25.880   0.264   3.124  1.00  0.00    -0.371 OA
ATOM     43  H9  UNL     1      25.212   0.243   3.799  1.00  0.00     0.212 HD
ENDBRANCH  41  42
BRANCH  41  44
HETATM   44  O10 UNL     1      25.716   2.452   3.190  1.00  0.00    -0.329 OA
BRANCH  44  45
HETATM   45  C19 UNL     1      24.811   2.287   4.208  1.00  0.00     0.294 C 
HETATM   46  O11 UNL     1      23.494   2.397   3.808  1.00  0.00    -0.356 OA
HETATM   47  C20 UNL     1      22.840   3.534   4.208  1.00  0.00     0.205 C 
HETATM   48  C21 UNL     1      22.802   3.738   5.698  1.00  0.00     0.173 C 
HETATM   49  C22 UNL     1      24.091   3.358   6.354  1.00  0.00     0.182 C 
HETATM   50  C23 UNL     1      25.171   3.270   5.301  1.00  0.00     0.204 C 
BRANCH  48  51
HETATM   51  O12 UNL     1      21.777   2.980   6.292  1.00  0.00    -0.391 OA
ATOM     52  H12 UNL     1      22.131   2.283   6.833  1.00  0.00     0.210 HD
ENDBRANCH  48  51
BRANCH  49  53
HETATM   53  O13 UNL     1      24.455   4.385   7.221  1.00  0.00    -0.390 OA
ATOM     54  H13 UNL     1      24.979   4.010   7.919  1.00  0.00     0.210 HD
ENDBRANCH  49  53
BRANCH  50  55
HETATM   55  O14 UNL     1      25.337   4.509   4.730  1.00  0.00    -0.388 OA
ATOM     56  H14 UNL     1      26.250   4.605   4.483  1.00  0.00     0.210 HD
ENDBRANCH  50  55
ENDBRANCH  44  45
ENDBRANCH  41  44
ENDBRANCH  14  41
BRANCH   8  57
HETATM   57  C11 UNL     1      32.364   2.926   6.374  1.00  0.00     0.257 C 
HETATM   58  O4  UNL     1      31.645   2.855   7.452  1.00  0.00    -0.267 OA
HETATM   59  N9  UNL     1      33.651   3.440   6.555  1.00  0.00    -0.355 N 
ATOM     60  H9  UNL     1      34.233   3.486   5.719  1.00  0.00     0.162 HD
BRANCH  59  61
HETATM   61  C12 UNL     1      34.258   3.909   7.764  1.00  0.00     0.148 C 
BRANCH  61  62
HETATM   62  C13 UNL     1      35.699   4.261   7.716  1.00  0.00     0.183 C 
BRANCH  62  63
HETATM   63  O5  UNL     1      36.058   5.332   8.473  1.00  0.00    -0.399 OA
ATOM     64  H5  UNL     1      36.849   5.777   8.193  1.00  0.00     0.209 HD
ENDBRANCH  62  63
ENDBRANCH  61  62
ENDBRANCH  59  61
ENDBRANCH   8  57
TORSDOF 18
ENDMDL
MODEL 2
REMARK VINA RESULT: -6.797936195      2.218      3.834
REMARK  18 active torsions:
REMARK  status: ('A' for Active; 'I' for Inactive)
REMARK    1  A    between atoms: C2_5  and  C3_6 
REMARK       I    between atoms: C3_6  and  N3_8 
REMARK    2  A    between atoms: N3_8  and  N4_10 
REMARK    3  A    between atoms: C4_15  and  N6_16 
REMARK       I    between atoms: N6_16  and  C5_18 
REMARK    4  A    between atoms: C5_18  and  C6_20 
REMARK    5  A    between atoms: C6_20  and  O3_21 
REMARK    6  A    between atoms: C10_29  and  C11_30 
REMARK       I    between atoms: C11_30  and  N9_32 
REMARK    7  A    between atoms: N9_32  and  C12_34 
REMARK    8  A    between atoms: C12_34  and  C13_35 
REMARK    9  A    between atoms: C13_35  and  O5_36 
REMARK   10  A    between atoms: C14_38  and  O6_39 
REMARK   11  A    between atoms: C17_45  and  C18_46 
REMARK   12  A    between atoms: C18_46  and  O9_47 
REMARK   13  A    between atoms: C18_46  and  O10_49 
REMARK   14  A    between atoms: O10_49  and  C19_50 
REMARK   15  A    between atoms: C21_53  and  O12_54 
REMARK   16  A    between atoms: C22_56  and  O13_57 
REMARK   17  A    between atoms: C23_59  and  O14_60 
REMARK   18  A    between atoms: C24_62  and  O15_63 
ROOT
HETATM    1  C6  UNL     1      29.852   3.553   3.370  1.00  0.00     0.198 C 
HETATM    2  C7  UNL     1      30.729   2.777   2.466  1.00  0.00     0.055 A 
HETATM    3  C8  UNL     1      31.020   2.937   1.130  1.00  0.00     0.122 A 
HETATM    4  N7  UNL     1      31.888   2.124   0.531  1.00  0.00    -0.338 N 
ATOM      5  H7  UNL     1      32.094   2.255  -0.460  1.00  0.00     0.167 HD
HETATM    6  C9  UNL     1      32.498   1.137   1.202  1.00  0.00     0.135 A 
HETATM    7  N8  UNL     1      33.430   0.286   0.516  1.00  0.00    -0.082 NA
HETATM    8  C10 UNL     1      32.228   0.941   2.562  1.00  0.00     0.106 A 
HETATM    9  C14 UNL     1      31.315   1.778   3.241  1.00  0.00     0.097 A 
HETATM   10  C15 UNL     1      30.567   3.841   0.070  1.00  0.00     0.310 C 
HETATM   11  O7  UNL     1      31.410   3.898  -0.852  1.00  0.00    -0.258 OA
HETATM   12  O8  UNL     1      29.414   4.595  -0.053  1.00  0.00    -0.316 OA
HETATM   13  C16 UNL     1      28.079   4.392   0.346  1.00  0.00     0.191 C 
HETATM   14  C17 UNL     1      27.906   4.288   1.849  1.00  0.00     0.098 C 
HETATM   15  C24 UNL     1      29.060   4.625   2.659  1.00  0.00     0.178 C 
ENDROOT
BRANCH   1  16
HETATM   16  C5  UNL     1      30.817   4.392   4.201  1.00  0.00     0.278 C 
HETATM   17  N6  UNL     1      31.756   5.269   3.647  1.00  0.00    -0.155 N 
ATOM     18  H6  UNL     1      31.507   5.782   2.801  1.00  0.00     0.187 HD
HETATM   19  O2  UNL     1      30.672   4.200   5.461  1.00  0.00    -0.269 OA
BRANCH  17  20
HETATM   20  C4  UNL     1      32.908   5.454   4.155  1.00  0.00     0.703 A 
HETATM   21  N1  UNL     1      33.877   6.303   3.721  1.00  0.00    -0.126 N 
HETATM   22  C1  UNL     1      33.781   7.174   2.567  1.00  0.00     0.197 C 
HETATM   23  N2  UNL     1      34.937   6.224   4.504  1.00  0.00    -0.264 N 
HETATM   24  C2  UNL     1      34.702   5.335   5.463  1.00  0.00     0.206 A 
ATOM     25  H2  UNL     1      35.798   6.759   4.391  1.00  0.00     0.189 HD
HETATM   26  N5  UNL     1      33.441   4.864   5.237  1.00  0.00    -0.168 N 
ATOM     27  H5  UNL     1      32.971   4.162   5.809  1.00  0.00     0.186 HD
BRANCH  24  28
HETATM   28  C3  UNL     1      35.609   4.948   6.537  1.00  0.00     0.305 C 
HETATM   29  O1  UNL     1      36.816   5.311   6.555  1.00  0.00    -0.263 OA
HETATM   30  N3  UNL     1      35.166   4.141   7.616  1.00  0.00    -0.270 N 
ATOM     31  H3  UNL     1      34.192   3.837   7.620  1.00  0.00     0.189 HD
BRANCH  30  32
HETATM   32  N4  UNL     1      35.982   3.743   8.663  1.00  0.00    -0.342 N 
ATOM     33  H42 UNL     1      36.812   4.307   8.846  1.00  0.00     0.176 HD
ATOM     34  H41 UNL     1      35.794   2.928   9.247  1.00  0.00     0.176 HD
ENDBRANCH  30  32
ENDBRANCH  24  28
ENDBRANCH  17  20
ENDBRANCH   1  16
BRANCH   1  35
HETATM   35  O3  UNL     1      29.101   2.849   4.249  1.00  0.00    -0.373 OA
ATOM     36  H3  UNL     1      28.718   2.130   3.761  1.00  0.00     0.211 HD
ENDBRANCH   1  35
BRANCH  15  37
HETATM   37  O15 UNL     1      28.679   5.484   3.743  1.00  0.00    -0.391 OA
ATOM     38  H15 UNL     1      29.245   6.236   3.608  1.00  0.00     0.210 HD
ENDBRANCH  15  37
BRANCH   9  39
HETATM   39  O6  UNL     1      31.051   1.605   4.503  1.00  0.00    -0.359 OA
ATOM     40  H6  UNL     1      30.168   1.557   4.850  1.00  0.00     0.217 HD
ENDBRANCH   9  39
BRANCH  14  41
HETATM   41  C18 UNL     1      27.104   3.066   2.175  1.00  0.00     0.268 C 
BRANCH  41  42
HETATM   42  O9  UNL     1      26.817   2.239   1.103  1.00  0.00    -0.371 OA
ATOM     43  H9  UNL     1      25.934   2.308   0.759  1.00  0.00     0.212 HD
ENDBRANCH  41  42
BRANCH  41  44
HETATM   44  O10 UNL     1      25.824   3.548   2.561  1.00  0.00    -0.329 OA
BRANCH  44  45
HETATM   45  C19 UNL     1      25.304   2.904   3.655  1.00  0.00     0.294 C 
HETATM   46  O11 UNL     1      23.925   2.828   3.655  1.00  0.00    -0.356 OA
HETATM   47  C20 UNL     1      23.281   3.630   4.561  1.00  0.00     0.205 C 
HETATM   48  C21 UNL     1      23.673   3.390   5.993  1.00  0.00     0.173 C 
HETATM   49  C22 UNL     1      25.140   3.135   6.143  1.00  0.00     0.182 C 
HETATM   50  C23 UNL     1      25.848   3.591   4.889  1.00  0.00     0.204 C 
BRANCH  48  51
HETATM   51  O12 UNL     1      22.988   2.286   6.533  1.00  0.00    -0.391 OA
ATOM     52  H12 UNL     1      22.753   2.437   7.442  1.00  0.00     0.210 HD
ENDBRANCH  48  51
BRANCH  49  53
HETATM   53  O13 UNL     1      25.612   3.929   7.185  1.00  0.00    -0.390 OA
ATOM     54  H13 UNL     1      25.161   4.764   7.148  1.00  0.00     0.210 HD
ENDBRANCH  49  53
BRANCH  50  55
HETATM   55  O14 UNL     1      25.667   4.946   4.744  1.00  0.00    -0.388 OA
ATOM     56  H14 UNL     1      25.532   5.323   5.606  1.00  0.00     0.210 HD
ENDBRANCH  50  55
ENDBRANCH  44  45
ENDBRANCH  41  44
ENDBRANCH  14  41
BRANCH   8  57
HETATM   57  C11 UNL     1      32.943  -0.150   3.196  1.00  0.00     0.257 C 
HETATM   58  O4  UNL     1      32.206  -1.088   3.706  1.00  0.00    -0.267 OA
HETATM   59  N9  UNL     1      34.321  -0.340   3.337  1.00  0.00    -0.355 N 
ATOM     60  H9  UNL     1      34.914   0.382   2.926  1.00  0.00     0.162 HD
BRANCH  59  61
HETATM   61  C12 UNL     1      35.007  -1.417   3.984  1.00  0.00     0.148 C 
BRANCH  61  62
HETATM   62  C13 UNL     1      35.218  -1.313   5.450  1.00  0.00     0.183 C 
BRANCH  62  63
HETATM   63  O5  UNL     1      34.111  -1.531   6.210  1.00  0.00    -0.399 OA
ATOM     64  H5  UNL     1      34.127  -1.130   7.071  1.00  0.00     0.209 HD
ENDBRANCH  62  63
ENDBRANCH  61  62
ENDBRANCH  59  61
ENDBRANCH   8  57
TORSDOF 18
ENDMDL
MODEL 3
REMARK VINA RESULT: -6.684710814      1.000      1.121
REMARK  18 active torsions:
REMARK  status: ('A' for Active; 'I' for Inactive)
REMARK    1  A    between atoms: C2_5  and  C3_6 
REMARK       I    between atoms: C3_6  and  N3_8 
REMARK    2  A    between atoms: N3_8  and  N4_10 
REMARK    3  A    between atoms: C4_15  and  N6_16 
REMARK       I    between atoms: N6_16  and  C5_18 
REMARK    4  A    between atoms: C5_18  and  C6_20 
REMARK    5  A    between atoms: C6_20  and  O3_21 
REMARK    6  A    between atoms: C10_29  and  C11_30 
REMARK       I    between atoms: C11_30  and  N9_32 
REMARK    7  A    between atoms: N9_32  and  C12_34 
REMARK    8  A    between atoms: C12_34  and  C13_35 
REMARK    9  A    between atoms: C13_35  and  O5_36 
REMARK   10  A    between atoms: C14_38  and  O6_39 
REMARK   11  A    between atoms: C17_45  and  C18_46 
REMARK   12  A    between atoms: C18_46  and  O9_47 
REMARK   13  A    between atoms: C18_46  and  O10_49 
REMARK   14  A    between atoms: O10_49  and  C19_50 
REMARK   15  A    between atoms: C21_53  and  O12_54 
REMARK   16  A    between atoms: C22_56  and  O13_57 
REMARK   17  A    between atoms: C23_59  and  O14_60 
REMARK   18  A    between atoms: C24_62  and  O15_63 
ROOT
HETATM    1  C6  UNL     1      29.636   3.328   3.212  1.00  0.00     0.198 C 
HETATM    2  C7  UNL     1      30.703   2.386   3.618  1.00  0.00     0.055 A 
HETATM    3  C8  UNL     1      31.218   1.277   2.987  1.00  0.00     0.122 A 
HETATM    4  N7  UNL     1      32.224   0.598   3.538  1.00  0.00    -0.338 N 
ATOM      5  H7  UNL     1      32.595  -0.222   3.059  1.00  0.00     0.167 HD
HETATM    6  C9  UNL     1      32.758   0.971   4.709  1.00  0.00     0.135 A 
HETATM    7  N8  UNL     1      33.844   0.212   5.265  1.00  0.00    -0.082 NA
HETATM    8  C10 UNL     1      32.261   2.094   5.382  1.00  0.00     0.106 A 
HETATM    9  C14 UNL     1      31.196   2.845   4.838  1.00  0.00     0.097 A 
HETATM   10  C15 UNL     1      30.912   0.548   1.754  1.00  0.00     0.310 C 
HETATM   11  O7  UNL     1      31.902  -0.118   1.377  1.00  0.00    -0.258 OA
HETATM   12  O8  UNL     1      29.759   0.490   0.992  1.00  0.00    -0.316 OA
HETATM   13  C16 UNL     1      28.388   0.533   1.309  1.00  0.00     0.191 C 
HETATM   14  C17 UNL     1      27.955   1.837   1.950  1.00  0.00     0.098 C 
HETATM   15  C24 UNL     1      28.925   2.914   1.946  1.00  0.00     0.178 C 
ENDROOT
BRANCH   1  16
HETATM   16  C5  UNL     1      30.388   4.569   2.746  1.00  0.00     0.278 C 
HETATM   17  N6  UNL     1      31.410   4.542   1.790  1.00  0.00    -0.155 N 
ATOM     18  H6  UNL     1      31.339   3.881   1.017  1.00  0.00     0.187 HD
HETATM   19  O2  UNL     1      29.982   5.636   3.330  1.00  0.00    -0.269 OA
BRANCH  17  20
HETATM   20  C4  UNL     1      32.424   5.309   1.845  1.00  0.00     0.703 A 
HETATM   21  N1  UNL     1      33.710   4.962   2.115  1.00  0.00    -0.126 N 
HETATM   22  C1  UNL     1      34.180   3.620   2.401  1.00  0.00     0.197 C 
HETATM   23  N2  UNL     1      34.488   6.028   2.083  1.00  0.00    -0.264 N 
HETATM   24  C2  UNL     1      33.748   7.095   1.795  1.00  0.00     0.206 A 
ATOM     25  H2  UNL     1      35.494   6.033   2.252  1.00  0.00     0.189 HD
HETATM   26  N5  UNL     1      32.471   6.637   1.651  1.00  0.00    -0.168 N 
ATOM     27  H5  UNL     1      31.666   7.222   1.427  1.00  0.00     0.186 HD
BRANCH  24  28
HETATM   28  C3  UNL     1      34.215   8.470   1.660  1.00  0.00     0.305 C 
HETATM   29  O1  UNL     1      35.076   8.963   2.437  1.00  0.00    -0.263 OA
HETATM   30  N3  UNL     1      33.713   9.316   0.639  1.00  0.00    -0.270 N 
ATOM     31  H3  UNL     1      33.015   8.936  -0.001  1.00  0.00     0.189 HD
BRANCH  30  32
HETATM   32  N4  UNL     1      34.118  10.629   0.462  1.00  0.00    -0.342 N 
ATOM     33  H42 UNL     1      33.851  11.300   1.183  1.00  0.00     0.176 HD
ATOM     34  H41 UNL     1      34.659  10.950  -0.341  1.00  0.00     0.176 HD
ENDBRANCH  30  32
ENDBRANCH  24  28
ENDBRANCH  17  20
ENDBRANCH   1  16
BRANCH   1  35
HETATM   35  O3  UNL     1      28.780   3.738   4.179  1.00  0.00    -0.373 OA
ATOM     36  H3  UNL     1      28.455   2.952   4.602  1.00  0.00     0.211 HD
ENDBRANCH   1  35
BRANCH  15  37
HETATM   37  O15 UNL     1      28.309   4.144   1.535  1.00  0.00    -0.391 OA
ATOM     38  H15 UNL     1      29.062   4.672   1.297  1.00  0.00     0.210 HD
ENDBRANCH  15  37
BRANCH   9  39
HETATM   39  O6  UNL     1      30.721   3.887   5.454  1.00  0.00    -0.359 OA
ATOM     40  H6  UNL     1      31.050   4.194   6.291  1.00  0.00     0.217 HD
ENDBRANCH   9  39
BRANCH  14  41
HETATM   41  C18 UNL     1      27.177   1.547   3.196  1.00  0.00     0.268 C 
BRANCH  41  42
HETATM   42  O9  UNL     1      26.429   0.382   3.173  1.00  0.00    -0.371 OA
ATOM     43  H9  UNL     1      25.809   0.281   3.886  1.00  0.00     0.212 HD
ENDBRANCH  41  42
BRANCH  41  44
HETATM   44  O10 UNL     1      26.187   2.563   3.268  1.00  0.00    -0.329 OA
BRANCH  44  45
HETATM   45  C19 UNL     1      25.243   2.340   4.238  1.00  0.00     0.294 C 
HETATM   46  O11 UNL     1      23.942   2.394   3.776  1.00  0.00    -0.356 OA
HETATM   47  C20 UNL     1      23.217   3.492   4.158  1.00  0.00     0.205 C 
HETATM   48  C21 UNL     1      23.097   3.672   5.646  1.00  0.00     0.173 C 
HETATM   49  C22 UNL     1      24.369   3.343   6.360  1.00  0.00     0.182 C 
HETATM   50  C23 UNL     1      25.501   3.321   5.360  1.00  0.00     0.204 C 
BRANCH  48  51
HETATM   51  O12 UNL     1      22.081   2.857   6.179  1.00  0.00    -0.391 OA
ATOM     52  H12 UNL     1      21.309   3.366   6.397  1.00  0.00     0.210 HD
ENDBRANCH  48  51
BRANCH  49  53
HETATM   53  O13 UNL     1      24.641   4.373   7.257  1.00  0.00    -0.390 OA
ATOM     54  H13 UNL     1      24.135   4.218   8.045  1.00  0.00     0.210 HD
ENDBRANCH  49  53
BRANCH  50  55
HETATM   55  O14 UNL     1      25.636   4.576   4.814  1.00  0.00    -0.388 OA
ATOM     56  H14 UNL     1      26.480   4.927   5.076  1.00  0.00     0.210 HD
ENDBRANCH  50  55
ENDBRANCH  44  45
ENDBRANCH  41  44
ENDBRANCH  14  41
BRANCH   8  57
HETATM   57  C11 UNL     1      32.911   2.414   6.639  1.00  0.00     0.257 C 
HETATM   58  O4  UNL     1      32.274   2.059   7.711  1.00  0.00    -0.267 OA
HETATM   59  N9  UNL     1      34.133   3.055   6.863  1.00  0.00    -0.355 N 
ATOM     60  H9  UNL     1      34.653   3.326   6.028  1.00  0.00     0.162 HD
BRANCH  59  61
HETATM   61  C12 UNL     1      34.749   3.380   8.114  1.00  0.00     0.148 C 
BRANCH  61  62
HETATM   62  C13 UNL     1      36.107   3.977   8.075  1.00  0.00     0.183 C 
BRANCH  62  63
HETATM   63  O5  UNL     1      36.185   5.266   8.500  1.00  0.00    -0.399 OA
ATOM     64  H5  UNL     1      37.028   5.525   8.852  1.00  0.00     0.209 HD
ENDBRANCH  62  63
ENDBRANCH  61  62
ENDBRANCH  59  61
ENDBRANCH   8  57
TORSDOF 18
ENDMDL
MODEL 4
REMARK VINA RESULT: -6.333150257      3.383      6.257
REMARK  18 active torsions:
REMARK  status: ('A' for Active; 'I' for Inactive)
REMARK    1  A    between atoms: C2_5  and  C3_6 
REMARK       I    between atoms: C3_6  and  N3_8 
REMARK    2  A    between atoms: N3_8  and  N4_10 
REMARK    3  A    between atoms: C4_15  and  N6_16 
REMARK       I    between atoms: N6_16  and  C5_18 
REMARK    4  A    between atoms: C5_18  and  C6_20 
REMARK    5  A    between atoms: C6_20  and  O3_21 
REMARK    6  A    between atoms: C10_29  and  C11_30 
REMARK       I    between atoms: C11_30  and  N9_32 
REMARK    7  A    between atoms: N9_32  and  C12_34 
REMARK    8  A    between atoms: C12_34  and  C13_35 
REMARK    9  A    between atoms: C13_35  and  O5_36 
REMARK   10  A    between atoms: C14_38  and  O6_39 
REMARK   11  A    between atoms: C17_45  and  C18_46 
REMARK   12  A    between atoms: C18_46  and  O9_47 
REMARK   13  A    between atoms: C18_46  and  O10_49 
REMARK   14  A    between atoms: O10_49  and  C19_50 
REMARK   15  A    between atoms: C21_53  and  O12_54 
REMARK   16  A    between atoms: C22_56  and  O13_57 
REMARK   17  A    between atoms: C23_59  and  O14_60 
REMARK   18  A    between atoms: C24_62  and  O15_63 
ROOT
HETATM    1  C6  UNL     1      32.486   2.085   5.461  1.00  0.00     0.198 C 
HETATM    2  C7  UNL     1      33.411   1.215   4.702  1.00  0.00     0.055 A 
HETATM    3  C8  UNL     1      34.089   1.427   3.523  1.00  0.00     0.122 A 
HETATM    4  N7  UNL     1      34.914   0.495   3.048  1.00  0.00    -0.338 N 
ATOM      5  H7  UNL     1      35.410   0.666   2.173  1.00  0.00     0.167 HD
HETATM    6  C9  UNL     1      35.106  -0.664   3.695  1.00  0.00     0.135 A 
HETATM    7  N8  UNL     1      36.007  -1.638   3.147  1.00  0.00    -0.082 NA
HETATM    8  C10 UNL     1      34.433  -0.916   4.897  1.00  0.00     0.106 A 
HETATM    9  C14 UNL     1      33.549   0.042   5.440  1.00  0.00     0.097 A 
HETATM   10  C15 UNL     1      34.137   2.504   2.532  1.00  0.00     0.310 C 
HETATM   11  O7  UNL     1      35.199   2.450   1.872  1.00  0.00    -0.258 OA
HETATM   12  O8  UNL     1      33.235   3.510   2.235  1.00  0.00    -0.316 OA
HETATM   13  C16 UNL     1      31.829   3.582   2.248  1.00  0.00     0.191 C 
HETATM   14  C17 UNL     1      31.225   3.383   3.625  1.00  0.00     0.098 C 
HETATM   15  C24 UNL     1      32.149   3.370   4.742  1.00  0.00     0.178 C 
ENDROOT
BRANCH   1  16
HETATM   16  C5  UNL     1      33.324   2.600   6.625  1.00  0.00     0.278 C 
HETATM   17  N6  UNL     1      34.505   3.333   6.465  1.00  0.00    -0.155 N 
ATOM     18  H6  UNL     1      34.573   3.988   5.686  1.00  0.00     0.187 HD
HETATM   19  O2  UNL     1      32.826   2.284   7.765  1.00  0.00    -0.269 OA
BRANCH  17  20
HETATM   20  C4  UNL     1      35.499   3.216   7.252  1.00  0.00     0.703 A 
HETATM   21  N1  UNL     1      36.633   2.495   7.050  1.00  0.00    -0.126 N 
HETATM   22  C1  UNL     1      36.930   1.700   5.875  1.00  0.00     0.197 C 
HETATM   23  N2  UNL     1      37.441   2.616   8.087  1.00  0.00    -0.264 N 
HETATM   24  C2  UNL     1      36.873   3.409   8.989  1.00  0.00     0.206 A 
ATOM     25  H2  UNL     1      38.355   2.172   8.181  1.00  0.00     0.189 HD
HETATM   26  N5  UNL     1      35.669   3.775   8.461  1.00  0.00    -0.168 N 
ATOM     27  H5  UNL     1      34.994   4.386   8.921  1.00  0.00     0.186 HD
BRANCH  24  28
HETATM   28  C3  UNL     1      37.429   3.805  10.278  1.00  0.00     0.305 C 
HETATM   29  O1  UNL     1      37.537   2.995  11.237  1.00  0.00    -0.263 OA
HETATM   30  N3  UNL     1      37.877   5.131  10.505  1.00  0.00    -0.270 N 
ATOM     31  H3  UNL     1      37.798   5.803   9.741  1.00  0.00     0.189 HD
BRANCH  30  32
HETATM   32  N4  UNL     1      38.413   5.566  11.707  1.00  0.00    -0.342 N 
ATOM     33  H42 UNL     1      38.082   6.461  12.067  1.00  0.00     0.176 HD
ATOM     34  H41 UNL     1      39.110   5.042  12.236  1.00  0.00     0.176 HD
ENDBRANCH  30  32
ENDBRANCH  24  28
ENDBRANCH  17  20
ENDBRANCH   1  16
BRANCH   1  35
HETATM   35  O3  UNL     1      31.395   1.493   6.005  1.00  0.00    -0.373 OA
ATOM     36  H3  UNL     1      30.661   1.717   5.446  1.00  0.00     0.211 HD
ENDBRANCH   1  35
BRANCH  15  37
HETATM   37  O15 UNL     1      31.656   4.190   5.811  1.00  0.00    -0.391 OA
ATOM     38  H15 UNL     1      31.558   3.559   6.515  1.00  0.00     0.210 HD
ENDBRANCH  15  37
BRANCH   9  39
HETATM   39  O6  UNL     1      32.914  -0.182   6.553  1.00  0.00    -0.359 OA
ATOM     40  H6  UNL     1      32.032  -0.533   6.590  1.00  0.00     0.217 HD
ENDBRANCH   9  39
BRANCH  14  41
HETATM   41  C18 UNL     1      30.141   2.353   3.550  1.00  0.00     0.268 C 
BRANCH  41  42
HETATM   42  O9  UNL     1      30.395   1.282   2.711  1.00  0.00    -0.371 OA
ATOM     43  H9  UNL     1      29.938   0.477   2.927  1.00  0.00     0.212 HD
ENDBRANCH  41  42
BRANCH  41  44
HETATM   44  O10 UNL     1      29.047   3.003   2.919  1.00  0.00    -0.329 OA
BRANCH  44  45
HETATM   45  C19 UNL     1      27.824   2.607   3.400  1.00  0.00     0.294 C 
HETATM   46  O11 UNL     1      26.858   2.469   2.422  1.00  0.00    -0.356 OA
HETATM   47  C20 UNL     1      25.879   3.429   2.409  1.00  0.00     0.205 C 
HETATM   48  C21 UNL     1      25.105   3.546   3.692  1.00  0.00     0.173 C 
HETATM   49  C22 UNL     1      25.981   3.401   4.896  1.00  0.00     0.182 C 
HETATM   50  C23 UNL     1      27.421   3.586   4.481  1.00  0.00     0.204 C 
BRANCH  48  51
HETATM   51  O12 UNL     1      24.097   2.567   3.773  1.00  0.00    -0.391 OA
ATOM     52  H12 UNL     1      23.284   2.935   4.098  1.00  0.00     0.210 HD
ENDBRANCH  48  51
BRANCH  49  53
HETATM   53  O13 UNL     1      25.678   4.436   5.778  1.00  0.00    -0.390 OA
ATOM     54  H13 UNL     1      24.753   4.385   5.987  1.00  0.00     0.210 HD
ENDBRANCH  49  53
BRANCH  50  55
HETATM   55  O14 UNL     1      27.582   4.861   3.992  1.00  0.00    -0.388 OA
ATOM     56  H14 UNL     1      27.617   5.461   4.728  1.00  0.00     0.210 HD
ENDBRANCH  50  55
ENDBRANCH  44  45
ENDBRANCH  41  44
ENDBRANCH  14  41
BRANCH   8  57
HETATM   57  C11 UNL     1      34.715  -2.196   5.519  1.00  0.00     0.257 C 
HETATM   58  O4  UNL     1      35.388  -2.150   6.626  1.00  0.00    -0.267 OA
HETATM   59  N9  UNL     1      34.363  -3.481   5.094  1.00  0.00    -0.355 N 
ATOM     60  H9  UNL     1      33.819  -3.531   4.233  1.00  0.00     0.162 HD
BRANCH  59  61
HETATM   61  C12 UNL     1      34.668  -4.735   5.714  1.00  0.00     0.148 C 
BRANCH  61  62
HETATM   62  C13 UNL     1      33.542  -5.668   5.963  1.00  0.00     0.183 C 
BRANCH  62  63
HETATM   63  O5  UNL     1      32.372  -5.078   6.326  1.00  0.00    -0.399 OA
ATOM     64  H5  UNL     1      31.742  -5.654   6.745  1.00  0.00     0.209 HD
ENDBRANCH  62  63
ENDBRANCH  61  62
ENDBRANCH  59  61
ENDBRANCH   8  57
TORSDOF 18
ENDMDL
MODEL 5
REMARK VINA RESULT: -6.328755375      2.934      9.825
REMARK  18 active torsions:
REMARK  status: ('A' for Active; 'I' for Inactive)
REMARK    1  A    between atoms: C2_5  and  C3_6 
REMARK       I    between atoms: C3_6  and  N3_8 
REMARK    2  A    between atoms: N3_8  and  N4_10 
REMARK    3  A    between atoms: C4_15  and  N6_16 
REMARK       I    between atoms: N6_16  and  C5_18 
REMARK    4  A    between atoms: C5_18  and  C6_20 
REMARK    5  A    between atoms: C6_20  and  O3_21 
REMARK    6  A    between atoms: C10_29  and  C11_30 
REMARK       I    between atoms: C11_30  and  N9_32 
REMARK    7  A    between atoms: N9_32  and  C12_34 
REMARK    8  A    between atoms: C12_34  and  C13_35 
REMARK    9  A    between atoms: C13_35  and  O5_36 
REMARK   10  A    between atoms: C14_38  and  O6_39 
REMARK   11  A    between atoms: C17_45  and  C18_46 
REMARK   12  A    between atoms: C18_46  and  O9_47 
REMARK   13  A    between atoms: C18_46  and  O10_49 
REMARK   14  A    between atoms: O10_49  and  C19_50 
REMARK   15  A    between atoms: C21_53  and  O12_54 
REMARK   16  A    between atoms: C22_56  and  O13_57 
REMARK   17  A    between atoms: C23_59  and  O14_60 
REMARK   18  A    between atoms: C24_62  and  O15_63 
ROOT
HETATM    1  C6  UNL     1      33.658   2.392   6.008  1.00  0.00     0.198 C 
HETATM    2  C7  UNL     1      32.851   3.314   5.178  1.00  0.00     0.055 A 
HETATM    3  C8  UNL     1      33.226   4.246   4.238  1.00  0.00     0.122 A 
HETATM    4  N7  UNL     1      32.300   4.942   3.578  1.00  0.00    -0.338 N 
ATOM      5  H7  UNL     1      32.593   5.630   2.884  1.00  0.00     0.167 HD
HETATM    6  C9  UNL     1      30.992   4.757   3.806  1.00  0.00     0.135 A 
HETATM    7  N8  UNL     1      30.030   5.526   3.069  1.00  0.00    -0.082 NA
HETATM    8  C10 UNL     1      30.572   3.817   4.756  1.00  0.00     0.106 A 
HETATM    9  C14 UNL     1      31.516   3.056   5.481  1.00  0.00     0.097 A 
HETATM   10  C15 UNL     1      34.502   4.753   3.729  1.00  0.00     0.310 C 
HETATM   11  O7  UNL     1      34.355   5.264   2.596  1.00  0.00    -0.258 OA
HETATM   12  O8  UNL     1      35.770   4.750   4.282  1.00  0.00    -0.316 OA
HETATM   13  C16 UNL     1      36.248   4.865   5.602  1.00  0.00     0.191 C 
HETATM   14  C17 UNL     1      35.798   3.738   6.510  1.00  0.00     0.098 C 
HETATM   15  C24 UNL     1      35.146   2.612   5.870  1.00  0.00     0.178 C 
ENDROOT
BRANCH   1  16
HETATM   16  C5  UNL     1      33.489   1.035   5.334  1.00  0.00     0.278 C 
HETATM   17  N6  UNL     1      33.738   0.808   3.975  1.00  0.00    -0.155 N 
ATOM     18  H6  UNL     1      34.501   1.314   3.526  1.00  0.00     0.187 HD
HETATM   19  O2  UNL     1      33.092   0.129   6.150  1.00  0.00    -0.269 OA
BRANCH  17  20
HETATM   20  C4  UNL     1      33.051  -0.004   3.277  1.00  0.00     0.703 A 
HETATM   21  N1  UNL     1      33.403  -0.586   2.101  1.00  0.00    -0.126 N 
HETATM   22  C1  UNL     1      34.656  -0.383   1.400  1.00  0.00     0.197 C 
HETATM   23  N2  UNL     1      32.433  -1.374   1.672  1.00  0.00    -0.264 N 
HETATM   24  C2  UNL     1      31.428  -1.335   2.541  1.00  0.00     0.206 A 
ATOM     25  H2  UNL     1      32.452  -1.923   0.813  1.00  0.00     0.189 HD
HETATM   26  N5  UNL     1      31.821  -0.482   3.531  1.00  0.00    -0.168 N 
ATOM     27  H5  UNL     1      31.261  -0.242   4.349  1.00  0.00     0.186 HD
BRANCH  24  28
HETATM   28  C3  UNL     1      30.166  -2.060   2.449  1.00  0.00     0.305 C 
HETATM   29  O1  UNL     1      30.124  -3.307   2.275  1.00  0.00    -0.263 OA
HETATM   30  N3  UNL     1      28.924  -1.384   2.554  1.00  0.00    -0.270 N 
ATOM     31  H3  UNL     1      28.937  -0.374   2.696  1.00  0.00     0.189 HD
BRANCH  30  32
HETATM   32  N4  UNL     1      27.695  -2.019   2.475  1.00  0.00    -0.342 N 
ATOM     33  H42 UNL     1      27.440  -2.636   3.246  1.00  0.00     0.176 HD
ATOM     34  H41 UNL     1      27.047  -1.901   1.696  1.00  0.00     0.176 HD
ENDBRANCH  30  32
ENDBRANCH  24  28
ENDBRANCH  17  20
ENDBRANCH   1  16
BRANCH   1  35
HETATM   35  O3  UNL     1      33.273   2.231   7.296  1.00  0.00    -0.373 OA
ATOM     36  H3  UNL     1      32.898   3.059   7.571  1.00  0.00     0.211 HD
ENDBRANCH   1  35
BRANCH  15  37
HETATM   37  O15 UNL     1      35.678   1.375   6.366  1.00  0.00    -0.391 OA
ATOM     38  H15 UNL     1      36.407   1.222   5.776  1.00  0.00     0.210 HD
ENDBRANCH  15  37
BRANCH   9  39
HETATM   39  O6  UNL     1      31.140   2.184   6.369  1.00  0.00    -0.359 OA
ATOM     40  H6  UNL     1      31.341   1.257   6.309  1.00  0.00     0.217 HD
ENDBRANCH   9  39
BRANCH  14  41
HETATM   41  C18 UNL     1      35.221   4.310   7.767  1.00  0.00     0.268 C 
BRANCH  41  42
HETATM   42  O9  UNL     1      35.597   5.610   8.057  1.00  0.00    -0.371 OA
ATOM     43  H9  UNL     1      36.110   5.720   8.849  1.00  0.00     0.212 HD
ENDBRANCH  41  42
BRANCH  41  44
HETATM   44  O10 UNL     1      35.807   3.564   8.825  1.00  0.00    -0.329 OA
BRANCH  44  45
HETATM   45  C19 UNL     1      37.179   3.568   8.803  1.00  0.00     0.294 C 
HETATM   46  O11 UNL     1      37.737   2.342   8.495  1.00  0.00    -0.356 OA
HETATM   47  C20 UNL     1      38.346   1.685   9.532  1.00  0.00     0.205 C 
HETATM   48  C21 UNL     1      39.460   2.454  10.188  1.00  0.00     0.173 C 
HETATM   49  C22 UNL     1      39.140   3.909  10.322  1.00  0.00     0.182 C 
HETATM   50  C23 UNL     1      37.654   4.104  10.136  1.00  0.00     0.204 C 
BRANCH  48  51
HETATM   51  O12 UNL     1      40.657   2.342   9.457  1.00  0.00    -0.391 OA
ATOM     52  H12 UNL     1      41.020   3.197   9.256  1.00  0.00     0.210 HD
ENDBRANCH  48  51
BRANCH  49  53
HETATM   53  O13 UNL     1      39.439   4.299  11.625  1.00  0.00    -0.390 OA
ATOM     54  H13 UNL     1      39.192   3.592  12.209  1.00  0.00     0.210 HD
ENDBRANCH  49  53
BRANCH  50  55
HETATM   55  O14 UNL     1      36.989   3.432  11.134  1.00  0.00    -0.388 OA
ATOM     56  H14 UNL     1      37.616   3.210  11.813  1.00  0.00     0.210 HD
ENDBRANCH  50  55
ENDBRANCH  44  45
ENDBRANCH  41  44
ENDBRANCH  14  41
BRANCH   8  57
HETATM   57  C11 UNL     1      29.137   3.690   4.924  1.00  0.00     0.257 C 
HETATM   58  O4  UNL     1      28.625   4.348   5.918  1.00  0.00    -0.267 OA
HETATM   59  N9  UNL     1      28.220   2.958   4.165  1.00  0.00    -0.355 N 
ATOM     60  H9  UNL     1      28.606   2.448   3.370  1.00  0.00     0.162 HD
BRANCH  59  61
HETATM   61  C12 UNL     1      26.807   2.830   4.360  1.00  0.00     0.148 C 
BRANCH  61  62
HETATM   62  C13 UNL     1      25.964   4.013   4.057  1.00  0.00     0.183 C 
BRANCH  62  63
HETATM   63  O5  UNL     1      25.652   4.790   5.128  1.00  0.00    -0.399 OA
ATOM     64  H5  UNL     1      24.723   4.886   5.300  1.00  0.00     0.209 HD
ENDBRANCH  62  63
ENDBRANCH  61  62
ENDBRANCH  59  61
ENDBRANCH   8  57
TORSDOF 18
ENDMDL
