MODEL 1
REMARK VINA RESULT: -6.262280846      0.000      0.000
REMARK  17 active torsions:
REMARK  status: ('A' for Active; 'I' for Inactive)
REMARK    1  A    between atoms: N1_1  and  N2_4 
REMARK    2  A    between atoms: C2_7  and  N3_8 
REMARK    3  A    between atoms: C5_14  and  N5_15 
REMARK    4  A    between atoms: N5_15  and  N6_17 
REMARK    5  A    between atoms: N6_17  and  C6_19 
REMARK    6  A    between atoms: N9_27  and  C10_28 
REMARK    7  A    between atoms: C11_30  and  C12_31 
REMARK    8  A    between atoms: C12_31  and  O4_32 
REMARK    9  A    between atoms: C13_34  and  O5_35 
REMARK   10  A    between atoms: C14_37  and  O6_38 
REMARK   11  A    between atoms: N10_42  and  C16_43 
REMARK   12  A    between atoms: C17_45  and  C18_46 
REMARK   13  A    between atoms: C18_46  and  O9_47 
REMARK   14  A    between atoms: C19_49  and  O10_50 
REMARK   15  A    between atoms: C20_52  and  O11_53 
REMARK   16  A    between atoms: C23_62  and  C24_63 
REMARK   17  A    between atoms: C24_63  and  O13_64 
ROOT
HETATM    1  C6  UNL     1      31.888   3.246   1.566  1.00  0.00     0.152 A 
HETATM    2  N7  UNL     1      31.344   3.349   0.349  1.00  0.00    -0.336 N 
ATOM      3  H7  UNL     1      31.939   3.219  -0.470  1.00  0.00     0.168 HD
HETATM    4  C7  UNL     1      30.042   3.617   0.169  1.00  0.00     0.183 A 
HETATM    5  N8  UNL     1      29.226   3.793   1.213  1.00  0.00    -0.336 N 
ATOM      6  H8  UNL     1      28.238   3.995   1.062  1.00  0.00     0.168 HD
HETATM    7  C8  UNL     1      29.713   3.703   2.455  1.00  0.00     0.146 A 
HETATM    8  C9  UNL     1      31.076   3.423   2.665  1.00  0.00     0.131 A 
HETATM    9  N9  UNL     1      31.291   3.389   3.986  1.00  0.00    -0.262 N 
HETATM   10  C15 UNL     1      30.100   3.640   4.577  1.00  0.00     0.335 A 
HETATM   11  O7  UNL     1      29.955   3.680   5.820  1.00  0.00    -0.246 OA
HETATM   12  N10 UNL     1      29.153   3.829   3.658  1.00  0.00    -0.252 N 
ENDROOT
BRANCH   1  13
HETATM   13  N6  UNL     1      33.126   2.991   1.715  1.00  0.00    -0.282 N 
ATOM     14  H6  UNL     1      33.394   2.035   1.948  1.00  0.00     0.188 HD
BRANCH  13  15
HETATM   15  N5  UNL     1      34.134   3.936   1.578  1.00  0.00    -0.282 N 
ATOM     16  H5  UNL     1      34.473   4.139   0.637  1.00  0.00     0.188 HD
BRANCH  15  17
HETATM   17  C5  UNL     1      34.664   4.565   2.546  1.00  0.00     0.152 A 
HETATM   18  C4  UNL     1      35.792   4.036   3.165  1.00  0.00     0.127 A 
HETATM   19  N4  UNL     1      36.495   2.906   2.933  1.00  0.00    -0.302 N 
HETATM   20  C22 UNL     1      36.415   4.666   4.219  1.00  0.00     0.146 A 
HETATM   21  C3  UNL     1      37.492   2.861   3.806  1.00  0.00     0.331 A 
ATOM     22  H4  UNL     1      36.294   2.211   2.214  1.00  0.00     0.171 HD
HETATM   23  N3  UNL     1      37.481   3.933   4.624  1.00  0.00    -0.246 N 
HETATM   24  O2  UNL     1      38.348   1.937   3.873  1.00  0.00    -0.246 OA
HETATM   25  N12 UNL     1      35.898   5.823   4.639  1.00  0.00    -0.336 N 
HETATM   26  C21 UNL     1      34.809   6.346   4.051  1.00  0.00     0.183 A 
ATOM     27  H12 UNL     1      36.335   6.317   5.417  1.00  0.00     0.168 HD
HETATM   28  N11 UNL     1      34.208   5.725   3.025  1.00  0.00    -0.336 N 
ATOM     29  H11 UNL     1      33.383   6.148   2.601  1.00  0.00     0.168 HD
BRANCH  23  30
HETATM   30  C2  UNL     1      38.415   4.240   5.711  1.00  0.00     0.331 C 
HETATM   31  C1  UNL     1      37.885   3.871   7.026  1.00  0.00     0.289 C 
HETATM   32  N2  UNL     1      37.910   5.032   7.829  1.00  0.00    -0.232 N 
HETATM   33  O1  UNL     1      37.487   2.746   7.377  1.00  0.00    -0.267 OA
HETATM   34  C23 UNL     1      38.415   6.095   6.985  1.00  0.00     0.273 C 
HETATM   35  O12 UNL     1      38.593   5.599   5.725  1.00  0.00    -0.329 OA
BRANCH  32  36
HETATM   36  N1  UNL     1      37.549   5.219   9.156  1.00  0.00    -0.338 N 
ATOM     37  H12 UNL     1      36.948   4.574   9.669  1.00  0.00     0.177 HD
ATOM     38  H11 UNL     1      37.789   5.964   9.810  1.00  0.00     0.177 HD
ENDBRANCH  32  36
BRANCH  34  39
HETATM   39  C24 UNL     1      39.728   6.644   7.501  1.00  0.00     0.219 C 
BRANCH  39  40
HETATM   40  O13 UNL     1      39.452   7.545   8.528  1.00  0.00    -0.397 OA
ATOM     41  H13 UNL     1      38.519   7.515   8.708  1.00  0.00     0.209 HD
ENDBRANCH  39  40
ENDBRANCH  34  39
ENDBRANCH  23  30
ENDBRANCH  15  17
ENDBRANCH  13  15
ENDBRANCH   1  13
BRANCH   9  42
HETATM   42  C10 UNL     1      32.538   3.137   4.670  1.00  0.00     0.265 C 
HETATM   43  O3  UNL     1      32.713   4.102   5.661  1.00  0.00    -0.353 OA
HETATM   44  C11 UNL     1      33.100   3.510   6.825  1.00  0.00     0.179 C 
HETATM   45  C13 UNL     1      33.479   2.093   6.547  1.00  0.00     0.182 C 
HETATM   46  C14 UNL     1      32.578   1.794   5.339  1.00  0.00     0.198 C 
BRANCH  44  47
HETATM   47  C12 UNL     1      34.212   4.302   7.476  1.00  0.00     0.198 C 
BRANCH  47  48
HETATM   48  O4  UNL     1      34.794   3.663   8.537  1.00  0.00    -0.398 OA
ATOM     49  H4  UNL     1      35.689   3.935   8.701  1.00  0.00     0.209 HD
ENDBRANCH  47  48
ENDBRANCH  44  47
BRANCH  45  50
HETATM   50  O5  UNL     1      34.794   1.941   6.125  1.00  0.00    -0.390 OA
ATOM     51  H5  UNL     1      35.159   1.085   6.317  1.00  0.00     0.210 HD
ENDBRANCH  45  50
BRANCH  46  52
HETATM   52  O6  UNL     1      31.335   1.348   5.742  1.00  0.00    -0.388 OA
ATOM     53  H6  UNL     1      31.119   1.595   6.634  1.00  0.00     0.210 HD
ENDBRANCH  46  52
ENDBRANCH   9  42
BRANCH  12  54
HETATM   54  C16 UNL     1      27.762   4.118   3.966  1.00  0.00     0.266 C 
HETATM   55  O8  UNL     1      27.497   4.017   5.335  1.00  0.00    -0.353 OA
HETATM   56  C17 UNL     1      26.124   4.094   5.388  1.00  0.00     0.179 C 
HETATM   57  C19 UNL     1      25.584   3.252   4.283  1.00  0.00     0.182 C 
HETATM   58  C20 UNL     1      26.826   3.064   3.403  1.00  0.00     0.198 C 
BRANCH  56  59
HETATM   59  C18 UNL     1      25.571   3.720   6.744  1.00  0.00     0.198 C 
BRANCH  59  60
HETATM   60  O9  UNL     1      24.284   4.153   6.936  1.00  0.00    -0.398 OA
ATOM     61  H9  UNL     1      24.086   4.336   7.847  1.00  0.00     0.209 HD
ENDBRANCH  59  60
ENDBRANCH  56  59
BRANCH  57  62
HETATM   62  O10 UNL     1      25.163   2.001   4.663  1.00  0.00    -0.390 OA
ATOM     63  H10 UNL     1      24.221   1.885   4.682  1.00  0.00     0.210 HD
ENDBRANCH  57  62
BRANCH  58  64
HETATM   64  O11 UNL     1      27.415   1.824   3.635  1.00  0.00    -0.388 OA
ATOM     65  H11 UNL     1      27.941   1.615   2.872  1.00  0.00     0.210 HD
ENDBRANCH  58  64
ENDBRANCH  12  54
TORSDOF 17
ENDMDL
MODEL 2
REMARK VINA RESULT: -6.116834055      5.003     10.927
REMARK  17 active torsions:
REMARK  status: ('A' for Active; 'I' for Inactive)
REMARK    1  A    between atoms: N1_1  and  N2_4 
REMARK    2  A    between atoms: C2_7  and  N3_8 
REMARK    3  A    between atoms: C5_14  and  N5_15 
REMARK    4  A    between atoms: N5_15  and  N6_17 
REMARK    5  A    between atoms: N6_17  and  C6_19 
REMARK    6  A    between atoms: N9_27  and  C10_28 
REMARK    7  A    between atoms: C11_30  and  C12_31 
REMARK    8  A    between atoms: C12_31  and  O4_32 
REMARK    9  A    between atoms: C13_34  and  O5_35 
REMARK   10  A    between atoms: C14_37  and  O6_38 
REMARK   11  A    between atoms: N10_42  and  C16_43 
REMARK   12  A    between atoms: C17_45  and  C18_46 
REMARK   13  A    between atoms: C18_46  and  O9_47 
REMARK   14  A    between atoms: C19_49  and  O10_50 
REMARK   15  A    between atoms: C20_52  and  O11_53 
REMARK   16  A    between atoms: C23_62  and  C24_63 
REMARK   17  A    between atoms: C24_63  and  O13_64 
ROOT
HETATM    1  C6  UNL     1      36.971   8.232   4.082  1.00  0.00     0.152 A 
HETATM    2  N7  UNL     1      37.688   7.862   5.149  1.00  0.00    -0.336 N 
ATOM      3  H7  UNL     1      37.574   6.918   5.517  1.00  0.00     0.168 HD
HETATM    4  C7  UNL     1      38.553   8.693   5.750  1.00  0.00     0.183 A 
HETATM    5  N8  UNL     1      38.735   9.939   5.301  1.00  0.00    -0.336 N 
ATOM      6  H8  UNL     1      39.396  10.560   5.766  1.00  0.00     0.168 HD
HETATM    7  C8  UNL     1      38.045  10.365   4.238  1.00  0.00     0.146 A 
HETATM    8  C9  UNL     1      37.133   9.509   3.593  1.00  0.00     0.131 A 
HETATM    9  N9  UNL     1      36.588  10.181   2.571  1.00  0.00    -0.262 N 
HETATM   10  C15 UNL     1      37.143  11.415   2.582  1.00  0.00     0.335 A 
HETATM   11  O7  UNL     1      36.846  12.300   1.747  1.00  0.00    -0.246 OA
HETATM   12  N10 UNL     1      38.018  11.525   3.582  1.00  0.00    -0.252 N 
ENDROOT
BRANCH   1  13
HETATM   13  N6  UNL     1      36.156   7.427   3.526  1.00  0.00    -0.282 N 
ATOM     14  H6  UNL     1      36.151   7.377   2.508  1.00  0.00     0.188 HD
BRANCH  13  15
HETATM   15  N5  UNL     1      35.273   6.613   4.223  1.00  0.00    -0.282 N 
ATOM     16  H5  UNL     1      35.592   6.211   5.105  1.00  0.00     0.188 HD
BRANCH  15  17
HETATM   17  C5  UNL     1      34.096   6.336   3.837  1.00  0.00     0.152 A 
HETATM   18  C4  UNL     1      33.379   5.344   4.499  1.00  0.00     0.127 A 
HETATM   19  N4  UNL     1      33.699   4.556   5.548  1.00  0.00    -0.302 N 
HETATM   20  C22 UNL     1      32.098   4.994   4.132  1.00  0.00     0.146 A 
HETATM   21  C3  UNL     1      32.660   3.770   5.798  1.00  0.00     0.331 A 
ATOM     22  H4  UNL     1      34.583   4.563   6.057  1.00  0.00     0.171 HD
HETATM   23  N3  UNL     1      31.645   4.008   4.943  1.00  0.00    -0.246 N 
HETATM   24  O2  UNL     1      32.616   2.906   6.715  1.00  0.00    -0.246 OA
HETATM   25  N12 UNL     1      31.552   5.646   3.103  1.00  0.00    -0.336 N 
HETATM   26  C21 UNL     1      32.232   6.605   2.454  1.00  0.00     0.183 A 
ATOM     27  H12 UNL     1      30.605   5.412   2.805  1.00  0.00     0.168 HD
HETATM   28  N11 UNL     1      33.479   6.939   2.818  1.00  0.00    -0.336 N 
ATOM     29  H11 UNL     1      33.969   7.672   2.304  1.00  0.00     0.168 HD
BRANCH  23  30
HETATM   30  C2  UNL     1      30.337   3.347   4.900  1.00  0.00     0.331 C 
HETATM   31  C1  UNL     1      30.081   2.695   3.613  1.00  0.00     0.289 C 
HETATM   32  N2  UNL     1      28.872   3.224   3.108  1.00  0.00    -0.232 N 
HETATM   33  O1  UNL     1      30.790   1.835   3.062  1.00  0.00    -0.267 OA
HETATM   34  C23 UNL     1      28.432   4.212   4.071  1.00  0.00     0.273 C 
HETATM   35  O12 UNL     1      29.383   4.320   5.047  1.00  0.00    -0.329 OA
BRANCH  32  36
HETATM   36  N1  UNL     1      28.172   2.926   1.948  1.00  0.00    -0.338 N 
ATOM     37  H12 UNL     1      28.599   2.924   1.022  1.00  0.00     0.177 HD
ATOM     38  H11 UNL     1      27.193   2.677   1.810  1.00  0.00     0.177 HD
ENDBRANCH  32  36
BRANCH  34  39
HETATM   39  C24 UNL     1      27.107   3.833   4.698  1.00  0.00     0.219 C 
BRANCH  39  40
HETATM   40  O13 UNL     1      27.054   4.386   5.976  1.00  0.00    -0.397 OA
ATOM     41  H13 UNL     1      26.702   3.733   6.569  1.00  0.00     0.209 HD
ENDBRANCH  39  40
ENDBRANCH  34  39
ENDBRANCH  23  30
ENDBRANCH  15  17
ENDBRANCH  13  15
ENDBRANCH   1  13
BRANCH   9  42
HETATM   42  C10 UNL     1      35.601   9.707   1.631  1.00  0.00     0.265 C 
HETATM   43  O3  UNL     1      34.789  10.775   1.248  1.00  0.00    -0.353 OA
HETATM   44  C11 UNL     1      34.631  10.780  -0.104  1.00  0.00     0.179 C 
HETATM   45  C13 UNL     1      35.131   9.486  -0.657  1.00  0.00     0.182 C 
HETATM   46  C14 UNL     1      36.207   9.135   0.383  1.00  0.00     0.198 C 
BRANCH  44  47
HETATM   47  C12 UNL     1      33.188  11.058  -0.465  1.00  0.00     0.198 C 
BRANCH  47  48
HETATM   48  O4  UNL     1      32.840  10.622  -1.715  1.00  0.00    -0.398 OA
ATOM     49  H4  UNL     1      32.218   9.904  -1.709  1.00  0.00     0.209 HD
ENDBRANCH  47  48
ENDBRANCH  44  47
BRANCH  45  50
HETATM   50  O5  UNL     1      34.186   8.466  -0.629  1.00  0.00    -0.390 OA
ATOM     51  H5  UNL     1      34.550   7.617  -0.408  1.00  0.00     0.210 HD
ENDBRANCH  45  50
BRANCH  46  52
HETATM   52  O6  UNL     1      37.420   9.707   0.055  1.00  0.00    -0.388 OA
ATOM     53  H6  UNL     1      37.646   9.608  -0.863  1.00  0.00     0.210 HD
ENDBRANCH  46  52
ENDBRANCH   9  42
BRANCH  12  54
HETATM   54  C16 UNL     1      38.786  12.726   3.867  1.00  0.00     0.266 C 
HETATM   55  O8  UNL     1      39.864  12.469   4.719  1.00  0.00    -0.353 OA
HETATM   56  C17 UNL     1      40.308  13.730   5.043  1.00  0.00     0.179 C 
HETATM   57  C19 UNL     1      39.108  14.574   5.308  1.00  0.00     0.182 C 
HETATM   58  C20 UNL     1      37.991  13.726   4.687  1.00  0.00     0.198 C 
BRANCH  56  59
HETATM   59  C18 UNL     1      41.295  13.726   6.186  1.00  0.00     0.198 C 
BRANCH  59  60
HETATM   60  O9  UNL     1      41.645  14.986   6.598  1.00  0.00    -0.398 OA
ATOM     61  H9  UNL     1      41.745  15.055   7.540  1.00  0.00     0.209 HD
ENDBRANCH  59  60
ENDBRANCH  56  59
BRANCH  57  62
HETATM   62  O10 UNL     1      38.800  14.739   6.636  1.00  0.00    -0.390 OA
ATOM     63  H10 UNL     1      38.975  15.606   6.982  1.00  0.00     0.210 HD
ENDBRANCH  57  62
BRANCH  58  64
HETATM   64  O11 UNL     1      37.311  13.008   5.666  1.00  0.00    -0.388 OA
ATOM     65  H11 UNL     1      37.448  13.457   6.491  1.00  0.00     0.210 HD
ENDBRANCH  58  64
ENDBRANCH  12  54
TORSDOF 17
ENDMDL
MODEL 3
REMARK VINA RESULT: -6.064055091      2.884      5.424
REMARK  17 active torsions:
REMARK  status: ('A' for Active; 'I' for Inactive)
REMARK    1  A    between atoms: N1_1  and  N2_4 
REMARK    2  A    between atoms: C2_7  and  N3_8 
REMARK    3  A    between atoms: C5_14  and  N5_15 
REMARK    4  A    between atoms: N5_15  and  N6_17 
REMARK    5  A    between atoms: N6_17  and  C6_19 
REMARK    6  A    between atoms: N9_27  and  C10_28 
REMARK    7  A    between atoms: C11_30  and  C12_31 
REMARK    8  A    between atoms: C12_31  and  O4_32 
REMARK    9  A    between atoms: C13_34  and  O5_35 
REMARK   10  A    between atoms: C14_37  and  O6_38 
REMARK   11  A    between atoms: N10_42  and  C16_43 
REMARK   12  A    between atoms: C17_45  and  C18_46 
REMARK   13  A    between atoms: C18_46  and  O9_47 
REMARK   14  A    between atoms: C19_49  and  O10_50 
REMARK   15  A    between atoms: C20_52  and  O11_53 
REMARK   16  A    between atoms: C23_62  and  C24_63 
REMARK   17  A    between atoms: C24_63  and  O13_64 
ROOT
HETATM    1  C6  UNL     1      27.464   3.915   4.785  1.00  0.00     0.152 A 
HETATM    2  N7  UNL     1      26.688   3.974   5.873  1.00  0.00    -0.336 N 
ATOM      3  H7  UNL     1      27.118   4.183   6.775  1.00  0.00     0.168 HD
HETATM    4  C7  UNL     1      25.364   3.768   5.817  1.00  0.00     0.183 A 
HETATM    5  N8  UNL     1      24.760   3.493   4.658  1.00  0.00    -0.336 N 
ATOM      6  H8  UNL     1      23.752   3.340   4.629  1.00  0.00     0.168 HD
HETATM    7  C8  UNL     1      25.484   3.420   3.536  1.00  0.00     0.146 A 
HETATM    8  C9  UNL     1      26.874   3.633   3.573  1.00  0.00     0.131 A 
HETATM    9  N9  UNL     1      27.345   3.503   2.326  1.00  0.00    -0.262 N 
HETATM   10  C15 UNL     1      26.281   3.219   1.540  1.00  0.00     0.335 A 
HETATM   11  O7  UNL     1      26.379   3.036   0.305  1.00  0.00    -0.246 OA
HETATM   12  N10 UNL     1      25.164   3.169   2.267  1.00  0.00    -0.252 N 
ENDROOT
BRANCH   1  13
HETATM   13  N6  UNL     1      28.719   4.114   4.860  1.00  0.00    -0.282 N 
ATOM     14  H6  UNL     1      29.044   5.064   5.038  1.00  0.00     0.188 HD
BRANCH  13  15
HETATM   15  N5  UNL     1      29.673   3.115   4.716  1.00  0.00    -0.282 N 
ATOM     16  H5  UNL     1      29.454   2.335   4.096  1.00  0.00     0.188 HD
BRANCH  15  17
HETATM   17  C5  UNL     1      30.798   3.108   5.303  1.00  0.00     0.152 A 
HETATM   18  C4  UNL     1      31.757   4.052   4.948  1.00  0.00     0.127 A 
HETATM   19  N4  UNL     1      31.737   5.051   4.039  1.00  0.00    -0.302 N 
HETATM   20  C22 UNL     1      32.997   4.099   5.545  1.00  0.00     0.146 A 
HETATM   21  C3  UNL     1      32.910   5.669   4.089  1.00  0.00     0.331 A 
ATOM     22  H4  UNL     1      30.959   5.288   3.424  1.00  0.00     0.171 HD
HETATM   23  N3  UNL     1      33.723   5.111   5.009  1.00  0.00    -0.246 N 
HETATM   24  O2  UNL     1      33.235   6.653   3.370  1.00  0.00    -0.246 OA
HETATM   25  N12 UNL     1      33.260   3.197   6.493  1.00  0.00    -0.336 N 
HETATM   26  C21 UNL     1      32.345   2.280   6.846  1.00  0.00     0.183 A 
ATOM     27  H12 UNL     1      34.170   3.205   6.956  1.00  0.00     0.168 HD
HETATM   28  N11 UNL     1      31.139   2.241   6.259  1.00  0.00    -0.336 N 
ATOM     29  H11 UNL     1      30.467   1.531   6.550  1.00  0.00     0.168 HD
BRANCH  23  30
HETATM   30  C2  UNL     1      35.090   5.510   5.355  1.00  0.00     0.331 C 
HETATM   31  C1  UNL     1      36.100   4.758   4.606  1.00  0.00     0.289 C 
HETATM   32  N2  UNL     1      36.956   4.148   5.550  1.00  0.00    -0.232 N 
HETATM   33  O1  UNL     1      36.194   4.669   3.369  1.00  0.00    -0.267 OA
HETATM   34  C23 UNL     1      36.434   4.504   6.854  1.00  0.00     0.273 C 
HETATM   35  O12 UNL     1      35.279   5.213   6.680  1.00  0.00    -0.329 OA
BRANCH  32  36
HETATM   36  N1  UNL     1      38.082   3.359   5.370  1.00  0.00    -0.338 N 
ATOM     37  H12 UNL     1      38.307   2.899   4.488  1.00  0.00     0.177 HD
ATOM     38  H11 UNL     1      38.828   3.109   6.019  1.00  0.00     0.177 HD
ENDBRANCH  32  36
BRANCH  34  39
HETATM   39  C24 UNL     1      37.421   5.336   7.645  1.00  0.00     0.219 C 
BRANCH  39  40
HETATM   40  O13 UNL     1      37.065   5.274   8.991  1.00  0.00    -0.397 OA
ATOM     41  H13 UNL     1      37.862   5.255   9.509  1.00  0.00     0.209 HD
ENDBRANCH  39  40
ENDBRANCH  34  39
ENDBRANCH  23  30
ENDBRANCH  15  17
ENDBRANCH  13  15
ENDBRANCH   1  13
BRANCH   9  42
HETATM   42  C10 UNL     1      28.712   3.635   1.882  1.00  0.00     0.265 C 
HETATM   43  O3  UNL     1      28.957   2.691   0.885  1.00  0.00    -0.353 OA
HETATM   44  C11 UNL     1      29.604   3.276  -0.161  1.00  0.00     0.179 C 
HETATM   45  C13 UNL     1      30.076   4.630   0.254  1.00  0.00     0.182 C 
HETATM   46  C14 UNL     1      29.013   4.987   1.304  1.00  0.00     0.198 C 
BRANCH  44  47
HETATM   47  C12 UNL     1      30.724   2.384  -0.652  1.00  0.00     0.198 C 
BRANCH  47  48
HETATM   48  O4  UNL     1      31.414   1.764   0.355  1.00  0.00    -0.398 OA
ATOM     49  H4  UNL     1      30.934   1.718   1.173  1.00  0.00     0.209 HD
ENDBRANCH  47  48
ENDBRANCH  44  47
BRANCH  45  50
HETATM   50  O5  UNL     1      31.305   4.616   0.904  1.00  0.00    -0.390 OA
ATOM     51  H5  UNL     1      32.031   4.372   0.341  1.00  0.00     0.210 HD
ENDBRANCH  45  50
BRANCH  46  52
HETATM   52  O6  UNL     1      27.915   5.585   0.716  1.00  0.00    -0.388 OA
ATOM     53  H6  UNL     1      27.595   6.337   1.200  1.00  0.00     0.210 HD
ENDBRANCH  46  52
ENDBRANCH   9  42
BRANCH  12  54
HETATM   54  C16 UNL     1      23.847   2.887   1.720  1.00  0.00     0.266 C 
HETATM   55  O8  UNL     1      22.823   3.345   2.556  1.00  0.00    -0.353 OA
HETATM   56  C17 UNL     1      21.696   2.790   1.994  1.00  0.00     0.179 C 
HETATM   57  C19 UNL     1      22.023   1.382   1.629  1.00  0.00     0.182 C 
HETATM   58  C20 UNL     1      23.556   1.397   1.684  1.00  0.00     0.198 C 
BRANCH  56  59
HETATM   59  C18 UNL     1      20.483   2.905   2.887  1.00  0.00     0.198 C 
BRANCH  59  60
HETATM   60  O9  UNL     1      20.782   2.774   4.219  1.00  0.00    -0.398 OA
ATOM     61  H9  UNL     1      20.021   2.860   4.781  1.00  0.00     0.209 HD
ENDBRANCH  59  60
ENDBRANCH  56  59
BRANCH  57  62
HETATM   62  O10 UNL     1      21.595   0.437   2.529  1.00  0.00    -0.390 OA
ATOM     63  H10 UNL     1      22.085   0.408   3.342  1.00  0.00     0.210 HD
ENDBRANCH  57  62
BRANCH  58  64
HETATM   64  O11 UNL     1      24.014   0.858   2.883  1.00  0.00    -0.388 OA
ATOM     65  H11 UNL     1      23.318   0.314   3.231  1.00  0.00     0.210 HD
ENDBRANCH  58  64
ENDBRANCH  12  54
TORSDOF 17
ENDMDL
MODEL 4
REMARK VINA RESULT: -6.056606569      3.105      5.587
REMARK  17 active torsions:
REMARK  status: ('A' for Active; 'I' for Inactive)
REMARK    1  A    between atoms: N1_1  and  N2_4 
REMARK    2  A    between atoms: C2_7  and  N3_8 
REMARK    3  A    between atoms: C5_14  and  N5_15 
REMARK    4  A    between atoms: N5_15  and  N6_17 
REMARK    5  A    between atoms: N6_17  and  C6_19 
REMARK    6  A    between atoms: N9_27  and  C10_28 
REMARK    7  A    between atoms: C11_30  and  C12_31 
REMARK    8  A    between atoms: C12_31  and  O4_32 
REMARK    9  A    between atoms: C13_34  and  O5_35 
REMARK   10  A    between atoms: C14_37  and  O6_38 
REMARK   11  A    between atoms: N10_42  and  C16_43 
REMARK   12  A    between atoms: C17_45  and  C18_46 
REMARK   13  A    between atoms: C18_46  and  O9_47 
REMARK   14  A    between atoms: C19_49  and  O10_50 
REMARK   15  A    between atoms: C20_52  and  O11_53 
REMARK   16  A    between atoms: C23_62  and  C24_63 
REMARK   17  A    between atoms: C24_63  and  O13_64 
ROOT
HETATM    1  C6  UNL     1      26.934   3.389   4.453  1.00  0.00     0.152 A 
HETATM    2  N7  UNL     1      26.003   3.734   5.348  1.00  0.00    -0.336 N 
ATOM      3  H7  UNL     1      26.154   4.563   5.923  1.00  0.00     0.168 HD
HETATM    4  C7  UNL     1      24.875   3.026   5.514  1.00  0.00     0.183 A 
HETATM    5  N8  UNL     1      24.636   1.934   4.782  1.00  0.00    -0.336 N 
ATOM      6  H8  UNL     1      23.775   1.405   4.918  1.00  0.00     0.168 HD
HETATM    7  C8  UNL     1      25.531   1.539   3.871  1.00  0.00     0.146 A 
HETATM    8  C9  UNL     1      26.720   2.268   3.682  1.00  0.00     0.131 A 
HETATM    9  N9  UNL     1      27.427   1.660   2.720  1.00  0.00    -0.262 N 
HETATM   10  C15 UNL     1      26.701   0.589   2.327  1.00  0.00     0.335 A 
HETATM   11  O7  UNL     1      27.085  -0.199   1.432  1.00  0.00    -0.246 OA
HETATM   12  N10 UNL     1      25.564   0.516   3.017  1.00  0.00    -0.252 N 
ENDROOT
BRANCH   1  13
HETATM   13  N6  UNL     1      27.997   4.075   4.311  1.00  0.00    -0.282 N 
ATOM     14  H6  UNL     1      28.054   4.711   3.516  1.00  0.00     0.188 HD
BRANCH  13  15
HETATM   15  N5  UNL     1      29.083   4.010   5.173  1.00  0.00    -0.282 N 
ATOM     16  H5  UNL     1      28.899   3.815   6.157  1.00  0.00     0.188 HD
BRANCH  15  17
HETATM   17  C5  UNL     1      30.291   4.175   4.819  1.00  0.00     0.152 A 
HETATM   18  C4  UNL     1      31.311   3.695   5.634  1.00  0.00     0.127 A 
HETATM   19  N4  UNL     1      31.281   3.038   6.814  1.00  0.00    -0.302 N 
HETATM   20  C22 UNL     1      32.641   3.840   5.309  1.00  0.00     0.146 A 
HETATM   21  C3  UNL     1      32.534   2.801   7.179  1.00  0.00     0.331 A 
ATOM     22  H4  UNL     1      30.444   2.772   7.332  1.00  0.00     0.171 HD
HETATM   23  N3  UNL     1      33.411   3.282   6.275  1.00  0.00    -0.246 N 
HETATM   24  O2  UNL     1      32.874   2.204   8.237  1.00  0.00    -0.246 OA
HETATM   25  N12 UNL     1      32.932   4.468   4.167  1.00  0.00    -0.336 N 
HETATM   26  C21 UNL     1      31.959   4.937   3.370  1.00  0.00     0.183 A 
ATOM     27  H12 UNL     1      33.908   4.592   3.896  1.00  0.00     0.168 HD
HETATM   28  N11 UNL     1      30.665   4.791   3.694  1.00  0.00    -0.336 N 
ATOM     29  H11 UNL     1      29.949   5.160   3.067  1.00  0.00     0.168 HD
BRANCH  23  30
HETATM   30  C2  UNL     1      34.874   3.216   6.324  1.00  0.00     0.331 C 
HETATM   31  C1  UNL     1      35.471   4.427   6.891  1.00  0.00     0.289 C 
HETATM   32  N2  UNL     1      36.382   4.933   5.937  1.00  0.00    -0.232 N 
HETATM   33  O1  UNL     1      35.227   4.924   8.005  1.00  0.00    -0.267 OA
HETATM   34  C23 UNL     1      36.299   4.048   4.793  1.00  0.00     0.273 C 
HETATM   35  O12 UNL     1      35.322   3.123   5.032  1.00  0.00    -0.329 OA
BRANCH  32  36
HETATM   36  N1  UNL     1      37.225   6.034   5.989  1.00  0.00    -0.338 N 
ATOM     37  H12 UNL     1      37.834   6.236   6.782  1.00  0.00     0.177 HD
ATOM     38  H11 UNL     1      37.382   6.781   5.313  1.00  0.00     0.177 HD
ENDBRANCH  32  36
BRANCH  34  39
HETATM   39  C24 UNL     1      37.612   3.340   4.535  1.00  0.00     0.219 C 
BRANCH  39  40
HETATM   40  O13 UNL     1      38.494   4.252   3.959  1.00  0.00    -0.397 OA
ATOM     41  H13 UNL     1      39.379   4.002   4.197  1.00  0.00     0.209 HD
ENDBRANCH  39  40
ENDBRANCH  34  39
ENDBRANCH  23  30
ENDBRANCH  15  17
ENDBRANCH  13  15
ENDBRANCH   1  13
BRANCH   9  42
HETATM   42  C10 UNL     1      28.713   2.051   2.192  1.00  0.00     0.265 C 
HETATM   43  O3  UNL     1      29.448   0.903   1.895  1.00  0.00    -0.353 OA
HETATM   44  C11 UNL     1      30.016   1.019   0.663  1.00  0.00     0.179 C 
HETATM   45  C13 UNL     1      29.894   2.434   0.202  1.00  0.00     0.182 C 
HETATM   46  C14 UNL     1      28.608   2.855   0.929  1.00  0.00     0.198 C 
BRANCH  44  47
HETATM   47  C12 UNL     1      31.447   0.529   0.694  1.00  0.00     0.198 C 
BRANCH  47  48
HETATM   48  O4  UNL     1      32.122   0.879   1.832  1.00  0.00    -0.398 OA
ATOM     49  H4  UNL     1      33.041   0.640   1.818  1.00  0.00     0.209 HD
ENDBRANCH  47  48
ENDBRANCH  44  47
BRANCH  45  50
HETATM   50  O5  UNL     1      30.913   3.259   0.662  1.00  0.00    -0.390 OA
ATOM     51  H5  UNL     1      31.654   3.315   0.069  1.00  0.00     0.210 HD
ENDBRANCH  45  50
BRANCH  46  52
HETATM   52  O6  UNL     1      27.489   2.548   0.179  1.00  0.00    -0.388 OA
ATOM     53  H6  UNL     1      27.069   3.312  -0.197  1.00  0.00     0.210 HD
ENDBRANCH  46  52
ENDBRANCH   9  42
BRANCH  12  54
HETATM   54  C16 UNL     1      24.561  -0.521   2.833  1.00  0.00     0.266 C 
HETATM   55  O8  UNL     1      23.462  -0.344   3.679  1.00  0.00    -0.353 OA
HETATM   56  C17 UNL     1      22.762  -1.518   3.523  1.00  0.00     0.179 C 
HETATM   57  C19 UNL     1      23.750  -2.634   3.521  1.00  0.00     0.182 C 
HETATM   58  C20 UNL     1      25.065  -1.881   3.280  1.00  0.00     0.198 C 
BRANCH  56  59
HETATM   59  C18 UNL     1      21.674  -1.690   4.557  1.00  0.00     0.198 C 
BRANCH  59  60
HETATM   60  O9  UNL     1      22.038  -1.237   5.799  1.00  0.00    -0.398 OA
ATOM     61  H9  UNL     1      21.316  -1.226   6.416  1.00  0.00     0.209 HD
ENDBRANCH  59  60
ENDBRANCH  56  59
BRANCH  57  62
HETATM   62  O10 UNL     1      23.875  -3.296   4.718  1.00  0.00    -0.390 OA
ATOM     63  H10 UNL     1      24.491  -2.906   5.327  1.00  0.00     0.210 HD
ENDBRANCH  57  62
BRANCH  58  64
HETATM   64  O11 UNL     1      25.754  -1.694   4.474  1.00  0.00    -0.388 OA
ATOM     65  H11 UNL     1      25.461  -2.366   5.077  1.00  0.00     0.210 HD
ENDBRANCH  58  64
ENDBRANCH  12  54
TORSDOF 17
ENDMDL
MODEL 5
REMARK VINA RESULT: -6.024968882      3.131      5.750
REMARK  17 active torsions:
REMARK  status: ('A' for Active; 'I' for Inactive)
REMARK    1  A    between atoms: N1_1  and  N2_4 
REMARK    2  A    between atoms: C2_7  and  N3_8 
REMARK    3  A    between atoms: C5_14  and  N5_15 
REMARK    4  A    between atoms: N5_15  and  N6_17 
REMARK    5  A    between atoms: N6_17  and  C6_19 
REMARK    6  A    between atoms: N9_27  and  C10_28 
REMARK    7  A    between atoms: C11_30  and  C12_31 
REMARK    8  A    between atoms: C12_31  and  O4_32 
REMARK    9  A    between atoms: C13_34  and  O5_35 
REMARK   10  A    between atoms: C14_37  and  O6_38 
REMARK   11  A    between atoms: N10_42  and  C16_43 
REMARK   12  A    between atoms: C17_45  and  C18_46 
REMARK   13  A    between atoms: C18_46  and  O9_47 
REMARK   14  A    between atoms: C19_49  and  O10_50 
REMARK   15  A    between atoms: C20_52  and  O11_53 
REMARK   16  A    between atoms: C23_62  and  C24_63 
REMARK   17  A    between atoms: C24_63  and  O13_64 
ROOT
HETATM    1  C6  UNL     1      26.711   3.642   5.003  1.00  0.00     0.152 A 
HETATM    2  N7  UNL     1      25.994   4.024   6.065  1.00  0.00    -0.336 N 
ATOM      3  H7  UNL     1      26.377   4.733   6.690  1.00  0.00     0.168 HD
HETATM    4  C7  UNL     1      24.787   3.504   6.335  1.00  0.00     0.183 A 
HETATM    5  N8  UNL     1      24.247   2.573   5.543  1.00  0.00    -0.336 N 
ATOM      6  H8  UNL     1      23.328   2.187   5.759  1.00  0.00     0.168 HD
HETATM    7  C8  UNL     1      24.917   2.151   4.466  1.00  0.00     0.146 A 
HETATM    8  C9  UNL     1      26.185   2.684   4.166  1.00  0.00     0.131 A 
HETATM    9  N9  UNL     1      26.625   2.093   3.047  1.00  0.00    -0.262 N 
HETATM   10  C15 UNL     1      25.663   1.222   2.667  1.00  0.00     0.335 A 
HETATM   11  O7  UNL     1      25.764   0.502   1.647  1.00  0.00    -0.246 OA
HETATM   12  N10 UNL     1      24.638   1.257   3.518  1.00  0.00    -0.252 N 
ENDROOT
BRANCH   1  13
HETATM   13  N6  UNL     1      27.855   4.148   4.765  1.00  0.00    -0.282 N 
ATOM     14  H6  UNL     1      27.890   5.063   4.314  1.00  0.00     0.188 HD
BRANCH  13  15
HETATM   15  N5  UNL     1      29.057   3.531   5.081  1.00  0.00    -0.282 N 
ATOM     16  H5  UNL     1      29.019   2.644   5.583  1.00  0.00     0.188 HD
BRANCH  15  17
HETATM   17  C5  UNL     1      30.201   3.996   4.787  1.00  0.00     0.152 A 
HETATM   18  C4  UNL     1      31.284   3.711   5.613  1.00  0.00     0.127 A 
HETATM   19  N4  UNL     1      31.378   2.987   6.750  1.00  0.00    -0.302 N 
HETATM   20  C22 UNL     1      32.551   4.183   5.352  1.00  0.00     0.146 A 
HETATM   21  C3  UNL     1      32.642   3.024   7.151  1.00  0.00     0.331 A 
ATOM     22  H4  UNL     1      30.614   2.499   7.216  1.00  0.00     0.171 HD
HETATM   23  N3  UNL     1      33.405   3.755   6.314  1.00  0.00    -0.246 N 
HETATM   24  O2  UNL     1      33.085   2.451   8.184  1.00  0.00    -0.246 OA
HETATM   25  N12 UNL     1      32.717   4.936   4.262  1.00  0.00    -0.336 N 
HETATM   26  C21 UNL     1      31.681   5.220   3.456  1.00  0.00     0.183 A 
ATOM     27  H12 UNL     1      33.643   5.302   4.039  1.00  0.00     0.168 HD
HETATM   28  N11 UNL     1      30.450   4.756   3.718  1.00  0.00    -0.336 N 
ATOM     29  H11 UNL     1      29.684   4.990   3.085  1.00  0.00     0.168 HD
BRANCH  23  30
HETATM   30  C2  UNL     1      34.841   4.027   6.418  1.00  0.00     0.331 C 
HETATM   31  C1  UNL     1      35.654   2.820   6.256  1.00  0.00     0.289 C 
HETATM   32  N2  UNL     1      36.465   2.701   7.407  1.00  0.00    -0.232 N 
HETATM   33  O1  UNL     1      35.639   2.039   5.288  1.00  0.00    -0.267 OA
HETATM   34  C23 UNL     1      36.108   3.812   8.266  1.00  0.00     0.273 C 
HETATM   35  O12 UNL     1      35.077   4.495   7.685  1.00  0.00    -0.329 OA
BRANCH  32  36
HETATM   36  N1  UNL     1      37.428   1.760   7.739  1.00  0.00    -0.338 N 
ATOM     37  H12 UNL     1      37.952   1.227   7.045  1.00  0.00     0.177 HD
ATOM     38  H11 UNL     1      37.766   1.449   8.649  1.00  0.00     0.177 HD
ENDBRANCH  32  36
BRANCH  34  39
HETATM   39  C24 UNL     1      37.276   4.751   8.482  1.00  0.00     0.219 C 
BRANCH  39  40
HETATM   40  O13 UNL     1      37.389   5.001   9.848  1.00  0.00    -0.397 OA
ATOM     41  H13 UNL     1      37.896   5.796   9.965  1.00  0.00     0.209 HD
ENDBRANCH  39  40
ENDBRANCH  34  39
ENDBRANCH  23  30
ENDBRANCH  15  17
ENDBRANCH  13  15
ENDBRANCH   1  13
BRANCH   9  42
HETATM   42  C10 UNL     1      27.876   2.322   2.364  1.00  0.00     0.265 C 
HETATM   43  O3  UNL     1      28.294   1.129   1.772  1.00  0.00    -0.353 OA
HETATM   44  C11 UNL     1      28.692   1.360   0.490  1.00  0.00     0.179 C 
HETATM   45  C13 UNL     1      28.816   2.832   0.276  1.00  0.00     0.182 C 
HETATM   46  C14 UNL     1      27.770   3.349   1.275  1.00  0.00     0.198 C 
BRANCH  44  47
HETATM   47  C12 UNL     1      29.971   0.609   0.193  1.00  0.00     0.198 C 
BRANCH  47  48
HETATM   48  O4  UNL     1      30.859   0.602   1.235  1.00  0.00    -0.398 OA
ATOM     49  H4  UNL     1      31.767   0.643   0.962  1.00  0.00     0.209 HD
ENDBRANCH  47  48
ENDBRANCH  44  47
BRANCH  45  50
HETATM   50  O5  UNL     1      30.046   3.349   0.667  1.00  0.00    -0.390 OA
ATOM     51  H5  UNL     1      30.741   3.196   0.037  1.00  0.00     0.210 HD
ENDBRANCH  45  50
BRANCH  46  52
HETATM   52  O6  UNL     1      26.516   3.405   0.698  1.00  0.00    -0.388 OA
ATOM     53  H6  UNL     1      26.433   4.090   0.046  1.00  0.00     0.210 HD
ENDBRANCH  46  52
ENDBRANCH   9  42
BRANCH  12  54
HETATM   54  C16 UNL     1      23.442   0.440   3.391  1.00  0.00     0.266 C 
HETATM   55  O8  UNL     1      22.650   0.487   4.543  1.00  0.00    -0.353 OA
HETATM   56  C17 UNL     1      21.721  -0.502   4.317  1.00  0.00     0.179 C 
HETATM   57  C19 UNL     1      22.442  -1.675   3.745  1.00  0.00     0.182 C 
HETATM   58  C20 UNL     1      23.772  -1.040   3.317  1.00  0.00     0.198 C 
BRANCH  56  59
HETATM   59  C18 UNL     1      20.920  -0.843   5.552  1.00  0.00     0.198 C 
BRANCH  59  60
HETATM   60  O9  UNL     1      21.659  -0.775   6.706  1.00  0.00    -0.398 OA
ATOM     61  H9  UNL     1      21.248  -1.222   7.436  1.00  0.00     0.209 HD
ENDBRANCH  59  60
ENDBRANCH  56  59
BRANCH  57  62
HETATM   62  O10 UNL     1      22.740  -2.666   4.647  1.00  0.00    -0.390 OA
ATOM     63  H10 UNL     1      22.081  -3.346   4.725  1.00  0.00     0.210 HD
ENDBRANCH  57  62
BRANCH  58  64
HETATM   64  O11 UNL     1      24.766  -1.288   4.258  1.00  0.00    -0.388 OA
ATOM     65  H11 UNL     1      24.332  -1.526   5.069  1.00  0.00     0.210 HD
ENDBRANCH  58  64
ENDBRANCH  12  54
TORSDOF 17
ENDMDL
