MODEL 1
REMARK VINA RESULT: -8.399940975      0.000      0.000
REMARK  2 active torsions:
REMARK  status: ('A' for Active; 'I' for Inactive)
REMARK    1  A    between atoms: C3_3  and  C4_4 
REMARK    2  A    between atoms: C4_4  and  O1_5 
ROOT
HETATM    1  C1  UNL     1       1.366  66.146  69.253  1.00  0.00     0.012 C 
HETATM    2  C2  UNL     1       1.051  66.964  68.407  1.00  0.00    -0.114 C 
HETATM    3  C3  UNL     1       0.690  67.948  67.410  1.00  0.00     0.144 C 
ENDROOT
BRANCH   3   4
HETATM    4  C4  UNL     1       0.799  67.402  65.996  1.00  0.00     0.131 C 
HETATM    5  C5  UNL     1       2.075  66.834  65.727  1.00  0.00    -0.063 C 
HETATM    6  C6  UNL     1       3.081  66.407  65.491  1.00  0.00    -0.075 C 
HETATM    7  C7  UNL     1       4.345  65.896  65.162  1.00  0.00     0.064 C 
HETATM    8  C8  UNL     1       5.373  66.944  64.901  1.00  0.00     0.007 C 
HETATM    9  C9  UNL     1       5.662  67.512  63.759  1.00  0.00     0.006 C 
HETATM   10  C10 UNL     1       5.070  67.289  62.423  1.00  0.00     0.211 A 
HETATM   11  C11 UNL     1       4.596  68.634  61.842  1.00  0.00     0.070 A 
HETATM   12  N1  UNL     1       3.738  66.819  62.380  1.00  0.00    -0.063 N 
HETATM   13  C12 UNL     1       3.262  67.996  61.735  1.00  0.00     0.189 A 
HETATM   14  C13 UNL     1       2.162  68.717  62.522  1.00  0.00     0.033 C 
HETATM   15  C14 UNL     1       1.046  67.758  62.703  1.00  0.00     0.002 C 
HETATM   16  C15 UNL     1       0.006  68.096  63.707  1.00  0.00     0.004 C 
HETATM   17  C16 UNL     1       0.470  68.556  65.038  1.00  0.00     0.052 C 
ATOM     18  H12 UNL     1       3.553  65.914  61.947  1.00  0.00     0.278 HD
ATOM     19  H11 UNL     1       3.295  66.523  63.250  1.00  0.00     0.278 HD
BRANCH   4  20
HETATM   20  O1  UNL     1      -0.167  66.390  65.897  1.00  0.00    -0.377 OA
ATOM     21  H1  UNL     1      -0.426  66.363  64.983  1.00  0.00     0.211 HD
ENDBRANCH   4  20
ENDBRANCH   3   4
TORSDOF 2
ENDMDL
MODEL 2
REMARK VINA RESULT: -8.200448243      0.728      1.095
REMARK  2 active torsions:
REMARK  status: ('A' for Active; 'I' for Inactive)
REMARK    1  A    between atoms: C3_3  and  C4_4 
REMARK    2  A    between atoms: C4_4  and  O1_5 
ROOT
HETATM    1  C1  UNL     1       2.256  69.891  67.899  1.00  0.00     0.012 C 
HETATM    2  C2  UNL     1       1.489  68.976  67.659  1.00  0.00    -0.114 C 
HETATM    3  C3  UNL     1       0.563  67.901  67.380  1.00  0.00     0.144 C 
ENDROOT
BRANCH   3   4
HETATM    4  C4  UNL     1       0.698  67.378  65.960  1.00  0.00     0.131 C 
HETATM    5  C5  UNL     1       1.973  66.799  65.710  1.00  0.00    -0.063 C 
HETATM    6  C6  UNL     1       2.979  66.364  65.488  1.00  0.00    -0.075 C 
HETATM    7  C7  UNL     1       4.245  65.844  65.180  1.00  0.00     0.064 C 
HETATM    8  C8  UNL     1       5.290  66.884  64.961  1.00  0.00     0.007 C 
HETATM    9  C9  UNL     1       5.612  67.469  63.835  1.00  0.00     0.006 C 
HETATM   10  C10 UNL     1       5.048  67.275  62.483  1.00  0.00     0.211 A 
HETATM   11  C11 UNL     1       4.604  68.635  61.915  1.00  0.00     0.070 A 
HETATM   12  N1  UNL     1       3.713  66.822  62.402  1.00  0.00    -0.063 N 
HETATM   13  C12 UNL     1       3.265  68.016  61.766  1.00  0.00     0.189 A 
HETATM   14  C13 UNL     1       2.155  68.736  62.541  1.00  0.00     0.033 C 
HETATM   15  C14 UNL     1       1.024  67.788  62.679  1.00  0.00     0.002 C 
HETATM   16  C15 UNL     1      -0.034  68.121  63.665  1.00  0.00     0.004 C 
HETATM   17  C16 UNL     1       0.404  68.552  65.014  1.00  0.00     0.052 C 
ATOM     18  H12 UNL     1       3.527  65.927  61.949  1.00  0.00     0.278 HD
ATOM     19  H11 UNL     1       3.246  66.517  63.256  1.00  0.00     0.278 HD
BRANCH   4  20
HETATM   20  O1  UNL     1      -0.277  66.379  65.820  1.00  0.00    -0.377 OA
ATOM     21  H1  UNL     1      -0.092  65.945  64.996  1.00  0.00     0.211 HD
ENDBRANCH   4  20
ENDBRANCH   3   4
TORSDOF 2
ENDMDL
MODEL 3
REMARK VINA RESULT: -7.823529248      2.096      4.405
REMARK  2 active torsions:
REMARK  status: ('A' for Active; 'I' for Inactive)
REMARK    1  A    between atoms: C3_3  and  C4_4 
REMARK    2  A    between atoms: C4_4  and  O1_5 
ROOT
HETATM    1  C1  UNL     1       5.969  70.230  66.057  1.00  0.00     0.012 C 
HETATM    2  C2  UNL     1       6.039  69.096  65.615  1.00  0.00    -0.114 C 
HETATM    3  C3  UNL     1       6.134  67.746  65.106  1.00  0.00     0.144 C 
ENDROOT
BRANCH   3   4
HETATM    4  C4  UNL     1       4.768  67.127  64.859  1.00  0.00     0.131 C 
HETATM    5  C5  UNL     1       4.419  67.107  63.480  1.00  0.00    -0.063 C 
HETATM    6  C6  UNL     1       4.117  67.107  62.403  1.00  0.00    -0.075 C 
HETATM    7  C7  UNL     1       3.704  67.128  61.063  1.00  0.00     0.064 C 
HETATM    8  C8  UNL     1       3.250  68.466  60.589  1.00  0.00     0.007 C 
HETATM    9  C9  UNL     1       2.039  68.960  60.634  1.00  0.00     0.006 C 
HETATM   10  C10 UNL     1       0.796  68.352  61.153  1.00  0.00     0.211 A 
HETATM   11  C11 UNL     1       0.154  69.301  62.181  1.00  0.00     0.070 A 
HETATM   12  N1  UNL     1       0.931  67.373  62.162  1.00  0.00    -0.063 N 
HETATM   13  C12 UNL     1       0.240  68.162  63.126  1.00  0.00     0.189 A 
HETATM   14  C13 UNL     1       1.072  68.455  64.380  1.00  0.00     0.033 C 
HETATM   15  C14 UNL     1       1.449  67.151  64.977  1.00  0.00     0.002 C 
HETATM   16  C15 UNL     1       2.522  67.149  66.002  1.00  0.00     0.004 C 
HETATM   17  C16 UNL     1       3.753  67.917  65.698  1.00  0.00     0.052 C 
ATOM     18  H12 UNL     1       0.599  66.428  61.974  1.00  0.00     0.278 HD
ATOM     19  H11 UNL     1       1.865  67.029  62.389  1.00  0.00     0.278 HD
BRANCH   4  20
HETATM   20  O1  UNL     1       4.856  65.802  65.313  1.00  0.00    -0.377 OA
ATOM     21  H1  UNL     1       5.603  65.421  64.865  1.00  0.00     0.211 HD
ENDBRANCH   4  20
ENDBRANCH   3   4
TORSDOF 2
ENDMDL
MODEL 4
REMARK VINA RESULT: -7.301871718      2.147      3.672
REMARK  2 active torsions:
REMARK  status: ('A' for Active; 'I' for Inactive)
REMARK    1  A    between atoms: C3_3  and  C4_4 
REMARK    2  A    between atoms: C4_4  and  O1_5 
ROOT
HETATM    1  C1  UNL     1      -2.193  68.236  64.349  1.00  0.00     0.012 C 
HETATM    2  C2  UNL     1      -1.490  68.590  63.420  1.00  0.00    -0.114 C 
HETATM    3  C3  UNL     1      -0.655  69.030  62.323  1.00  0.00     0.144 C 
ENDROOT
BRANCH   3   4
HETATM    4  C4  UNL     1       0.593  68.175  62.172  1.00  0.00     0.131 C 
HETATM    5  C5  UNL     1       1.268  67.970  63.407  1.00  0.00    -0.063 C 
HETATM    6  C6  UNL     1       1.825  67.821  64.365  1.00  0.00    -0.075 C 
HETATM    7  C7  UNL     1       2.558  67.649  65.548  1.00  0.00     0.064 C 
HETATM    8  C8  UNL     1       3.353  68.844  65.948  1.00  0.00     0.007 C 
HETATM    9  C9  UNL     1       4.582  69.135  65.610  1.00  0.00     0.006 C 
HETATM   10  C10 UNL     1       5.523  68.384  64.753  1.00  0.00     0.211 A 
HETATM   11  C11 UNL     1       6.048  69.306  63.638  1.00  0.00     0.070 A 
HETATM   12  N1  UNL     1       4.962  67.538  63.770  1.00  0.00    -0.063 N 
HETATM   13  C12 UNL     1       5.521  68.290  62.696  1.00  0.00     0.189 A 
HETATM   14  C13 UNL     1       4.469  68.830  61.722  1.00  0.00     0.033 C 
HETATM   15  C14 UNL     1       3.723  67.667  61.184  1.00  0.00     0.002 C 
HETATM   16  C15 UNL     1       2.445  67.936  60.479  1.00  0.00     0.004 C 
HETATM   17  C16 UNL     1       1.491  68.863  61.133  1.00  0.00     0.052 C 
ATOM     18  H12 UNL     1       5.153  66.538  63.819  1.00  0.00     0.278 HD
ATOM     19  H11 UNL     1       3.956  67.374  63.781  1.00  0.00     0.278 HD
BRANCH   4  20
HETATM   20  O1  UNL     1       0.154  66.931  61.695  1.00  0.00    -0.377 OA
ATOM     21  H1  UNL     1      -0.790  67.002  61.606  1.00  0.00     0.211 HD
ENDBRANCH   4  20
ENDBRANCH   3   4
TORSDOF 2
ENDMDL
MODEL 5
REMARK VINA RESULT: -7.266344596      3.272      5.377
REMARK  2 active torsions:
REMARK  status: ('A' for Active; 'I' for Inactive)
REMARK    1  A    between atoms: C3_3  and  C4_4 
REMARK    2  A    between atoms: C4_4  and  O1_5 
ROOT
HETATM    1  C1  UNL     1       4.538  61.091  71.495  1.00  0.00     0.012 C 
HETATM    2  C2  UNL     1       4.642  61.941  70.628  1.00  0.00    -0.114 C 
HETATM    3  C3  UNL     1       4.779  62.938  69.590  1.00  0.00     0.144 C 
ENDROOT
BRANCH   3   4
HETATM    4  C4  UNL     1       3.434  63.377  69.033  1.00  0.00     0.131 C 
HETATM    5  C5  UNL     1       3.522  63.831  67.688  1.00  0.00    -0.063 C 
HETATM    6  C6  UNL     1       3.578  64.216  66.639  1.00  0.00    -0.075 C 
HETATM    7  C7  UNL     1       3.631  64.734  65.337  1.00  0.00     0.064 C 
HETATM    8  C8  UNL     1       4.182  66.116  65.256  1.00  0.00     0.007 C 
HETATM    9  C9  UNL     1       3.524  67.244  65.332  1.00  0.00     0.006 C 
HETATM   10  C10 UNL     1       2.076  67.476  65.516  1.00  0.00     0.211 A 
HETATM   11  C11 UNL     1       1.856  68.411  66.718  1.00  0.00     0.070 A 
HETATM   12  N1  UNL     1       1.343  66.469  66.183  1.00  0.00    -0.063 N 
HETATM   13  C12 UNL     1       1.010  67.326  67.271  1.00  0.00     0.189 A 
HETATM   14  C13 UNL     1       1.485  66.796  68.629  1.00  0.00     0.033 C 
HETATM   15  C14 UNL     1       0.860  65.466  68.829  1.00  0.00     0.002 C 
HETATM   16  C15 UNL     1       1.411  64.603  69.903  1.00  0.00     0.004 C 
HETATM   17  C16 UNL     1       2.886  64.461  69.972  1.00  0.00     0.052 C 
ATOM     18  H12 UNL     1       0.590  65.998  65.681  1.00  0.00     0.278 HD
ATOM     19  H11 UNL     1       1.802  65.580  66.382  1.00  0.00     0.278 HD
BRANCH   4  20
HETATM   20  O1  UNL     1       2.614  62.239  69.063  1.00  0.00    -0.377 OA
ATOM     21  H1  UNL     1       3.173  61.506  68.834  1.00  0.00     0.211 HD
ENDBRANCH   4  20
ENDBRANCH   3   4
TORSDOF 2
ENDMDL
