MODEL 1
REMARK VINA RESULT: -8.896845152      0.000      0.000
REMARK  5 active torsions:
REMARK  status: ('A' for Active; 'I' for Inactive)
REMARK    1  A    between atoms: C4_4  and  C5_5 
REMARK    2  A    between atoms: C6_6  and  C7_7 
REMARK    3  A    between atoms: C7_7  and  N1_8 
REMARK    4  A    between atoms: C7_7  and  C8_13 
REMARK    5  A    between atoms: C9_14  and  C10_15 
ROOT
HETATM    1  C1  UNL     1      -0.024  61.888  71.787  1.00  0.00     0.027 C 
HETATM    2  C2  UNL     1       0.149  62.884  71.129  1.00  0.00    -0.025 C 
HETATM    3  C3  UNL     1       0.338  64.051  70.356  1.00  0.00    -0.002 C 
HETATM    4  C4  UNL     1       0.482  65.041  69.685  1.00  0.00    -0.001 C 
ENDROOT
BRANCH   4   5
HETATM    5  C5  UNL     1       0.634  66.187  68.886  1.00  0.00    -0.007 C 
HETATM    6  C6  UNL     1       0.744  67.193  68.192  1.00  0.00    -0.032 C 
BRANCH   6   7
HETATM    7  C7  UNL     1       0.856  68.401  67.384  1.00  0.00     0.119 C 
BRANCH   7   8
HETATM    8  N1  UNL     1       1.191  69.451  67.941  1.00  0.00    -0.298 N 
HETATM    9  N2  UNL     1       1.927  70.295  68.547  1.00  0.00    -0.344 N 
ATOM     10  H22 UNL     1       2.770  69.722  68.592  1.00  0.00     0.176 HD
ATOM     11  H21 UNL     1       2.205  71.162  69.006  1.00  0.00     0.176 HD
ATOM     12  H1  UNL     1       0.323  69.982  67.868  1.00  0.00     0.187 HD
ENDBRANCH   7   8
BRANCH   7  13
HETATM   13  C8  UNL     1       0.553  68.304  65.977  1.00  0.00     0.095 A 
HETATM   14  C9  UNL     1       1.346  68.029  64.884  1.00  0.00     0.052 A 
HETATM   15  N3  UNL     1       0.489  68.024  63.813  1.00  0.00    -0.300 N 
HETATM   16  N4  UNL     1      -0.722  68.272  64.188  1.00  0.00    -0.266 N 
ATOM     17  H3  UNL     1       0.771  67.848  62.848  1.00  0.00     0.186 HD
HETATM   18  C14 UNL     1      -0.767  68.456  65.498  1.00  0.00     0.275 A 
ATOM     19  H4  UNL     1      -1.528  68.319  63.564  1.00  0.00     0.190 HD
HETATM   20  O1  UNL     1      -1.819  68.718  66.168  1.00  0.00    -0.266 OA
BRANCH  14  21
HETATM   21  C10 UNL     1       2.790  67.816  64.822  1.00  0.00    -0.006 C 
HETATM   22  C11 UNL     1       3.650  68.876  65.421  1.00  0.00     0.021 C 
HETATM   23  C12 UNL     1       3.254  66.456  65.282  1.00  0.00     0.021 C 
HETATM   24  C13 UNL     1       3.149  67.858  63.297  1.00  0.00     0.021 C 
ENDBRANCH  14  21
ENDBRANCH   7  13
ENDBRANCH   6   7
ENDBRANCH   4   5
TORSDOF 5
ENDMDL
MODEL 2
REMARK VINA RESULT: -8.752388272      3.601      6.326
REMARK  5 active torsions:
REMARK  status: ('A' for Active; 'I' for Inactive)
REMARK    1  A    between atoms: C4_4  and  C5_5 
REMARK    2  A    between atoms: C6_6  and  C7_7 
REMARK    3  A    between atoms: C7_7  and  N1_8 
REMARK    4  A    between atoms: C7_7  and  C8_13 
REMARK    5  A    between atoms: C9_14  and  C10_15 
ROOT
HETATM    1  C1  UNL     1       7.894  71.293  68.261  1.00  0.00     0.027 C 
HETATM    2  C2  UNL     1       7.179  70.813  67.416  1.00  0.00    -0.025 C 
HETATM    3  C3  UNL     1       6.330  70.255  66.434  1.00  0.00    -0.002 C 
HETATM    4  C4  UNL     1       5.592  69.778  65.612  1.00  0.00    -0.001 C 
ENDROOT
BRANCH   4   5
HETATM    5  C5  UNL     1       4.715  69.212  64.670  1.00  0.00    -0.007 C 
HETATM    6  C6  UNL     1       3.933  68.719  63.864  1.00  0.00    -0.032 C 
BRANCH   6   7
HETATM    7  C7  UNL     1       2.982  68.150  62.917  1.00  0.00     0.119 C 
BRANCH   7   8
HETATM    8  N1  UNL     1       3.421  67.577  61.915  1.00  0.00    -0.298 N 
HETATM    9  N2  UNL     1       4.203  67.299  60.949  1.00  0.00    -0.344 N 
ATOM     10  H22 UNL     1       4.906  68.012  61.142  1.00  0.00     0.176 HD
ATOM     11  H21 UNL     1       4.566  66.826  60.121  1.00  0.00     0.176 HD
ATOM     12  H1  UNL     1       2.690  66.881  61.766  1.00  0.00     0.187 HD
ENDBRANCH   7   8
BRANCH   7  13
HETATM   13  C8  UNL     1       1.575  68.303  63.197  1.00  0.00     0.095 A 
HETATM   14  C9  UNL     1       0.838  68.083  64.341  1.00  0.00     0.052 A 
HETATM   15  N3  UNL     1      -0.443  68.451  64.017  1.00  0.00    -0.300 N 
HETATM   16  N4  UNL     1      -0.512  68.860  62.793  1.00  0.00    -0.266 N 
ATOM     17  H3  UNL     1      -1.237  68.407  64.657  1.00  0.00     0.186 HD
HETATM   18  C14 UNL     1       0.681  68.799  62.224  1.00  0.00     0.275 A 
ATOM     19  H4  UNL     1      -1.362  69.184  62.333  1.00  0.00     0.190 HD
HETATM   20  O1  UNL     1       0.940  69.134  61.020  1.00  0.00    -0.266 OA
BRANCH  14  21
HETATM   21  C10 UNL     1       1.271  67.545  65.629  1.00  0.00    -0.006 C 
HETATM   22  C11 UNL     1       2.164  66.353  65.591  1.00  0.00     0.021 C 
HETATM   23  C12 UNL     1       1.818  68.567  66.594  1.00  0.00     0.021 C 
HETATM   24  C13 UNL     1      -0.034  67.016  66.316  1.00  0.00     0.021 C 
ENDBRANCH  14  21
ENDBRANCH   7  13
ENDBRANCH   6   7
ENDBRANCH   4   5
TORSDOF 5
ENDMDL
MODEL 3
REMARK VINA RESULT: -8.262833524      2.863      4.260
REMARK  5 active torsions:
REMARK  status: ('A' for Active; 'I' for Inactive)
REMARK    1  A    between atoms: C4_4  and  C5_5 
REMARK    2  A    between atoms: C6_6  and  C7_7 
REMARK    3  A    between atoms: C7_7  and  N1_8 
REMARK    4  A    between atoms: C7_7  and  C8_13 
REMARK    5  A    between atoms: C9_14  and  C10_15 
ROOT
HETATM    1  C1  UNL     1       0.311  65.376  70.421  1.00  0.00     0.027 C 
HETATM    2  C2  UNL     1       0.499  65.873  69.337  1.00  0.00    -0.025 C 
HETATM    3  C3  UNL     1       0.719  66.442  68.063  1.00  0.00    -0.002 C 
HETATM    4  C4  UNL     1       0.914  66.908  66.970  1.00  0.00    -0.001 C 
ENDROOT
BRANCH   4   5
HETATM    5  C5  UNL     1       1.155  67.432  65.689  1.00  0.00    -0.007 C 
HETATM    6  C6  UNL     1       1.344  67.899  64.570  1.00  0.00    -0.032 C 
BRANCH   6   7
HETATM    7  C7  UNL     1       1.552  68.476  63.247  1.00  0.00     0.119 C 
BRANCH   7   8
HETATM    8  N1  UNL     1       0.667  69.194  62.773  1.00  0.00    -0.298 N 
HETATM    9  N2  UNL     1      -0.414  69.519  62.183  1.00  0.00    -0.344 N 
ATOM     10  H22 UNL     1      -0.742  68.574  61.983  1.00  0.00     0.176 HD
ATOM     11  H21 UNL     1      -1.146  70.112  61.790  1.00  0.00     0.176 HD
ATOM     12  H1  UNL     1       1.039  70.117  62.998  1.00  0.00     0.187 HD
ENDBRANCH   7   8
BRANCH   7  13
HETATM   13  C8  UNL     1       2.780  68.161  62.559  1.00  0.00     0.095 A 
HETATM   14  C9  UNL     1       4.052  67.901  63.023  1.00  0.00     0.052 A 
HETATM   15  N3  UNL     1       4.791  67.620  61.901  1.00  0.00    -0.300 N 
HETATM   16  N4  UNL     1       4.063  67.696  60.837  1.00  0.00    -0.266 N 
ATOM     17  H3  UNL     1       5.783  67.382  61.907  1.00  0.00     0.186 HD
HETATM   18  C14 UNL     1       2.820  68.023  61.154  1.00  0.00     0.275 A 
ATOM     19  H4  UNL     1       4.397  67.527  59.888  1.00  0.00     0.190 HD
HETATM   20  O1  UNL     1       1.865  68.176  60.324  1.00  0.00    -0.266 OA
BRANCH  14  21
HETATM   21  C10 UNL     1       4.560  67.937  64.392  1.00  0.00    -0.006 C 
HETATM   22  C11 UNL     1       4.228  69.146  65.198  1.00  0.00     0.021 C 
HETATM   23  C12 UNL     1       4.299  66.692  65.202  1.00  0.00     0.021 C 
HETATM   24  C13 UNL     1       6.120  67.995  64.252  1.00  0.00     0.021 C 
ENDBRANCH  14  21
ENDBRANCH   7  13
ENDBRANCH   6   7
ENDBRANCH   4   5
TORSDOF 5
ENDMDL
MODEL 4
REMARK VINA RESULT: -8.052118515      1.979      2.360
REMARK  5 active torsions:
REMARK  status: ('A' for Active; 'I' for Inactive)
REMARK    1  A    between atoms: C4_4  and  C5_5 
REMARK    2  A    between atoms: C6_6  and  C7_7 
REMARK    3  A    between atoms: C7_7  and  N1_8 
REMARK    4  A    between atoms: C7_7  and  C8_13 
REMARK    5  A    between atoms: C9_14  and  C10_15 
ROOT
HETATM    1  C1  UNL     1       0.668  63.376  71.909  1.00  0.00     0.027 C 
HETATM    2  C2  UNL     1       0.483  64.100  70.962  1.00  0.00    -0.025 C 
HETATM    3  C3  UNL     1       0.256  64.954  69.860  1.00  0.00    -0.002 C 
HETATM    4  C4  UNL     1       0.041  65.684  68.926  1.00  0.00    -0.001 C 
ENDROOT
BRANCH   4   5
HETATM    5  C5  UNL     1      -0.233  66.532  67.840  1.00  0.00    -0.007 C 
HETATM    6  C6  UNL     1      -0.495  67.267  66.893  1.00  0.00    -0.032 C 
BRANCH   6   7
HETATM    7  C7  UNL     1      -0.831  68.149  65.782  1.00  0.00     0.119 C 
BRANCH   7   8
HETATM    8  N1  UNL     1      -1.919  68.733  65.803  1.00  0.00    -0.298 N 
HETATM    9  N2  UNL     1      -3.140  68.986  65.544  1.00  0.00    -0.344 N 
ATOM     10  H22 UNL     1      -3.308  68.192  64.926  1.00  0.00     0.176 HD
ATOM     11  H21 UNL     1      -4.039  69.468  65.560  1.00  0.00     0.176 HD
ATOM     12  H1  UNL     1      -1.698  69.509  66.427  1.00  0.00     0.187 HD
ENDBRANCH   7   8
BRANCH   7  13
HETATM   13  C8  UNL     1       0.124  68.278  64.709  1.00  0.00     0.095 A 
HETATM   14  C9  UNL     1       1.503  68.279  64.703  1.00  0.00     0.052 A 
HETATM   15  N3  UNL     1       1.854  68.386  63.381  1.00  0.00    -0.300 N 
HETATM   16  N4  UNL     1       0.807  68.448  62.627  1.00  0.00    -0.266 N 
ATOM     17  H3  UNL     1       2.815  68.413  63.038  1.00  0.00     0.186 HD
HETATM   18  C14 UNL     1      -0.291  68.389  63.365  1.00  0.00     0.275 A 
ATOM     19  H4  UNL     1       0.824  68.530  61.611  1.00  0.00     0.190 HD
HETATM   20  O1  UNL     1      -1.483  68.428  62.913  1.00  0.00    -0.266 OA
BRANCH  14  21
HETATM   21  C10 UNL     1       2.431  68.217  65.830  1.00  0.00    -0.006 C 
HETATM   22  C11 UNL     1       2.103  69.058  67.015  1.00  0.00     0.021 C 
HETATM   23  C12 UNL     1       2.801  66.824  66.275  1.00  0.00     0.021 C 
HETATM   24  C13 UNL     1       3.772  68.827  65.295  1.00  0.00     0.021 C 
ENDBRANCH  14  21
ENDBRANCH   7  13
ENDBRANCH   6   7
ENDBRANCH   4   5
TORSDOF 5
ENDMDL
MODEL 5
REMARK VINA RESULT: -7.551438252      1.948      3.290
REMARK  5 active torsions:
REMARK  status: ('A' for Active; 'I' for Inactive)
REMARK    1  A    between atoms: C4_4  and  C5_5 
REMARK    2  A    between atoms: C6_6  and  C7_7 
REMARK    3  A    between atoms: C7_7  and  N1_8 
REMARK    4  A    between atoms: C7_7  and  C8_13 
REMARK    5  A    between atoms: C9_14  and  C10_15 
ROOT
HETATM    1  C1  UNL     1       0.118  63.441  72.102  1.00  0.00     0.027 C 
HETATM    2  C2  UNL     1       0.364  64.192  71.190  1.00  0.00    -0.025 C 
HETATM    3  C3  UNL     1       0.653  65.060  70.113  1.00  0.00    -0.002 C 
HETATM    4  C4  UNL     1       0.906  65.783  69.185  1.00  0.00    -0.001 C 
ENDROOT
BRANCH   4   5
HETATM    5  C5  UNL     1       1.216  66.610  68.092  1.00  0.00    -0.007 C 
HETATM    6  C6  UNL     1       1.490  67.313  67.124  1.00  0.00    -0.032 C 
BRANCH   6   7
HETATM    7  C7  UNL     1       1.801  68.129  65.957  1.00  0.00     0.119 C 
BRANCH   7   8
HETATM    8  N1  UNL     1       2.849  68.782  65.959  1.00  0.00    -0.298 N 
HETATM    9  N2  UNL     1       3.984  69.214  65.575  1.00  0.00    -0.344 N 
ATOM     10  H22 UNL     1       4.056  68.652  64.726  1.00  0.00     0.176 HD
ATOM     11  H21 UNL     1       4.850  69.753  65.576  1.00  0.00     0.176 HD
ATOM     12  H1  UNL     1       2.728  69.321  66.817  1.00  0.00     0.187 HD
ENDBRANCH   7   8
BRANCH   7  13
HETATM   13  C8  UNL     1       0.856  68.138  64.867  1.00  0.00     0.095 A 
HETATM   14  C9  UNL     1      -0.516  68.266  64.844  1.00  0.00     0.052 A 
HETATM   15  N3  UNL     1      -0.854  68.253  63.514  1.00  0.00    -0.300 N 
HETATM   16  N4  UNL     1       0.195  68.127  62.772  1.00  0.00    -0.266 N 
ATOM     17  H3  UNL     1      -1.808  68.331  63.159  1.00  0.00     0.186 HD
HETATM   18  C14 UNL     1       1.281  68.049  63.524  1.00  0.00     0.275 A 
ATOM     19  H4  UNL     1       0.188  68.092  61.752  1.00  0.00     0.190 HD
HETATM   20  O1  UNL     1       2.472  67.920  63.086  1.00  0.00    -0.266 OA
BRANCH  14  21
HETATM   21  C10 UNL     1      -1.453  68.364  65.961  1.00  0.00    -0.006 C 
HETATM   22  C11 UNL     1      -1.723  67.110  66.720  1.00  0.00     0.021 C 
HETATM   23  C12 UNL     1      -1.187  69.499  66.919  1.00  0.00     0.021 C 
HETATM   24  C13 UNL     1      -2.836  68.715  65.311  1.00  0.00     0.021 C 
ENDBRANCH  14  21
ENDBRANCH   7  13
ENDBRANCH   6   7
ENDBRANCH   4   5
TORSDOF 5
ENDMDL
