MODEL 1
REMARK VINA RESULT: -8.591106973      0.000      0.000
REMARK  2 active torsions:
REMARK  status: ('A' for Active; 'I' for Inactive)
REMARK    1  A    between atoms: N1_1  and  N2_4 
REMARK       I    between atoms: C1_6  and  N4_8 
REMARK    2  A    between atoms: C6_13  and  C7_14 
ROOT
HETATM    1  N2  UNL     1      -1.194  68.185  64.139  1.00  0.00    -0.280 N 
ATOM      2  H2  UNL     1      -0.693  67.558  63.509  1.00  0.00     0.189 HD
HETATM    3  C1  UNL     1      -0.765  68.372  65.334  1.00  0.00     0.205 C 
HETATM    4  N3  UNL     1      -1.536  69.268  66.142  1.00  0.00    -0.062 NA
HETATM    5  N4  UNL     1       0.391  67.731  65.806  1.00  0.00    -0.349 N 
HETATM    6  C2  UNL     1       0.989  66.497  65.343  1.00  0.00     0.131 C 
HETATM    7  C3  UNL     1       2.111  66.397  66.343  1.00  0.00     0.012 C 
HETATM    8  C4  UNL     1       1.370  66.805  67.628  1.00  0.00     0.032 C 
HETATM    9  C5  UNL     1       1.263  68.141  66.862  1.00  0.00     0.092 C 
HETATM   10  C6  UNL     1       2.657  67.801  66.390  1.00  0.00     0.019 C 
ENDROOT
BRANCH  10  11
HETATM   11  C7  UNL     1       3.076  68.392  65.090  1.00  0.00    -0.003 A 
HETATM   12  C8  UNL     1       4.172  69.396  65.239  1.00  0.00     0.010 A 
HETATM   13  C9  UNL     1       5.159  68.470  64.561  1.00  0.00    -0.009 A 
HETATM   14  C10 UNL     1       5.752  68.981  63.292  1.00  0.00     0.010 C 
HETATM   15  C15 UNL     1       4.062  67.479  64.387  1.00  0.00    -0.002 A 
HETATM   16  C11 UNL     1       5.134  68.413  62.058  1.00  0.00    -0.013 C 
HETATM   17  C12 UNL     1       3.611  68.432  62.117  1.00  0.00     0.010 C 
HETATM   18  C14 UNL     1       5.013  66.886  62.176  1.00  0.00     0.010 C 
HETATM   19  C13 UNL     1       3.729  67.174  62.953  1.00  0.00    -0.009 C 
ENDBRANCH  10  11
BRANCH   1  20
HETATM   20  N1  UNL     1      -2.341  68.834  63.704  1.00  0.00    -0.343 N 
ATOM     21  H12 UNL     1      -2.711  69.608  64.256  1.00  0.00     0.176 HD
ATOM     22  H11 UNL     1      -2.801  68.536  62.844  1.00  0.00     0.176 HD
ENDBRANCH   1  20
TORSDOF 2
ENDMDL
MODEL 2
REMARK VINA RESULT: -8.452508288      2.187      3.660
REMARK  2 active torsions:
REMARK  status: ('A' for Active; 'I' for Inactive)
REMARK    1  A    between atoms: N1_1  and  N2_4 
REMARK       I    between atoms: C1_6  and  N4_8 
REMARK    2  A    between atoms: C6_13  and  C7_14 
ROOT
HETATM    1  N2  UNL     1       1.482  65.660  69.324  1.00  0.00    -0.280 N 
ATOM      2  H2  UNL     1       2.388  66.114  69.441  1.00  0.00     0.189 HD
HETATM    3  C1  UNL     1       0.560  66.233  68.639  1.00  0.00     0.205 C 
HETATM    4  N3  UNL     1      -0.675  65.518  68.531  1.00  0.00    -0.062 NA
HETATM    5  N4  UNL     1       0.765  67.486  68.039  1.00  0.00    -0.349 N 
HETATM    6  C2  UNL     1       1.703  68.522  68.415  1.00  0.00     0.131 C 
HETATM    7  C3  UNL     1       1.303  69.569  67.407  1.00  0.00     0.012 C 
HETATM    8  C4  UNL     1      -0.229  69.443  67.475  1.00  0.00     0.032 C 
HETATM    9  C5  UNL     1       0.096  68.046  66.907  1.00  0.00     0.092 C 
HETATM   10  C6  UNL     1       1.162  68.782  66.130  1.00  0.00     0.019 C 
ENDROOT
BRANCH  10  11
HETATM   11  C7  UNL     1       2.345  67.982  65.712  1.00  0.00    -0.003 A 
HETATM   12  C8  UNL     1       2.062  67.106  64.535  1.00  0.00     0.010 A 
HETATM   13  C9  UNL     1       2.952  67.951  63.649  1.00  0.00    -0.009 A 
HETATM   14  C10 UNL     1       4.128  67.246  63.062  1.00  0.00     0.010 C 
HETATM   15  C15 UNL     1       3.257  68.809  64.825  1.00  0.00    -0.002 A 
HETATM   16  C11 UNL     1       5.416  67.520  63.766  1.00  0.00    -0.013 C 
HETATM   17  C12 UNL     1       5.279  67.406  65.280  1.00  0.00     0.010 C 
HETATM   18  C14 UNL     1       5.585  69.029  64.002  1.00  0.00     0.010 C 
HETATM   19  C13 UNL     1       4.704  68.806  65.232  1.00  0.00    -0.009 C 
ENDBRANCH  10  11
BRANCH   1  20
HETATM   20  N1  UNL     1       1.246  64.422  69.904  1.00  0.00    -0.343 N 
ATOM     21  H12 UNL     1       0.294  64.058  69.924  1.00  0.00     0.176 HD
ATOM     22  H11 UNL     1       2.020  63.891  70.303  1.00  0.00     0.176 HD
ENDBRANCH   1  20
TORSDOF 2
ENDMDL
MODEL 3
REMARK VINA RESULT: -8.240910055      2.916      5.493
REMARK  2 active torsions:
REMARK  status: ('A' for Active; 'I' for Inactive)
REMARK    1  A    between atoms: N1_1  and  N2_4 
REMARK       I    between atoms: C1_6  and  N4_8 
REMARK    2  A    between atoms: C6_13  and  C7_14 
ROOT
HETATM    1  N2  UNL     1       3.813  68.371  61.338  1.00  0.00    -0.280 N 
ATOM      2  H2  UNL     1       3.275  69.161  61.694  1.00  0.00     0.189 HD
HETATM    3  C1  UNL     1       4.531  67.670  62.139  1.00  0.00     0.205 C 
HETATM    4  N3  UNL     1       5.248  66.582  61.546  1.00  0.00    -0.062 NA
HETATM    5  N4  UNL     1       4.600  67.965  63.510  1.00  0.00    -0.349 N 
HETATM    6  C2  UNL     1       4.359  69.229  64.172  1.00  0.00     0.131 C 
HETATM    7  C3  UNL     1       4.694  68.816  65.582  1.00  0.00     0.012 C 
HETATM    8  C4  UNL     1       5.953  67.969  65.327  1.00  0.00     0.032 C 
HETATM    9  C5  UNL     1       4.924  67.086  64.590  1.00  0.00     0.092 C 
HETATM   10  C6  UNL     1       4.007  67.482  65.723  1.00  0.00     0.019 C 
ENDROOT
BRANCH  10  11
HETATM   11  C7  UNL     1       2.548  67.455  65.430  1.00  0.00    -0.003 A 
HETATM   12  C8  UNL     1       1.921  66.135  65.743  1.00  0.00     0.010 A 
HETATM   13  C9  UNL     1       1.164  66.733  66.910  1.00  0.00    -0.009 A 
HETATM   14  C10 UNL     1      -0.323  66.677  66.807  1.00  0.00     0.010 C 
HETATM   15  C15 UNL     1       1.765  68.055  66.583  1.00  0.00    -0.002 A 
HETATM   16  C11 UNL     1      -0.954  67.962  66.385  1.00  0.00    -0.013 C 
HETATM   17  C12 UNL     1      -0.244  68.585  65.188  1.00  0.00     0.010 C 
HETATM   18  C14 UNL     1      -0.381  69.132  67.199  1.00  0.00     0.010 C 
HETATM   19  C13 UNL     1       0.767  69.107  66.189  1.00  0.00    -0.009 C 
ENDBRANCH  10  11
BRANCH   1  20
HETATM   20  N1  UNL     1       3.768  68.052  59.989  1.00  0.00    -0.343 N 
ATOM     21  H12 UNL     1       2.864  68.012  59.519  1.00  0.00     0.176 HD
ATOM     22  H11 UNL     1       4.632  67.862  59.481  1.00  0.00     0.176 HD
ENDBRANCH   1  20
TORSDOF 2
ENDMDL
MODEL 4
REMARK VINA RESULT: -7.841164662      3.196      5.771
REMARK  2 active torsions:
REMARK  status: ('A' for Active; 'I' for Inactive)
REMARK    1  A    between atoms: N1_1  and  N2_4 
REMARK       I    between atoms: C1_6  and  N4_8 
REMARK    2  A    between atoms: C6_13  and  C7_14 
ROOT
HETATM    1  N2  UNL     1       6.063  69.310  64.745  1.00  0.00    -0.280 N 
ATOM      2  H2  UNL     1       5.965  69.027  65.720  1.00  0.00     0.189 HD
HETATM    3  C1  UNL     1       5.594  68.567  63.810  1.00  0.00     0.205 C 
HETATM    4  N3  UNL     1       5.780  69.049  62.475  1.00  0.00    -0.062 NA
HETATM    5  N4  UNL     1       4.939  67.358  64.094  1.00  0.00    -0.349 N 
HETATM    6  C2  UNL     1       5.074  66.514  65.262  1.00  0.00     0.131 C 
HETATM    7  C3  UNL     1       4.163  65.390  64.839  1.00  0.00     0.012 C 
HETATM    8  C4  UNL     1       4.577  65.244  63.365  1.00  0.00     0.032 C 
HETATM    9  C5  UNL     1       3.976  66.663  63.298  1.00  0.00     0.092 C 
HETATM   10  C6  UNL     1       2.966  66.111  64.276  1.00  0.00     0.019 C 
ENDROOT
BRANCH  10  11
HETATM   11  C7  UNL     1       2.307  67.099  65.172  1.00  0.00    -0.003 A 
HETATM   12  C8  UNL     1       1.666  68.222  64.421  1.00  0.00     0.010 A 
HETATM   13  C9  UNL     1       0.285  67.724  64.788  1.00  0.00    -0.009 A 
HETATM   14  C10 UNL     1      -0.542  68.664  65.599  1.00  0.00     0.010 C 
HETATM   15  C15 UNL     1       0.920  66.621  65.559  1.00  0.00    -0.002 A 
HETATM   16  C11 UNL     1      -0.584  68.338  67.056  1.00  0.00    -0.013 C 
HETATM   17  C12 UNL     1       0.802  68.041  67.617  1.00  0.00     0.010 C 
HETATM   18  C14 UNL     1      -0.870  66.842  67.260  1.00  0.00     0.010 C 
HETATM   19  C13 UNL     1       0.630  66.653  67.034  1.00  0.00    -0.009 C 
ENDBRANCH  10  11
BRANCH   1  20
HETATM   20  N1  UNL     1       6.705  70.499  64.429  1.00  0.00    -0.343 N 
ATOM     21  H12 UNL     1       6.157  71.275  64.058  1.00  0.00     0.176 HD
ATOM     22  H11 UNL     1       7.711  70.587  64.569  1.00  0.00     0.176 HD
ENDBRANCH   1  20
TORSDOF 2
ENDMDL
MODEL 5
REMARK VINA RESULT: -7.553682607      3.050      5.696
REMARK  2 active torsions:
REMARK  status: ('A' for Active; 'I' for Inactive)
REMARK    1  A    between atoms: N1_1  and  N2_4 
REMARK       I    between atoms: C1_6  and  N4_8 
REMARK    2  A    between atoms: C6_13  and  C7_14 
ROOT
HETATM    1  N2  UNL     1       4.323  65.321  62.744  1.00  0.00    -0.280 N 
ATOM      2  H2  UNL     1       3.673  65.896  62.208  1.00  0.00     0.189 HD
HETATM    3  C1  UNL     1       4.904  65.804  63.781  1.00  0.00     0.205 C 
HETATM    4  N3  UNL     1       5.798  64.921  64.466  1.00  0.00    -0.062 NA
HETATM    5  N4  UNL     1       4.669  67.122  64.205  1.00  0.00    -0.349 N 
HETATM    6  C2  UNL     1       4.214  68.252  63.422  1.00  0.00     0.131 C 
HETATM    7  C3  UNL     1       4.276  69.311  64.492  1.00  0.00     0.012 C 
HETATM    8  C4  UNL     1       5.613  68.946  65.161  1.00  0.00     0.032 C 
HETATM    9  C5  UNL     1       4.819  67.672  65.515  1.00  0.00     0.092 C 
HETATM   10  C6  UNL     1       3.663  68.629  65.688  1.00  0.00     0.019 C 
ENDROOT
BRANCH  10  11
HETATM   11  C7  UNL     1       2.301  68.060  65.499  1.00  0.00    -0.003 A 
HETATM   12  C8  UNL     1       2.144  66.717  66.137  1.00  0.00     0.010 A 
HETATM   13  C9  UNL     1       1.211  67.287  67.185  1.00  0.00    -0.009 A 
HETATM   14  C10 UNL     1      -0.171  66.725  67.189  1.00  0.00     0.010 C 
HETATM   15  C15 UNL     1       1.345  68.619  66.535  1.00  0.00    -0.002 A 
HETATM   16  C11 UNL     1      -1.186  67.599  66.529  1.00  0.00    -0.013 C 
HETATM   17  C12 UNL     1      -0.703  68.126  65.183  1.00  0.00     0.010 C 
HETATM   18  C14 UNL     1      -1.048  69.047  67.024  1.00  0.00     0.010 C 
HETATM   19  C13 UNL     1       0.060  69.166  65.978  1.00  0.00    -0.009 C 
ENDBRANCH  10  11
BRANCH   1  20
HETATM   20  N1  UNL     1       4.579  64.014  62.352  1.00  0.00    -0.343 N 
ATOM     21  H12 UNL     1       5.084  63.397  62.988  1.00  0.00     0.176 HD
ATOM     22  H11 UNL     1       4.264  63.685  61.440  1.00  0.00     0.176 HD
ENDBRANCH   1  20
TORSDOF 2
ENDMDL
