MODEL 1
REMARK VINA RESULT: -9.088706250      0.000      0.000
REMARK  3 active torsions:
REMARK  status: ('A' for Active; 'I' for Inactive)
REMARK       I    between atoms: C2_5  and  N4_7 
REMARK    1  A    between atoms: N4_7  and  C3_9 
REMARK    2  A    between atoms: C5_11  and  C6_12 
REMARK    3  A    between atoms: C7_13  and  C8_14 
ROOT
HETATM    1  N1  UNL     1       3.666  69.114  60.115  1.00  0.00    -0.172 NA
HETATM    2  C1  UNL     1       4.053  68.105  60.564  1.00  0.00     0.184 C 
HETATM    3  N2  UNL     1       4.505  66.892  61.084  1.00  0.00    -0.267 N 
ATOM      4  H2  UNL     1       4.137  66.021  60.703  1.00  0.00     0.180 HD
HETATM    5  C2  UNL     1       5.372  66.841  62.033  1.00  0.00     0.203 C 
HETATM    6  N3  UNL     1       5.846  65.619  62.578  1.00  0.00    -0.062 NA
HETATM    7  N4  UNL     1       5.872  68.064  62.550  1.00  0.00    -0.316 N 
ATOM      8  H4  UNL     1       6.590  68.574  62.035  1.00  0.00     0.170 HD
ENDROOT
BRANCH   7   9
HETATM    9  C3  UNL     1       5.423  68.542  63.679  1.00  0.00     0.108 A 
HETATM   10  C4  UNL     1       4.143  68.205  64.073  1.00  0.00     0.069 A 
HETATM   11  C5  UNL     1       3.626  68.683  65.253  1.00  0.00     0.022 A 
HETATM   12  C14 UNL     1       4.434  69.508  66.024  1.00  0.00     0.038 A 
HETATM   13  C15 UNL     1       5.698  69.812  65.587  1.00  0.00     0.091 A 
HETATM   14  N5  UNL     1       6.206  69.343  64.427  1.00  0.00    -0.352 N 
ATOM     15  H5  UNL     1       7.150  69.586  64.128  1.00  0.00     0.166 HD
BRANCH  11  16
HETATM   16  C6  UNL     1       2.285  68.351  65.702  1.00  0.00    -0.061 C 
HETATM   17  C7  UNL     1       1.170  68.061  66.061  1.00  0.00    -0.061 C 
BRANCH  17  18
HETATM   18  C8  UNL     1      -0.161  67.705  66.464  1.00  0.00     0.018 A 
HETATM   19  C9  UNL     1      -1.295  68.290  65.938  1.00  0.00     0.020 A 
HETATM   20  C10 UNL     1      -2.562  67.945  66.327  1.00  0.00     0.001 A 
HETATM   21  C11 UNL     1      -2.709  66.972  67.289  1.00  0.00     0.000 A 
HETATM   22  C12 UNL     1      -1.600  66.370  67.834  1.00  0.00     0.001 A 
HETATM   23  C13 UNL     1      -0.343  66.736  67.423  1.00  0.00     0.020 A 
ENDBRANCH  17  18
ENDBRANCH  11  16
ENDBRANCH   7   9
TORSDOF 3
ENDMDL
MODEL 2
REMARK VINA RESULT: -8.552721985      5.079      8.161
REMARK  3 active torsions:
REMARK  status: ('A' for Active; 'I' for Inactive)
REMARK       I    between atoms: C2_5  and  N4_7 
REMARK    1  A    between atoms: N4_7  and  C3_9 
REMARK    2  A    between atoms: C5_11  and  C6_12 
REMARK    3  A    between atoms: C7_13  and  C8_14 
ROOT
HETATM    1  N1  UNL     1       1.994  62.132  69.371  1.00  0.00    -0.172 NA
HETATM    2  C1  UNL     1       1.274  62.690  70.107  1.00  0.00     0.184 C 
HETATM    3  N2  UNL     1       0.411  63.335  70.993  1.00  0.00    -0.267 N 
ATOM      4  H2  UNL     1      -0.170  62.775  71.616  1.00  0.00     0.180 HD
HETATM    5  C2  UNL     1       0.328  64.618  71.047  1.00  0.00     0.203 C 
HETATM    6  N3  UNL     1      -0.542  65.296  71.940  1.00  0.00    -0.062 NA
HETATM    7  N4  UNL     1       1.146  65.379  70.173  1.00  0.00    -0.316 N 
ATOM      8  H4  UNL     1       2.132  65.518  70.395  1.00  0.00     0.170 HD
ENDROOT
BRANCH   7   9
HETATM    9  C3  UNL     1       0.649  65.905  69.085  1.00  0.00     0.108 A 
HETATM   10  C4  UNL     1       1.520  66.342  68.108  1.00  0.00     0.069 A 
HETATM   11  C5  UNL     1       1.044  66.900  66.945  1.00  0.00     0.022 A 
HETATM   12  C14 UNL     1      -0.332  67.005  66.797  1.00  0.00     0.038 A 
HETATM   13  C15 UNL     1      -1.154  66.555  67.799  1.00  0.00     0.091 A 
HETATM   14  N5  UNL     1      -0.686  66.007  68.940  1.00  0.00    -0.352 N 
ATOM     15  H5  UNL     1      -1.322  65.681  69.668  1.00  0.00     0.166 HD
BRANCH  11  16
HETATM   16  C6  UNL     1       1.929  67.372  65.895  1.00  0.00    -0.061 C 
HETATM   17  C7  UNL     1       2.672  67.746  65.020  1.00  0.00    -0.061 C 
BRANCH  17  18
HETATM   18  C8  UNL     1       3.573  68.172  63.986  1.00  0.00     0.018 A 
HETATM   19  C9  UNL     1       3.340  67.962  62.643  1.00  0.00     0.020 A 
HETATM   20  C10 UNL     1       4.205  68.372  61.663  1.00  0.00     0.001 A 
HETATM   21  C11 UNL     1       5.359  69.021  62.037  1.00  0.00     0.000 A 
HETATM   22  C12 UNL     1       5.621  69.245  63.367  1.00  0.00     0.001 A 
HETATM   23  C13 UNL     1       4.736  68.824  64.327  1.00  0.00     0.020 A 
ENDBRANCH  17  18
ENDBRANCH  11  16
ENDBRANCH   7   9
TORSDOF 3
ENDMDL
MODEL 3
REMARK VINA RESULT: -8.511436648      7.032      9.194
REMARK  3 active torsions:
REMARK  status: ('A' for Active; 'I' for Inactive)
REMARK       I    between atoms: C2_5  and  N4_7 
REMARK    1  A    between atoms: N4_7  and  C3_9 
REMARK    2  A    between atoms: C5_11  and  C6_12 
REMARK    3  A    between atoms: C7_13  and  C8_14 
ROOT
HETATM    1  N1  UNL     1       2.189  57.596  71.698  1.00  0.00    -0.172 NA
HETATM    2  C1  UNL     1       3.151  58.262  71.733  1.00  0.00     0.184 C 
HETATM    3  N2  UNL     1       4.308  59.039  71.785  1.00  0.00    -0.267 N 
ATOM      4  H2  UNL     1       5.110  58.701  72.317  1.00  0.00     0.180 HD
HETATM    5  C2  UNL     1       4.392  60.172  71.182  1.00  0.00     0.203 C 
HETATM    6  N3  UNL     1       5.559  60.980  71.221  1.00  0.00    -0.062 NA
HETATM    7  N4  UNL     1       3.266  60.625  70.447  1.00  0.00    -0.316 N 
ATOM      8  H4  UNL     1       3.079  60.241  69.521  1.00  0.00     0.170 HD
ENDROOT
BRANCH   7   9
HETATM    9  C3  UNL     1       2.467  61.530  70.946  1.00  0.00     0.108 A 
HETATM   10  C4  UNL     1       2.035  62.551  70.123  1.00  0.00     0.069 A 
HETATM   11  C5  UNL     1       1.193  63.526  70.601  1.00  0.00     0.022 A 
HETATM   12  C14 UNL     1       0.799  63.441  71.930  1.00  0.00     0.038 A 
HETATM   13  C15 UNL     1       1.256  62.406  72.704  1.00  0.00     0.091 A 
HETATM   14  N5  UNL     1       2.084  61.449  72.234  1.00  0.00    -0.352 N 
ATOM     15  H5  UNL     1       2.408  60.691  72.834  1.00  0.00     0.166 HD
BRANCH  11  16
HETATM   16  C6  UNL     1       0.717  64.616  69.768  1.00  0.00    -0.061 C 
HETATM   17  C7  UNL     1       0.320  65.509  69.060  1.00  0.00    -0.061 C 
BRANCH  17  18
HETATM   18  C8  UNL     1      -0.144  66.559  68.196  1.00  0.00     0.018 A 
HETATM   19  C9  UNL     1      -1.395  66.567  67.617  1.00  0.00     0.020 A 
HETATM   20  C10 UNL     1      -1.830  67.572  66.794  1.00  0.00     0.001 A 
HETATM   21  C11 UNL     1      -0.978  68.620  66.534  1.00  0.00     0.000 A 
HETATM   22  C12 UNL     1       0.276  68.642  67.096  1.00  0.00     0.001 A 
HETATM   23  C13 UNL     1       0.684  67.622  67.916  1.00  0.00     0.020 A 
ENDBRANCH  17  18
ENDBRANCH  11  16
ENDBRANCH   7   9
TORSDOF 3
ENDMDL
MODEL 4
REMARK VINA RESULT: -8.432507400      7.575      9.971
REMARK  3 active torsions:
REMARK  status: ('A' for Active; 'I' for Inactive)
REMARK       I    between atoms: C2_5  and  N4_7 
REMARK    1  A    between atoms: N4_7  and  C3_9 
REMARK    2  A    between atoms: C5_11  and  C6_12 
REMARK    3  A    between atoms: C7_13  and  C8_14 
ROOT
HETATM    1  N1  UNL     1       4.053  59.877  69.021  1.00  0.00    -0.172 NA
HETATM    2  C1  UNL     1       3.619  59.044  69.720  1.00  0.00     0.184 C 
HETATM    3  N2  UNL     1       3.109  58.037  70.540  1.00  0.00    -0.267 N 
ATOM      4  H2  UNL     1       3.141  57.071  70.216  1.00  0.00     0.180 HD
HETATM    5  C2  UNL     1       2.600  58.294  71.692  1.00  0.00     0.203 C 
HETATM    6  N3  UNL     1       2.075  57.286  72.543  1.00  0.00    -0.062 NA
HETATM    7  N4  UNL     1       2.566  59.644  72.125  1.00  0.00    -0.316 N 
ATOM      8  H4  UNL     1       3.411  60.078  72.496  1.00  0.00     0.170 HD
ENDROOT
BRANCH   7   9
HETATM    9  C3  UNL     1       1.462  60.338  72.053  1.00  0.00     0.108 A 
HETATM   10  C4  UNL     1       1.460  61.495  71.299  1.00  0.00     0.069 A 
HETATM   11  C5  UNL     1       0.323  62.259  71.191  1.00  0.00     0.022 A 
HETATM   12  C14 UNL     1      -0.811  61.823  71.863  1.00  0.00     0.038 A 
HETATM   13  C15 UNL     1      -0.757  60.666  72.598  1.00  0.00     0.091 A 
HETATM   14  N5  UNL     1       0.361  59.917  72.704  1.00  0.00    -0.352 N 
ATOM     15  H5  UNL     1       0.371  59.061  73.258  1.00  0.00     0.166 HD
BRANCH  11  16
HETATM   16  C6  UNL     1       0.282  63.482  70.409  1.00  0.00    -0.061 C 
HETATM   17  C7  UNL     1       0.234  64.490  69.748  1.00  0.00    -0.061 C 
BRANCH  17  18
HETATM   18  C8  UNL     1       0.169  65.676  68.941  1.00  0.00     0.018 A 
HETATM   19  C9  UNL     1      -0.891  65.969  68.108  1.00  0.00     0.020 A 
HETATM   20  C10 UNL     1      -0.946  67.102  67.340  1.00  0.00     0.001 A 
HETATM   21  C11 UNL     1       0.105  67.988  67.404  1.00  0.00     0.000 A 
HETATM   22  C12 UNL     1       1.177  67.725  68.224  1.00  0.00     0.001 A 
HETATM   23  C13 UNL     1       1.204  66.582  68.981  1.00  0.00     0.020 A 
ENDBRANCH  17  18
ENDBRANCH  11  16
ENDBRANCH   7   9
TORSDOF 3
ENDMDL
MODEL 5
REMARK VINA RESULT: -8.320012754      3.861      5.621
REMARK  3 active torsions:
REMARK  status: ('A' for Active; 'I' for Inactive)
REMARK       I    between atoms: C2_5  and  N4_7 
REMARK    1  A    between atoms: N4_7  and  C3_9 
REMARK    2  A    between atoms: C5_11  and  C6_12 
REMARK    3  A    between atoms: C7_13  and  C8_14 
ROOT
HETATM    1  N1  UNL     1       4.008  66.737  64.265  1.00  0.00    -0.172 NA
HETATM    2  C1  UNL     1       3.335  67.508  63.695  1.00  0.00     0.184 C 
HETATM    3  N2  UNL     1       2.552  68.434  63.007  1.00  0.00    -0.267 N 
ATOM      4  H2  UNL     1       3.010  69.153  62.447  1.00  0.00     0.180 HD
HETATM    5  C2  UNL     1       1.267  68.407  63.059  1.00  0.00     0.203 C 
HETATM    6  N3  UNL     1       0.449  69.339  62.368  1.00  0.00    -0.062 NA
HETATM    7  N4  UNL     1       0.649  67.399  63.842  1.00  0.00    -0.316 N 
ATOM      8  H4  UNL     1       0.569  66.451  63.475  1.00  0.00     0.170 HD
ENDROOT
BRANCH   7   9
HETATM    9  C3  UNL     1       0.180  67.673  65.030  1.00  0.00     0.108 A 
HETATM   10  C4  UNL     1       0.472  66.811  66.068  1.00  0.00     0.069 A 
HETATM   11  C5  UNL     1       0.003  67.058  67.336  1.00  0.00     0.022 A 
HETATM   12  C14 UNL     1      -0.768  68.196  67.527  1.00  0.00     0.038 A 
HETATM   13  C15 UNL     1      -1.030  69.020  66.462  1.00  0.00     0.091 A 
HETATM   14  N5  UNL     1      -0.568  68.777  65.217  1.00  0.00    -0.352 N 
ATOM     15  H5  UNL     1      -0.779  69.408  64.444  1.00  0.00     0.166 HD
BRANCH  11  16
HETATM   16  C6  UNL     1       0.289  66.175  68.453  1.00  0.00    -0.061 C 
HETATM   17  C7  UNL     1       0.530  65.427  69.369  1.00  0.00    -0.061 C 
BRANCH  17  18
HETATM   18  C8  UNL     1       0.810  64.516  70.443  1.00  0.00     0.018 A 
HETATM   19  C9  UNL     1       0.078  64.472  71.611  1.00  0.00     0.020 A 
HETATM   20  C10 UNL     1       0.351  63.600  72.631  1.00  0.00     0.001 A 
HETATM   21  C11 UNL     1       1.405  62.728  72.482  1.00  0.00     0.000 A 
HETATM   22  C12 UNL     1       2.155  62.746  71.331  1.00  0.00     0.001 A 
HETATM   23  C13 UNL     1       1.857  63.631  70.326  1.00  0.00     0.020 A 
ENDBRANCH  17  18
ENDBRANCH  11  16
ENDBRANCH   7   9
TORSDOF 3
ENDMDL
