MODEL 1
REMARK VINA RESULT: -4.783685399      0.000      0.000
REMARK  7 active torsions:
REMARK  status: ('A' for Active; 'I' for Inactive)
REMARK    1  A    between atoms: C2_2  and  O1_3 
REMARK    2  A    between atoms: O1_3  and  C3_4 
REMARK    3  A    between atoms: C3_4  and  C4_5 
REMARK    4  A    between atoms: C4_5  and  C5_6 
REMARK    5  A    between atoms: C5_6  and  N1_7 
REMARK    6  A    between atoms: N1_7  and  C6_9 
REMARK    7  A    between atoms: C7_14  and  N4_15 
ROOT
HETATM    1  C6  UNL     1      89.718  65.325   3.418  1.00  0.00     0.707 A 
HETATM    2  N2  UNL     1      89.396  65.536   4.707  1.00  0.00    -0.117 N 
ATOM      3  H2  UNL     1      89.876  65.113   5.502  1.00  0.00     0.206 HD
HETATM    4  N3  UNL     1      88.379  66.360   4.799  1.00  0.00    -0.118 N 
ATOM      5  H3  UNL     1      87.935  66.688   5.657  1.00  0.00     0.206 HD
HETATM    6  C7  UNL     1      88.039  66.687   3.543  1.00  0.00     0.705 A 
HETATM    7  N5  UNL     1      88.856  66.055   2.688  1.00  0.00    -0.020 N 
ATOM      8  H5  UNL     1      88.829  66.117   1.670  1.00  0.00     0.203 HD
ENDROOT
BRANCH   1   9
HETATM    9  N1  UNL     1      90.682  64.558   2.966  1.00  0.00    -0.224 N 
ATOM     10  H1  UNL     1      91.611  64.612   3.383  1.00  0.00     0.177 HD
BRANCH   9  11
HETATM   11  C5  UNL     1      90.432  63.636   1.877  1.00  0.00     0.140 C 
BRANCH  11  12
HETATM   12  C4  UNL     1      89.380  62.622   2.255  1.00  0.00     0.046 C 
BRANCH  12  13
HETATM   13  C3  UNL     1      88.161  62.702   1.390  1.00  0.00     0.169 C 
BRANCH  13  14
HETATM   14  O1  UNL     1      88.124  63.837   0.635  1.00  0.00    -0.391 OA
BRANCH  14  15
HETATM   15  C2  UNL     1      86.913  64.210   0.135  1.00  0.00     0.163 C 
HETATM   16  C1  UNL     1      85.894  64.166   1.272  1.00  0.00     0.033 C 
ENDBRANCH  14  15
ENDBRANCH  13  14
ENDBRANCH  12  13
ENDBRANCH  11  12
ENDBRANCH   9  11
ENDBRANCH   1   9
BRANCH   6  17
HETATM   17  N4  UNL     1      87.083  67.477   3.231  1.00  0.00    -0.233 N 
ATOM     18  H42 UNL     1      87.118  68.218   2.531  1.00  0.00     0.174 HD
ATOM     19  H41 UNL     1      86.155  67.460   3.653  1.00  0.00     0.174 HD
ENDBRANCH   6  17
TORSDOF 7
ENDMDL
MODEL 2
REMARK VINA RESULT: -4.718200350      2.666      4.330
REMARK  7 active torsions:
REMARK  status: ('A' for Active; 'I' for Inactive)
REMARK    1  A    between atoms: C2_2  and  O1_3 
REMARK    2  A    between atoms: O1_3  and  C3_4 
REMARK    3  A    between atoms: C3_4  and  C4_5 
REMARK    4  A    between atoms: C4_5  and  C5_6 
REMARK    5  A    between atoms: C5_6  and  N1_7 
REMARK    6  A    between atoms: N1_7  and  C6_9 
REMARK    7  A    between atoms: C7_14  and  N4_15 
ROOT
HETATM    1  C6  UNL     1      88.494  66.433   3.606  1.00  0.00     0.707 A 
HETATM    2  N2  UNL     1      89.005  65.874   4.717  1.00  0.00    -0.117 N 
ATOM      3  H2  UNL     1      88.746  66.133   5.669  1.00  0.00     0.206 HD
HETATM    4  N3  UNL     1      89.883  64.948   4.406  1.00  0.00    -0.118 N 
ATOM      5  H3  UNL     1      90.417  64.370   5.055  1.00  0.00     0.206 HD
HETATM    6  C7  UNL     1      89.938  64.911   3.066  1.00  0.00     0.705 A 
HETATM    7  N5  UNL     1      89.088  65.820   2.566  1.00  0.00    -0.020 N 
ATOM      8  H5  UNL     1      88.923  66.012   1.577  1.00  0.00     0.203 HD
ENDROOT
BRANCH   1   9
HETATM    9  N1  UNL     1      87.595  67.386   3.550  1.00  0.00    -0.224 N 
ATOM     10  H1  UNL     1      87.395  67.944   4.380  1.00  0.00     0.177 HD
BRANCH   9  11
HETATM   11  C5  UNL     1      86.886  67.651   2.315  1.00  0.00     0.140 C 
BRANCH  11  12
HETATM   12  C4  UNL     1      85.406  67.809   2.561  1.00  0.00     0.046 C 
BRANCH  12  13
HETATM   13  C3  UNL     1      84.966  67.194   3.853  1.00  0.00     0.169 C 
BRANCH  13  14
HETATM   14  O1  UNL     1      83.630  66.920   3.877  1.00  0.00    -0.391 OA
BRANCH  14  15
HETATM   15  C2  UNL     1      83.036  66.629   2.687  1.00  0.00     0.163 C 
HETATM   16  C1  UNL     1      83.027  65.111   2.517  1.00  0.00     0.033 C 
ENDBRANCH  14  15
ENDBRANCH  13  14
ENDBRANCH  12  13
ENDBRANCH  11  12
ENDBRANCH   9  11
ENDBRANCH   1   9
BRANCH   6  17
HETATM   17  N4  UNL     1      90.688  64.126   2.391  1.00  0.00    -0.233 N 
ATOM     18  H42 UNL     1      91.707  64.154   2.350  1.00  0.00     0.174 HD
ATOM     19  H41 UNL     1      90.351  63.365   1.802  1.00  0.00     0.174 HD
ENDBRANCH   6  17
TORSDOF 7
ENDMDL
MODEL 3
REMARK VINA RESULT: -4.630195405      2.647      4.336
REMARK  7 active torsions:
REMARK  status: ('A' for Active; 'I' for Inactive)
REMARK    1  A    between atoms: C2_2  and  O1_3 
REMARK    2  A    between atoms: O1_3  and  C3_4 
REMARK    3  A    between atoms: C3_4  and  C4_5 
REMARK    4  A    between atoms: C4_5  and  C5_6 
REMARK    5  A    between atoms: C5_6  and  N1_7 
REMARK    6  A    between atoms: N1_7  and  C6_9 
REMARK    7  A    between atoms: C7_14  and  N4_15 
ROOT
HETATM    1  C6  UNL     1      89.581  64.632   1.884  1.00  0.00     0.707 A 
HETATM    2  N2  UNL     1      90.399  64.346   0.856  1.00  0.00    -0.117 N 
ATOM      3  H2  UNL     1      91.169  64.937   0.544  1.00  0.00     0.206 HD
HETATM    4  N3  UNL     1      90.068  63.199   0.309  1.00  0.00    -0.118 N 
ATOM      5  H3  UNL     1      90.522  62.747  -0.485  1.00  0.00     0.206 HD
HETATM    6  C7  UNL     1      89.014  62.738   0.999  1.00  0.00     0.705 A 
HETATM    7  N5  UNL     1      88.708  63.612   1.969  1.00  0.00    -0.020 N 
ATOM      8  H5  UNL     1      87.951  63.520   2.648  1.00  0.00     0.203 HD
ENDROOT
BRANCH   1   9
HETATM    9  N1  UNL     1      89.627  65.696   2.649  1.00  0.00    -0.224 N 
ATOM     10  H1  UNL     1      89.931  66.588   2.260  1.00  0.00     0.177 HD
BRANCH   9  11
HETATM   11  C5  UNL     1      89.247  65.610   4.045  1.00  0.00     0.140 C 
BRANCH  11  12
HETATM   12  C4  UNL     1      88.291  66.717   4.416  1.00  0.00     0.046 C 
BRANCH  12  13
HETATM   13  C3  UNL     1      87.035  66.695   3.602  1.00  0.00     0.169 C 
BRANCH  13  14
HETATM   14  O1  UNL     1      85.910  66.771   4.369  1.00  0.00    -0.391 OA
BRANCH  14  15
HETATM   15  C2  UNL     1      84.768  67.187   3.754  1.00  0.00     0.163 C 
HETATM   16  C1  UNL     1      84.306  66.080   2.808  1.00  0.00     0.033 C 
ENDBRANCH  14  15
ENDBRANCH  13  14
ENDBRANCH  12  13
ENDBRANCH  11  12
ENDBRANCH   9  11
ENDBRANCH   1   9
BRANCH   6  17
HETATM   17  N4  UNL     1      88.411  61.637   0.757  1.00  0.00    -0.233 N 
ATOM     18  H42 UNL     1      88.361  61.164  -0.146  1.00  0.00     0.174 HD
ATOM     19  H41 UNL     1      87.899  61.091   1.449  1.00  0.00     0.174 HD
ENDBRANCH   6  17
TORSDOF 7
ENDMDL
MODEL 4
REMARK VINA RESULT: -4.626881725      2.717      4.380
REMARK  7 active torsions:
REMARK  status: ('A' for Active; 'I' for Inactive)
REMARK    1  A    between atoms: C2_2  and  O1_3 
REMARK    2  A    between atoms: O1_3  and  C3_4 
REMARK    3  A    between atoms: C3_4  and  C4_5 
REMARK    4  A    between atoms: C4_5  and  C5_6 
REMARK    5  A    between atoms: C5_6  and  N1_7 
REMARK    6  A    between atoms: N1_7  and  C6_9 
REMARK    7  A    between atoms: C7_14  and  N4_15 
ROOT
HETATM    1  C6  UNL     1      89.114  65.552   2.884  1.00  0.00     0.707 A 
HETATM    2  N2  UNL     1      90.356  65.165   3.226  1.00  0.00    -0.117 N 
ATOM      3  H2  UNL     1      90.938  65.631   3.922  1.00  0.00     0.206 HD
HETATM    4  N3  UNL     1      90.714  64.103   2.542  1.00  0.00    -0.118 N 
ATOM      5  H3  UNL     1      91.602  63.606   2.606  1.00  0.00     0.206 HD
HETATM    6  C7  UNL     1      89.681  63.801   1.741  1.00  0.00     0.705 A 
HETATM    7  N5  UNL     1      88.693  64.686   1.944  1.00  0.00    -0.020 N 
ATOM      8  H5  UNL     1      87.788  64.700   1.472  1.00  0.00     0.203 HD
ENDROOT
BRANCH   1   9
HETATM    9  N1  UNL     1      88.449  66.572   3.370  1.00  0.00    -0.224 N 
ATOM     10  H1  UNL     1      88.847  67.120   4.132  1.00  0.00     0.177 HD
BRANCH   9  11
HETATM   11  C5  UNL     1      87.152  66.924   2.829  1.00  0.00     0.140 C 
BRANCH  11  12
HETATM   12  C4  UNL     1      86.070  66.769   3.869  1.00  0.00     0.046 C 
BRANCH  12  13
HETATM   13  C3  UNL     1      84.864  67.607   3.580  1.00  0.00     0.169 C 
BRANCH  13  14
HETATM   14  O1  UNL     1      83.695  66.951   3.827  1.00  0.00    -0.391 OA
BRANCH  14  15
HETATM   15  C2  UNL     1      82.950  66.584   2.748  1.00  0.00     0.163 C 
HETATM   16  C1  UNL     1      83.193  65.099   2.484  1.00  0.00     0.033 C 
ENDBRANCH  14  15
ENDBRANCH  13  14
ENDBRANCH  12  13
ENDBRANCH  11  12
ENDBRANCH   9  11
ENDBRANCH   1   9
BRANCH   6  17
HETATM   17  N4  UNL     1      89.659  62.821   0.920  1.00  0.00    -0.233 N 
ATOM     18  H42 UNL     1      89.887  61.850   1.135  1.00  0.00     0.174 HD
ATOM     19  H41 UNL     1      89.407  62.895  -0.065  1.00  0.00     0.174 HD
ENDBRANCH   6  17
TORSDOF 7
ENDMDL
MODEL 5
REMARK VINA RESULT: -4.458069295      1.053      3.141
REMARK  7 active torsions:
REMARK  status: ('A' for Active; 'I' for Inactive)
REMARK    1  A    between atoms: C2_2  and  O1_3 
REMARK    2  A    between atoms: O1_3  and  C3_4 
REMARK    3  A    between atoms: C3_4  and  C4_5 
REMARK    4  A    between atoms: C4_5  and  C5_6 
REMARK    5  A    between atoms: C5_6  and  N1_7 
REMARK    6  A    between atoms: N1_7  and  C6_9 
REMARK    7  A    between atoms: C7_14  and  N4_15 
ROOT
HETATM    1  C6  UNL     1      88.464  66.486   3.215  1.00  0.00     0.707 A 
HETATM    2  N2  UNL     1      88.588  66.103   4.498  1.00  0.00    -0.117 N 
ATOM      3  H2  UNL     1      87.989  66.423   5.260  1.00  0.00     0.206 HD
HETATM    4  N3  UNL     1      89.586  65.262   4.634  1.00  0.00    -0.118 N 
ATOM      5  H3  UNL     1      89.898  64.818   5.498  1.00  0.00     0.206 HD
HETATM    6  C7  UNL     1      90.116  65.100   3.413  1.00  0.00     0.705 A 
HETATM    7  N5  UNL     1      89.433  65.848   2.534  1.00  0.00    -0.020 N 
ATOM      8  H5  UNL     1      89.615  65.921   1.532  1.00  0.00     0.203 HD
ENDROOT
BRANCH   1   9
HETATM    9  N1  UNL     1      87.574  67.317   2.727  1.00  0.00    -0.224 N 
ATOM     10  H1  UNL     1      87.321  68.154   3.251  1.00  0.00     0.177 HD
BRANCH   9  11
HETATM   11  C5  UNL     1      86.949  67.050   1.448  1.00  0.00     0.140 C 
BRANCH  11  12
HETATM   12  C4  UNL     1      86.014  65.869   1.535  1.00  0.00     0.046 C 
BRANCH  12  13
HETATM   13  C3  UNL     1      86.473  64.705   0.714  1.00  0.00     0.169 C 
BRANCH  13  14
HETATM   14  O1  UNL     1      87.193  63.801   1.437  1.00  0.00    -0.391 OA
BRANCH  14  15
HETATM   15  C2  UNL     1      88.182  63.130   0.784  1.00  0.00     0.163 C 
HETATM   16  C1  UNL     1      88.681  62.010   1.695  1.00  0.00     0.033 C 
ENDBRANCH  14  15
ENDBRANCH  13  14
ENDBRANCH  12  13
ENDBRANCH  11  12
ENDBRANCH   9  11
ENDBRANCH   1   9
BRANCH   6  17
HETATM   17  N4  UNL     1      91.115  64.347   3.147  1.00  0.00    -0.233 N 
ATOM     18  H42 UNL     1      92.066  64.656   2.947  1.00  0.00     0.174 HD
ATOM     19  H41 UNL     1      91.078  63.329   3.104  1.00  0.00     0.174 HD
ENDBRANCH   6  17
TORSDOF 7
ENDMDL
