MODEL 1
REMARK VINA RESULT: -4.524576719      0.000      0.000
REMARK  7 active torsions:
REMARK  status: ('A' for Active; 'I' for Inactive)
REMARK    1  A    between atoms: N1_1  and  C1_5 
REMARK    2  A    between atoms: C1_5  and  C2_6 
REMARK    3  A    between atoms: C2_6  and  S1_7 
REMARK    4  A    between atoms: S1_7  and  C3_8 
REMARK    5  A    between atoms: C3_8  and  C4_9 
REMARK    6  A    between atoms: C4_9  and  N2_10 
REMARK    7  A    between atoms: N2_10  and  C5_12 
ROOT
HETATM    1  C4  UNL     1      90.090  63.413   2.340  1.00  0.00     0.131 C 
ENDROOT
BRANCH   1   2
HETATM    2  C3  UNL     1      90.370  63.612   0.854  1.00  0.00     0.093 C 
BRANCH   2   3
HETATM    3  S1  UNL     1      88.843  63.537  -0.110  1.00  0.00    -0.166 SA
BRANCH   3   4
HETATM    4  C2  UNL     1      89.188  63.488  -1.856  1.00  0.00     0.101 C 
BRANCH   4   5
HETATM    5  C1  UNL     1      88.303  62.622  -2.680  1.00  0.00     0.239 C 
BRANCH   5   6
HETATM    6  N1  UNL     1      88.253  61.244  -2.337  1.00  0.00    -0.079 N 
ATOM      7  H13 UNL     1      88.902  61.059  -1.572  1.00  0.00     0.274 HD
ATOM      8  H12 UNL     1      87.364  61.038  -1.883  1.00  0.00     0.274 HD
ATOM      9  H11 UNL     1      88.414  60.576  -3.091  1.00  0.00     0.274 HD
ENDBRANCH   5   6
ENDBRANCH   4   5
ENDBRANCH   3   4
ENDBRANCH   2   3
ENDBRANCH   1   2
BRANCH   1  10
HETATM   10  N2  UNL     1      90.438  64.651   3.013  1.00  0.00    -0.374 N 
ATOM     11  H2  UNL     1      91.420  64.883   3.160  1.00  0.00     0.161 HD
BRANCH  10  12
HETATM   12  C5  UNL     1      89.516  65.473   3.435  1.00  0.00     0.131 A 
HETATM   13  C6  UNL     1      88.584  66.175   2.699  1.00  0.00     0.154 A 
HETATM   14  N3  UNL     1      87.862  66.882   3.596  1.00  0.00    -0.292 N 
HETATM   15  N4  UNL     1      88.290  66.660   4.828  1.00  0.00    -0.021 NA
ATOM     16  H3  UNL     1      87.090  67.503   3.356  1.00  0.00     0.183 HD
HETATM   17  N5  UNL     1      89.306  65.793   4.712  1.00  0.00    -0.268 N 
ATOM     18  H5  UNL     1      89.847  65.427   5.496  1.00  0.00     0.186 HD
ENDBRANCH  10  12
ENDBRANCH   1  10
TORSDOF 7
ENDMDL
MODEL 2
REMARK VINA RESULT: -4.510223639      1.469      1.558
REMARK  7 active torsions:
REMARK  status: ('A' for Active; 'I' for Inactive)
REMARK    1  A    between atoms: N1_1  and  C1_5 
REMARK    2  A    between atoms: C1_5  and  C2_6 
REMARK    3  A    between atoms: C2_6  and  S1_7 
REMARK    4  A    between atoms: S1_7  and  C3_8 
REMARK    5  A    between atoms: C3_8  and  C4_9 
REMARK    6  A    between atoms: C4_9  and  N2_10 
REMARK    7  A    between atoms: N2_10  and  C5_12 
ROOT
HETATM    1  C4  UNL     1      90.525  63.648   2.208  1.00  0.00     0.131 C 
ENDROOT
BRANCH   1   2
HETATM    2  C3  UNL     1      89.531  62.576   2.640  1.00  0.00     0.093 C 
BRANCH   2   3
HETATM    3  S1  UNL     1      88.284  62.294   1.363  1.00  0.00    -0.166 SA
BRANCH   3   4
HETATM    4  C2  UNL     1      88.591  63.308  -0.069  1.00  0.00     0.101 C 
BRANCH   4   5
HETATM    5  C1  UNL     1      87.447  64.126  -0.555  1.00  0.00     0.239 C 
BRANCH   5   6
HETATM    6  N1  UNL     1      86.857  63.738  -1.788  1.00  0.00    -0.079 N 
ATOM      7  H13 UNL     1      87.491  63.963  -2.555  1.00  0.00     0.274 HD
ATOM      8  H12 UNL     1      86.840  62.720  -1.851  1.00  0.00     0.274 HD
ATOM      9  H11 UNL     1      85.929  64.108  -1.991  1.00  0.00     0.274 HD
ENDBRANCH   5   6
ENDBRANCH   4   5
ENDBRANCH   3   4
ENDBRANCH   2   3
ENDBRANCH   1   2
BRANCH   1  10
HETATM   10  N2  UNL     1      90.599  64.625   3.280  1.00  0.00    -0.374 N 
ATOM     11  H2  UNL     1      91.434  64.665   3.864  1.00  0.00     0.161 HD
BRANCH  10  12
HETATM   12  C5  UNL     1      89.617  65.453   3.509  1.00  0.00     0.131 A 
HETATM   13  C6  UNL     1      88.800  66.094   2.601  1.00  0.00     0.154 A 
HETATM   14  N3  UNL     1      87.944  66.837   3.337  1.00  0.00    -0.292 N 
HETATM   15  N4  UNL     1      88.184  66.694   4.630  1.00  0.00    -0.021 NA
ATOM     16  H3  UNL     1      87.211  67.430   2.947  1.00  0.00     0.183 HD
HETATM   17  N5  UNL     1      89.214  65.841   4.719  1.00  0.00    -0.268 N 
ATOM     18  H5  UNL     1      89.633  65.531   5.595  1.00  0.00     0.186 HD
ENDBRANCH  10  12
ENDBRANCH   1  10
TORSDOF 7
ENDMDL
MODEL 3
REMARK VINA RESULT: -4.505096061      2.525      5.138
REMARK  7 active torsions:
REMARK  status: ('A' for Active; 'I' for Inactive)
REMARK    1  A    between atoms: N1_1  and  C1_5 
REMARK    2  A    between atoms: C1_5  and  C2_6 
REMARK    3  A    between atoms: C2_6  and  S1_7 
REMARK    4  A    between atoms: S1_7  and  C3_8 
REMARK    5  A    between atoms: C3_8  and  C4_9 
REMARK    6  A    between atoms: C4_9  and  N2_10 
REMARK    7  A    between atoms: N2_10  and  C5_12 
ROOT
HETATM    1  C4  UNL     1      86.276  63.868   1.266  1.00  0.00     0.131 C 
ENDROOT
BRANCH   1   2
HETATM    2  C3  UNL     1      86.150  65.359   0.976  1.00  0.00     0.093 C 
BRANCH   2   3
HETATM    3  S1  UNL     1      86.439  66.338   2.467  1.00  0.00    -0.166 SA
BRANCH   3   4
HETATM    4  C2  UNL     1      88.179  66.464   2.825  1.00  0.00     0.101 C 
BRANCH   4   5
HETATM    5  C1  UNL     1      88.590  66.152   4.220  1.00  0.00     0.239 C 
BRANCH   5   6
HETATM    6  N1  UNL     1      89.671  65.245   4.384  1.00  0.00    -0.079 N 
ATOM      7  H13 UNL     1      89.308  64.320   4.613  1.00  0.00     0.274 HD
ATOM      8  H12 UNL     1      90.100  65.059   3.478  1.00  0.00     0.274 HD
ATOM      9  H11 UNL     1      90.393  65.505   5.056  1.00  0.00     0.274 HD
ENDBRANCH   5   6
ENDBRANCH   4   5
ENDBRANCH   3   4
ENDBRANCH   2   3
ENDBRANCH   1   2
BRANCH   1  10
HETATM   10  N2  UNL     1      87.374  63.363   0.462  1.00  0.00    -0.374 N 
ATOM     11  H2  UNL     1      87.179  62.956  -0.453  1.00  0.00     0.161 HD
BRANCH  10  12
HETATM   12  C5  UNL     1      88.606  63.421   0.888  1.00  0.00     0.131 A 
HETATM   13  C6  UNL     1      89.671  64.119   0.356  1.00  0.00     0.154 A 
HETATM   14  N3  UNL     1      90.724  63.853   1.160  1.00  0.00    -0.292 N 
HETATM   15  N4  UNL     1      90.375  63.040   2.143  1.00  0.00    -0.021 NA
ATOM     16  H3  UNL     1      91.663  64.229   1.026  1.00  0.00     0.183 HD
HETATM   17  N5  UNL     1      89.072  62.784   1.963  1.00  0.00    -0.268 N 
ATOM     18  H5  UNL     1      88.511  62.183   2.566  1.00  0.00     0.186 HD
ENDBRANCH  10  12
ENDBRANCH   1  10
TORSDOF 7
ENDMDL
MODEL 4
REMARK VINA RESULT: -4.488387921      3.669      5.407
REMARK  7 active torsions:
REMARK  status: ('A' for Active; 'I' for Inactive)
REMARK    1  A    between atoms: N1_1  and  C1_5 
REMARK    2  A    between atoms: C1_5  and  C2_6 
REMARK    3  A    between atoms: C2_6  and  S1_7 
REMARK    4  A    between atoms: S1_7  and  C3_8 
REMARK    5  A    between atoms: C3_8  and  C4_9 
REMARK    6  A    between atoms: C4_9  and  N2_10 
REMARK    7  A    between atoms: N2_10  and  C5_12 
ROOT
HETATM    1  C4  UNL     1      87.339  67.183   3.156  1.00  0.00     0.131 C 
ENDROOT
BRANCH   1   2
HETATM    2  C3  UNL     1      86.069  66.405   3.480  1.00  0.00     0.093 C 
BRANCH   2   3
HETATM    3  S1  UNL     1      84.627  67.495   3.505  1.00  0.00    -0.166 SA
BRANCH   3   4
HETATM    4  C2  UNL     1      83.214  66.708   2.759  1.00  0.00     0.101 C 
BRANCH   4   5
HETATM    5  C1  UNL     1      83.213  66.624   1.274  1.00  0.00     0.239 C 
BRANCH   5   6
HETATM    6  N1  UNL     1      82.374  67.536   0.580  1.00  0.00    -0.079 N 
ATOM      7  H13 UNL     1      81.609  67.026   0.137  1.00  0.00     0.274 HD
ATOM      8  H12 UNL     1      81.857  68.103   1.251  1.00  0.00     0.274 HD
ATOM      9  H11 UNL     1      82.822  68.144  -0.106  1.00  0.00     0.274 HD
ENDBRANCH   5   6
ENDBRANCH   4   5
ENDBRANCH   3   4
ENDBRANCH   2   3
ENDBRANCH   1   2
BRANCH   1  10
HETATM   10  N2  UNL     1      88.410  66.611   3.952  1.00  0.00    -0.374 N 
ATOM     11  H2  UNL     1      88.573  66.959   4.897  1.00  0.00     0.161 HD
BRANCH  10  12
HETATM   12  C5  UNL     1      89.168  65.659   3.480  1.00  0.00     0.131 A 
HETATM   13  C6  UNL     1      89.413  65.323   2.165  1.00  0.00     0.154 A 
HETATM   14  N3  UNL     1      90.261  64.273   2.204  1.00  0.00    -0.292 N 
HETATM   15  N4  UNL     1      90.550  63.944   3.453  1.00  0.00    -0.021 NA
ATOM     16  H3  UNL     1      90.631  63.796   1.381  1.00  0.00     0.183 HD
HETATM   17  N5  UNL     1      89.871  64.805   4.224  1.00  0.00    -0.268 N 
ATOM     18  H5  UNL     1      89.888  64.806   5.244  1.00  0.00     0.186 HD
ENDBRANCH  10  12
ENDBRANCH   1  10
TORSDOF 7
ENDMDL
MODEL 5
REMARK VINA RESULT: -4.465690757      2.450      5.130
REMARK  7 active torsions:
REMARK  status: ('A' for Active; 'I' for Inactive)
REMARK    1  A    between atoms: N1_1  and  C1_5 
REMARK    2  A    between atoms: C1_5  and  C2_6 
REMARK    3  A    between atoms: C2_6  and  S1_7 
REMARK    4  A    between atoms: S1_7  and  C3_8 
REMARK    5  A    between atoms: C3_8  and  C4_9 
REMARK    6  A    between atoms: C4_9  and  N2_10 
REMARK    7  A    between atoms: N2_10  and  C5_12 
ROOT
HETATM    1  C4  UNL     1      87.572  64.416  -0.110  1.00  0.00     0.131 C 
ENDROOT
BRANCH   1   2
HETATM    2  C3  UNL     1      86.453  64.532   0.919  1.00  0.00     0.093 C 
BRANCH   2   3
HETATM    3  S1  UNL     1      86.640  66.028   1.916  1.00  0.00    -0.166 SA
BRANCH   3   4
HETATM    4  C2  UNL     1      88.318  66.220   2.479  1.00  0.00     0.101 C 
BRANCH   4   5
HETATM    5  C1  UNL     1      88.538  66.117   3.946  1.00  0.00     0.239 C 
BRANCH   5   6
HETATM    6  N1  UNL     1      89.619  65.304   4.379  1.00  0.00    -0.079 N 
ATOM      7  H13 UNL     1      89.512  65.095   5.372  1.00  0.00     0.274 HD
ATOM      8  H12 UNL     1      89.524  64.370   3.980  1.00  0.00     0.274 HD
ATOM      9  H11 UNL     1      90.560  65.655   4.203  1.00  0.00     0.274 HD
ENDBRANCH   5   6
ENDBRANCH   4   5
ENDBRANCH   3   4
ENDBRANCH   2   3
ENDBRANCH   1   2
BRANCH   1  10
HETATM   10  N2  UNL     1      88.113  63.072  -0.010  1.00  0.00    -0.374 N 
ATOM     11  H2  UNL     1      88.008  62.431  -0.795  1.00  0.00     0.161 HD
BRANCH  10  12
HETATM   12  C5  UNL     1      88.731  62.671   1.067  1.00  0.00     0.131 A 
HETATM   13  C6  UNL     1      88.424  61.609   1.893  1.00  0.00     0.154 A 
HETATM   14  N3  UNL     1      89.362  61.614   2.865  1.00  0.00    -0.292 N 
HETATM   15  N4  UNL     1      90.220  62.606   2.689  1.00  0.00    -0.021 NA
ATOM     16  H3  UNL     1      89.405  60.943   3.631  1.00  0.00     0.183 HD
HETATM   17  N5  UNL     1      89.818  63.246   1.582  1.00  0.00    -0.268 N 
ATOM     18  H5  UNL     1      90.282  64.063   1.185  1.00  0.00     0.186 HD
ENDBRANCH  10  12
ENDBRANCH   1  10
TORSDOF 7
ENDMDL
