MODEL 1
REMARK VINA RESULT: -5.480142967      0.000      0.000
REMARK  6 active torsions:
REMARK  status: ('A' for Active; 'I' for Inactive)
REMARK    1  A    between atoms: N1_1  and  C1_5 
REMARK    2  A    between atoms: C1_5  and  C2_6 
REMARK    3  A    between atoms: C2_6  and  N2_7 
REMARK    4  A    between atoms: N2_7  and  C3_10 
REMARK    5  A    between atoms: C3_10  and  C4_11 
REMARK    6  A    between atoms: C4_11  and  N3_12 
ROOT
HETATM    1  C4  UNL     1      88.758  63.372   1.124  1.00  0.00     0.200 C 
HETATM    2  C5  UNL     1      89.103  62.095   1.898  1.00  0.00     0.223 C 
HETATM    3  O1  UNL     1      90.190  62.583   2.682  1.00  0.00    -0.332 OA
HETATM    4  C6  UNL     1      89.772  63.866   3.123  1.00  0.00     0.151 A 
HETATM    5  N4  UNL     1      89.913  64.764   4.106  1.00  0.00    -0.346 N 
ATOM      6  H4  UNL     1      90.505  64.645   4.928  1.00  0.00     0.167 HD
HETATM    7  C7  UNL     1      89.159  65.841   3.848  1.00  0.00     0.091 A 
HETATM    8  C8  UNL     1      88.507  65.632   2.657  1.00  0.00     0.031 A 
HETATM    9  C9  UNL     1      88.897  64.388   2.206  1.00  0.00     0.034 A 
ENDROOT
BRANCH   1  10
HETATM   10  C3  UNL     1      89.849  63.566   0.110  1.00  0.00     0.278 C 
BRANCH  10  11
HETATM   11  N2  UNL     1      89.475  63.149  -1.222  1.00  0.00    -0.071 N 
ATOM     12  H22 UNL     1      88.578  63.523  -1.530  1.00  0.00     0.277 HD
ATOM     13  H21 UNL     1      89.225  62.163  -1.285  1.00  0.00     0.277 HD
BRANCH  11  14
HETATM   14  C2  UNL     1      90.592  63.526  -2.088  1.00  0.00     0.259 C 
BRANCH  14  15
HETATM   15  C1  UNL     1      90.452  62.923  -3.468  1.00  0.00     0.257 C 
BRANCH  15  16
HETATM   16  N1  UNL     1      91.108  61.632  -3.576  1.00  0.00    -0.078 N 
ATOM     17  H13 UNL     1      90.660  60.941  -2.974  1.00  0.00     0.274 HD
ATOM     18  H12 UNL     1      90.925  61.201  -4.482  1.00  0.00     0.274 HD
ATOM     19  H11 UNL     1      92.109  61.689  -3.390  1.00  0.00     0.274 HD
ENDBRANCH  15  16
ENDBRANCH  14  15
ENDBRANCH  11  14
ENDBRANCH  10  11
ENDBRANCH   1  10
BRANCH   1  20
HETATM   20  N3  UNL     1      87.455  63.297   0.549  1.00  0.00    -0.062 N 
ATOM     21  H33 UNL     1      87.466  62.727  -0.297  1.00  0.00     0.275 HD
ATOM     22  H32 UNL     1      86.836  62.730   1.128  1.00  0.00     0.275 HD
ATOM     23  H31 UNL     1      87.040  64.210   0.363  1.00  0.00     0.275 HD
ENDBRANCH   1  20
TORSDOF 6
ENDMDL
MODEL 2
REMARK VINA RESULT: -5.415282566      1.029      1.086
REMARK  6 active torsions:
REMARK  status: ('A' for Active; 'I' for Inactive)
REMARK    1  A    between atoms: N1_1  and  C1_5 
REMARK    2  A    between atoms: C1_5  and  C2_6 
REMARK    3  A    between atoms: C2_6  and  N2_7 
REMARK    4  A    between atoms: N2_7  and  C3_10 
REMARK    5  A    between atoms: C3_10  and  C4_11 
REMARK    6  A    between atoms: C4_11  and  N3_12 
ROOT
HETATM    1  C4  UNL     1      88.648  63.832   1.034  1.00  0.00     0.200 C 
HETATM    2  C5  UNL     1      89.178  62.498   1.569  1.00  0.00     0.223 C 
HETATM    3  O1  UNL     1      90.276  62.977   2.344  1.00  0.00    -0.332 OA
HETATM    4  C6  UNL     1      89.775  64.125   3.011  1.00  0.00     0.151 A 
HETATM    5  N4  UNL     1      89.911  64.874   4.113  1.00  0.00    -0.346 N 
ATOM      6  H4  UNL     1      90.580  64.697   4.863  1.00  0.00     0.167 HD
HETATM    7  C7  UNL     1      89.039  65.890   4.082  1.00  0.00     0.091 A 
HETATM    8  C8  UNL     1      88.311  65.794   2.921  1.00  0.00     0.031 A 
HETATM    9  C9  UNL     1      88.779  64.682   2.252  1.00  0.00     0.034 A 
ENDROOT
BRANCH   1  10
HETATM   10  C3  UNL     1      89.626  64.295  -0.009  1.00  0.00     0.278 C 
BRANCH  10  11
HETATM   11  N2  UNL     1      90.145  63.221  -0.825  1.00  0.00    -0.071 N 
ATOM     12  H22 UNL     1      89.790  62.302  -0.564  1.00  0.00     0.277 HD
ATOM     13  H21 UNL     1      91.131  63.024  -0.659  1.00  0.00     0.277 HD
BRANCH  11  14
HETATM   14  C2  UNL     1      89.848  63.591  -2.208  1.00  0.00     0.259 C 
BRANCH  14  15
HETATM   15  C1  UNL     1      88.579  62.930  -2.699  1.00  0.00     0.257 C 
BRANCH  15  16
HETATM   16  N1  UNL     1      88.410  61.592  -2.161  1.00  0.00    -0.078 N 
ATOM     17  H13 UNL     1      89.196  60.992  -2.412  1.00  0.00     0.274 HD
ATOM     18  H12 UNL     1      88.519  61.587  -1.146  1.00  0.00     0.274 HD
ATOM     19  H11 UNL     1      87.523  61.171  -2.438  1.00  0.00     0.274 HD
ENDBRANCH  15  16
ENDBRANCH  14  15
ENDBRANCH  11  14
ENDBRANCH  10  11
ENDBRANCH   1  10
BRANCH   1  20
HETATM   20  N3  UNL     1      87.314  63.705   0.544  1.00  0.00    -0.062 N 
ATOM     21  H33 UNL     1      86.855  64.615   0.506  1.00  0.00     0.275 HD
ATOM     22  H32 UNL     1      87.314  63.473  -0.449  1.00  0.00     0.275 HD
ATOM     23  H31 UNL     1      86.750  63.038   1.071  1.00  0.00     0.275 HD
ENDBRANCH   1  20
TORSDOF 6
ENDMDL
MODEL 3
REMARK VINA RESULT: -4.934735147      1.857      2.256
REMARK  6 active torsions:
REMARK  status: ('A' for Active; 'I' for Inactive)
REMARK    1  A    between atoms: N1_1  and  C1_5 
REMARK    2  A    between atoms: C1_5  and  C2_6 
REMARK    3  A    between atoms: C2_6  and  N2_7 
REMARK    4  A    between atoms: N2_7  and  C3_10 
REMARK    5  A    between atoms: C3_10  and  C4_11 
REMARK    6  A    between atoms: C4_11  and  N3_12 
ROOT
HETATM    1  C4  UNL     1      88.605  63.053   0.503  1.00  0.00     0.200 C 
HETATM    2  C5  UNL     1      89.760  63.618   1.336  1.00  0.00     0.223 C 
HETATM    3  O1  UNL     1      89.465  65.009   1.231  1.00  0.00    -0.332 OA
HETATM    4  C6  UNL     1      88.058  65.095   1.394  1.00  0.00     0.151 A 
HETATM    5  N4  UNL     1      87.071  65.897   1.814  1.00  0.00    -0.346 N 
ATOM      6  H4  UNL     1      87.199  66.836   2.190  1.00  0.00     0.167 HD
HETATM    7  C7  UNL     1      85.891  65.280   1.666  1.00  0.00     0.091 A 
HETATM    8  C8  UNL     1      86.123  64.035   1.134  1.00  0.00     0.031 A 
HETATM    9  C9  UNL     1      87.488  63.925   0.965  1.00  0.00     0.034 A 
ENDROOT
BRANCH   1  10
HETATM   10  C3  UNL     1      88.921  63.360  -0.933  1.00  0.00     0.278 C 
BRANCH  10  11
HETATM   11  N2  UNL     1      90.335  63.316  -1.231  1.00  0.00    -0.071 N 
ATOM     12  H22 UNL     1      90.772  62.424  -1.003  1.00  0.00     0.277 HD
ATOM     13  H21 UNL     1      90.900  63.893  -0.609  1.00  0.00     0.277 HD
BRANCH  11  14
HETATM   14  C2  UNL     1      90.458  63.683  -2.641  1.00  0.00     0.259 C 
BRANCH  14  15
HETATM   15  C1  UNL     1      90.068  62.538  -3.549  1.00  0.00     0.257 C 
BRANCH  15  16
HETATM   16  N1  UNL     1      91.133  61.563  -3.696  1.00  0.00    -0.078 N 
ATOM     17  H13 UNL     1      91.989  62.001  -4.034  1.00  0.00     0.274 HD
ATOM     18  H12 UNL     1      91.464  61.240  -2.786  1.00  0.00     0.274 HD
ATOM     19  H11 UNL     1      90.862  60.778  -4.289  1.00  0.00     0.274 HD
ENDBRANCH  15  16
ENDBRANCH  14  15
ENDBRANCH  11  14
ENDBRANCH  10  11
ENDBRANCH   1  10
BRANCH   1  20
HETATM   20  N3  UNL     1      88.410  61.662   0.756  1.00  0.00    -0.062 N 
ATOM     21  H33 UNL     1      87.499  61.357   0.415  1.00  0.00     0.275 HD
ATOM     22  H32 UNL     1      89.013  61.098   0.158  1.00  0.00     0.275 HD
ATOM     23  H31 UNL     1      88.533  61.407   1.736  1.00  0.00     0.275 HD
ENDBRANCH   1  20
TORSDOF 6
ENDMDL
MODEL 4
REMARK VINA RESULT: -4.931894716      4.032      6.013
REMARK  6 active torsions:
REMARK  status: ('A' for Active; 'I' for Inactive)
REMARK    1  A    between atoms: N1_1  and  C1_5 
REMARK    2  A    between atoms: C1_5  and  C2_6 
REMARK    3  A    between atoms: C2_6  and  N2_7 
REMARK    4  A    between atoms: N2_7  and  C3_10 
REMARK    5  A    between atoms: C3_10  and  C4_11 
REMARK    6  A    between atoms: C4_11  and  N3_12 
ROOT
HETATM    1  C4  UNL     1      87.005  66.814   2.181  1.00  0.00     0.200 C 
HETATM    2  C5  UNL     1      87.162  68.022   3.110  1.00  0.00     0.223 C 
HETATM    3  O1  UNL     1      87.468  67.342   4.327  1.00  0.00    -0.332 OA
HETATM    4  C6  UNL     1      88.378  66.320   3.952  1.00  0.00     0.151 A 
HETATM    5  N4  UNL     1      89.392  65.567   4.397  1.00  0.00    -0.346 N 
ATOM      6  H4  UNL     1      89.790  65.615   5.335  1.00  0.00     0.167 HD
HETATM    7  C7  UNL     1      89.805  64.742   3.426  1.00  0.00     0.091 A 
HETATM    8  C8  UNL     1      89.032  64.970   2.313  1.00  0.00     0.031 A 
HETATM    9  C9  UNL     1      88.136  65.964   2.651  1.00  0.00     0.034 A 
ENDROOT
BRANCH   1  10
HETATM   10  C3  UNL     1      85.702  66.160   2.543  1.00  0.00     0.278 C 
BRANCH  10  11
HETATM   11  N2  UNL     1      84.787  67.045   3.226  1.00  0.00    -0.071 N 
ATOM     12  H22 UNL     1      85.026  68.032   3.130  1.00  0.00     0.277 HD
ATOM     13  H21 UNL     1      84.858  67.000   4.242  1.00  0.00     0.277 HD
BRANCH  11  14
HETATM   14  C2  UNL     1      83.456  66.715   2.718  1.00  0.00     0.259 C 
BRANCH  14  15
HETATM   15  C1  UNL     1      83.425  66.710   1.206  1.00  0.00     0.257 C 
BRANCH  15  16
HETATM   16  N1  UNL     1      82.312  67.476   0.674  1.00  0.00    -0.078 N 
ATOM     17  H13 UNL     1      82.309  67.461  -0.346  1.00  0.00     0.274 HD
ATOM     18  H12 UNL     1      81.424  67.003   0.846  1.00  0.00     0.274 HD
ATOM     19  H11 UNL     1      82.294  68.432   1.029  1.00  0.00     0.274 HD
ENDBRANCH  15  16
ENDBRANCH  14  15
ENDBRANCH  11  14
ENDBRANCH  10  11
ENDBRANCH   1  10
BRANCH   1  20
HETATM   20  N3  UNL     1      87.087  67.196   0.809  1.00  0.00    -0.062 N 
ATOM     21  H33 UNL     1      86.446  66.641   0.240  1.00  0.00     0.275 HD
ATOM     22  H32 UNL     1      86.681  68.121   0.667  1.00  0.00     0.275 HD
ATOM     23  H31 UNL     1      88.033  67.155   0.431  1.00  0.00     0.275 HD
ENDBRANCH   1  20
TORSDOF 6
ENDMDL
MODEL 5
REMARK VINA RESULT: -4.888760898      2.900      4.059
REMARK  6 active torsions:
REMARK  status: ('A' for Active; 'I' for Inactive)
REMARK    1  A    between atoms: N1_1  and  C1_5 
REMARK    2  A    between atoms: C1_5  and  C2_6 
REMARK    3  A    between atoms: C2_6  and  N2_7 
REMARK    4  A    between atoms: N2_7  and  C3_10 
REMARK    5  A    between atoms: C3_10  and  C4_11 
REMARK    6  A    between atoms: C4_11  and  N3_12 
ROOT
HETATM    1  C4  UNL     1      88.567  66.271   1.463  1.00  0.00     0.200 C 
HETATM    2  C5  UNL     1      87.904  65.429   0.368  1.00  0.00     0.223 C 
HETATM    3  O1  UNL     1      86.921  64.757   1.153  1.00  0.00    -0.332 OA
HETATM    4  C6  UNL     1      86.400  65.756   2.015  1.00  0.00     0.151 A 
HETATM    5  N4  UNL     1      85.310  66.124   2.700  1.00  0.00    -0.346 N 
ATOM      6  H4  UNL     1      84.431  65.607   2.724  1.00  0.00     0.167 HD
HETATM    7  C7  UNL     1      85.547  67.272   3.349  1.00  0.00     0.091 A 
HETATM    8  C8  UNL     1      86.835  67.661   3.073  1.00  0.00     0.031 A 
HETATM    9  C9  UNL     1      87.366  66.704   2.234  1.00  0.00     0.034 A 
ENDROOT
BRANCH   1  10
HETATM   10  C3  UNL     1      89.384  65.326   2.296  1.00  0.00     0.278 C 
BRANCH  10  11
HETATM   11  N2  UNL     1      89.947  64.232   1.537  1.00  0.00    -0.071 N 
ATOM     12  H22 UNL     1      90.832  64.461   1.086  1.00  0.00     0.277 HD
ATOM     13  H21 UNL     1      89.428  64.017   0.686  1.00  0.00     0.277 HD
BRANCH  11  14
HETATM   14  C2  UNL     1      90.038  63.106   2.465  1.00  0.00     0.259 C 
BRANCH  14  15
HETATM   15  C1  UNL     1      89.001  62.049   2.159  1.00  0.00     0.257 C 
BRANCH  15  16
HETATM   16  N1  UNL     1      88.605  62.052   0.762  1.00  0.00    -0.078 N 
ATOM     17  H13 UNL     1      89.078  61.312   0.244  1.00  0.00     0.274 HD
ATOM     18  H12 UNL     1      87.641  61.736   0.652  1.00  0.00     0.274 HD
ATOM     19  H11 UNL     1      88.747  62.961   0.320  1.00  0.00     0.274 HD
ENDBRANCH  15  16
ENDBRANCH  14  15
ENDBRANCH  11  14
ENDBRANCH  10  11
ENDBRANCH   1  10
BRANCH   1  20
HETATM   20  N3  UNL     1      89.328  67.343   0.908  1.00  0.00    -0.062 N 
ATOM     21  H33 UNL     1      89.142  67.439  -0.091  1.00  0.00     0.275 HD
ATOM     22  H32 UNL     1      88.976  68.243   1.233  1.00  0.00     0.275 HD
ATOM     23  H31 UNL     1      90.330  67.262   1.083  1.00  0.00     0.275 HD
ENDBRANCH   1  20
TORSDOF 6
ENDMDL
