MODEL 1
REMARK VINA RESULT: -4.939314906      0.000      0.000
REMARK  5 active torsions:
REMARK  status: ('A' for Active; 'I' for Inactive)
REMARK    1  A    between atoms: C1_1  and  C2_2 
REMARK    2  A    between atoms: C1_1  and  C6_12 
REMARK    3  A    between atoms: C2_2  and  N1_3 
REMARK    4  A    between atoms: N1_3  and  C3_5 
REMARK    5  A    between atoms: C6_12  and  N4_13 
ROOT
HETATM    1  C2  UNL     1      90.595  63.486   2.100  1.00  0.00     0.124 C 
ENDROOT
BRANCH   1   2
HETATM    2  C1  UNL     1      89.249  62.768   2.240  1.00  0.00     0.050 C 
BRANCH   2   3
HETATM    3  C6  UNL     1      88.664  62.648   0.868  1.00  0.00     0.276 C 
BRANCH   3   4
HETATM    4  N4  UNL     1      88.509  63.900   0.166  1.00  0.00     0.115 N 
HETATM    5  C7  UNL     1      89.139  63.712  -1.136  1.00  0.00     0.302 C 
HETATM    6  C8  UNL     1      88.062  63.130  -1.973  1.00  0.00     0.264 C 
HETATM    7  N5  UNL     1      86.908  63.893  -1.543  1.00  0.00    -0.047 N 
HETATM    8  C9  UNL     1      87.125  64.176  -0.152  1.00  0.00     0.502 C 
ATOM      9  H52 UNL     1      86.734  64.725  -2.107  1.00  0.00     0.279 HD
ATOM     10  H51 UNL     1      86.019  63.430  -1.731  1.00  0.00     0.279 HD
ENDBRANCH   3   4
ENDBRANCH   2   3
ENDBRANCH   1   2
BRANCH   1  11
HETATM   11  N1  UNL     1      90.717  64.520   3.118  1.00  0.00    -0.362 N 
ATOM     12  H1  UNL     1      91.569  64.568   3.677  1.00  0.00     0.162 HD
BRANCH  11  13
HETATM   13  C3  UNL     1      89.683  65.462   3.353  1.00  0.00     0.171 C 
HETATM   14  N2  UNL     1      89.264  65.627   4.592  1.00  0.00    -0.361 N 
HETATM   15  C4  UNL     1      88.220  66.618   4.649  1.00  0.00     0.142 C 
ATOM     16  H2  UNL     1      89.629  65.123   5.400  1.00  0.00     0.162 HD
HETATM   17  C5  UNL     1      87.718  66.669   3.223  1.00  0.00     0.142 C 
HETATM   18  N3  UNL     1      88.948  66.315   2.502  1.00  0.00    -0.361 N 
ATOM     19  H3  UNL     1      89.218  66.626   1.569  1.00  0.00     0.162 HD
ENDBRANCH  11  13
ENDBRANCH   1  11
TORSDOF 5
ENDMDL
MODEL 2
REMARK VINA RESULT: -4.607258898      1.771      2.215
REMARK  5 active torsions:
REMARK  status: ('A' for Active; 'I' for Inactive)
REMARK    1  A    between atoms: C1_1  and  C2_2 
REMARK    2  A    between atoms: C1_1  and  C6_12 
REMARK    3  A    between atoms: C2_2  and  N1_3 
REMARK    4  A    between atoms: N1_3  and  C3_5 
REMARK    5  A    between atoms: C6_12  and  N4_13 
ROOT
HETATM    1  C2  UNL     1      90.159  63.321   1.612  1.00  0.00     0.124 C 
ENDROOT
BRANCH   1   2
HETATM    2  C1  UNL     1      90.683  63.741   0.234  1.00  0.00     0.050 C 
BRANCH   2   3
HETATM    3  C6  UNL     1      89.498  64.133  -0.591  1.00  0.00     0.276 C 
BRANCH   3   4
HETATM    4  N4  UNL     1      89.399  63.460  -1.864  1.00  0.00     0.115 N 
HETATM    5  C7  UNL     1      88.657  64.359  -2.739  1.00  0.00     0.302 C 
HETATM    6  C8  UNL     1      89.701  65.245  -3.309  1.00  0.00     0.264 C 
HETATM    7  N5  UNL     1      90.781  64.310  -3.552  1.00  0.00    -0.047 N 
HETATM    8  C9  UNL     1      90.687  63.328  -2.510  1.00  0.00     0.502 C 
ATOM      9  H52 UNL     1      90.774  63.911  -4.491  1.00  0.00     0.279 HD
ATOM     10  H51 UNL     1      91.697  64.753  -3.614  1.00  0.00     0.279 HD
ENDBRANCH   3   4
ENDBRANCH   2   3
ENDBRANCH   1   2
BRANCH   1  11
HETATM   11  N1  UNL     1      90.556  64.299   2.615  1.00  0.00    -0.362 N 
ATOM     12  H1  UNL     1      91.504  64.269   2.990  1.00  0.00     0.162 HD
BRANCH  11  13
HETATM   13  C3  UNL     1      89.659  65.292   3.086  1.00  0.00     0.171 C 
HETATM   14  N2  UNL     1      89.471  65.391   4.387  1.00  0.00    -0.361 N 
HETATM   15  C4  UNL     1      88.538  66.447   4.688  1.00  0.00     0.142 C 
ATOM     16  H2  UNL     1      89.923  64.801   5.086  1.00  0.00     0.162 HD
HETATM   17  C5  UNL     1      87.809  66.643   3.377  1.00  0.00     0.142 C 
HETATM   18  N3  UNL     1      88.865  66.258   2.433  1.00  0.00    -0.361 N 
ATOM     19  H3  UNL     1      88.999  66.620   1.488  1.00  0.00     0.162 HD
ENDBRANCH  11  13
ENDBRANCH   1  11
TORSDOF 5
ENDMDL
MODEL 3
REMARK VINA RESULT: -4.553169833      2.115      3.360
REMARK  5 active torsions:
REMARK  status: ('A' for Active; 'I' for Inactive)
REMARK    1  A    between atoms: C1_1  and  C2_2 
REMARK    2  A    between atoms: C1_1  and  C6_12 
REMARK    3  A    between atoms: C2_2  and  N1_3 
REMARK    4  A    between atoms: N1_3  and  C3_5 
REMARK    5  A    between atoms: C6_12  and  N4_13 
ROOT
HETATM    1  C2  UNL     1      88.517  66.165   4.223  1.00  0.00     0.124 C 
ENDROOT
BRANCH   1   2
HETATM    2  C1  UNL     1      89.603  65.435   3.425  1.00  0.00     0.050 C 
BRANCH   2   3
HETATM    3  C6  UNL     1      88.962  64.913   2.177  1.00  0.00     0.276 C 
BRANCH   3   4
HETATM    4  N4  UNL     1      89.764  63.968   1.437  1.00  0.00     0.115 N 
HETATM    5  C7  UNL     1      89.751  62.734   2.213  1.00  0.00     0.302 C 
HETATM    6  C8  UNL     1      88.529  62.034   1.750  1.00  0.00     0.264 C 
HETATM    7  N5  UNL     1      88.560  62.296   0.325  1.00  0.00    -0.047 N 
HETATM    8  C9  UNL     1      89.146  63.598   0.182  1.00  0.00     0.502 C 
ATOM      9  H52 UNL     1      89.036  61.572  -0.214  1.00  0.00     0.279 HD
ATOM     10  H51 UNL     1      87.650  62.206  -0.127  1.00  0.00     0.279 HD
ENDBRANCH   3   4
ENDBRANCH   2   3
ENDBRANCH   1   2
BRANCH   1  11
HETATM   11  N1  UNL     1      88.005  67.291   3.454  1.00  0.00    -0.362 N 
ATOM     12  H1  UNL     1      88.644  68.037   3.181  1.00  0.00     0.162 HD
BRANCH  11  13
HETATM   13  C3  UNL     1      86.640  67.377   3.077  1.00  0.00     0.171 C 
HETATM   14  N2  UNL     1      85.743  66.806   3.857  1.00  0.00    -0.361 N 
HETATM   15  C4  UNL     1      84.416  66.993   3.329  1.00  0.00     0.142 C 
ATOM     16  H2  UNL     1      85.959  66.302   4.717  1.00  0.00     0.162 HD
HETATM   17  C5  UNL     1      84.669  67.318   1.873  1.00  0.00     0.142 C 
HETATM   18  N3  UNL     1      85.982  67.969   1.978  1.00  0.00    -0.361 N 
ATOM     19  H3  UNL     1      86.346  68.706   1.374  1.00  0.00     0.162 HD
ENDBRANCH  11  13
ENDBRANCH   1  11
TORSDOF 5
ENDMDL
MODEL 4
REMARK VINA RESULT: -4.500697503      2.654      4.730
REMARK  5 active torsions:
REMARK  status: ('A' for Active; 'I' for Inactive)
REMARK    1  A    between atoms: C1_1  and  C2_2 
REMARK    2  A    between atoms: C1_1  and  C6_12 
REMARK    3  A    between atoms: C2_2  and  N1_3 
REMARK    4  A    between atoms: N1_3  and  C3_5 
REMARK    5  A    between atoms: C6_12  and  N4_13 
ROOT
HETATM    1  C2  UNL     1      88.434  66.155   4.306  1.00  0.00     0.124 C 
ENDROOT
BRANCH   1   2
HETATM    2  C1  UNL     1      87.646  67.114   3.407  1.00  0.00     0.050 C 
BRANCH   2   3
HETATM    3  C6  UNL     1      86.198  66.767   3.550  1.00  0.00     0.276 C 
BRANCH   3   4
HETATM    4  N4  UNL     1      85.560  66.326   2.332  1.00  0.00     0.115 N 
HETATM    5  C7  UNL     1      84.373  65.586   2.744  1.00  0.00     0.302 C 
HETATM    6  C8  UNL     1      83.332  66.632   2.890  1.00  0.00     0.264 C 
HETATM    7  N5  UNL     1      83.610  67.486   1.752  1.00  0.00    -0.047 N 
HETATM    8  C9  UNL     1      85.032  67.433   1.564  1.00  0.00     0.502 C 
ATOM      9  H52 UNL     1      83.078  67.240   0.917  1.00  0.00     0.279 HD
ATOM     10  H51 UNL     1      83.247  68.433   1.854  1.00  0.00     0.279 HD
ENDBRANCH   3   4
ENDBRANCH   2   3
ENDBRANCH   1   2
BRANCH   1  11
HETATM   11  N1  UNL     1      89.678  65.768   3.654  1.00  0.00    -0.362 N 
ATOM     12  H1  UNL     1      90.528  66.296   3.851  1.00  0.00     0.162 HD
BRANCH  11  13
HETATM   13  C3  UNL     1      89.737  64.675   2.751  1.00  0.00     0.171 C 
HETATM   14  N2  UNL     1      89.904  64.938   1.469  1.00  0.00    -0.361 N 
HETATM   15  C4  UNL     1      89.946  63.720   0.701  1.00  0.00     0.142 C 
ATOM     16  H2  UNL     1      89.992  65.875   1.076  1.00  0.00     0.162 HD
HETATM   17  C5  UNL     1      89.285  62.714   1.617  1.00  0.00     0.142 C 
HETATM   18  N3  UNL     1      89.646  63.278   2.924  1.00  0.00    -0.361 N 
ATOM     19  H3  UNL     1      89.801  62.760   3.789  1.00  0.00     0.162 HD
ENDBRANCH  11  13
ENDBRANCH   1  11
TORSDOF 5
ENDMDL
MODEL 5
REMARK VINA RESULT: -4.468337364      3.080      4.943
REMARK  5 active torsions:
REMARK  status: ('A' for Active; 'I' for Inactive)
REMARK    1  A    between atoms: C1_1  and  C2_2 
REMARK    2  A    between atoms: C1_1  and  C6_12 
REMARK    3  A    between atoms: C2_2  and  N1_3 
REMARK    4  A    between atoms: N1_3  and  C3_5 
REMARK    5  A    between atoms: C6_12  and  N4_13 
ROOT
HETATM    1  C2  UNL     1      87.999  67.343   0.960  1.00  0.00     0.124 C 
ENDROOT
BRANCH   1   2
HETATM    2  C1  UNL     1      86.791  68.242   1.245  1.00  0.00     0.050 C 
BRANCH   2   3
HETATM    3  C6  UNL     1      85.888  67.492   2.174  1.00  0.00     0.276 C 
BRANCH   3   4
HETATM    4  N4  UNL     1      85.005  66.550   1.527  1.00  0.00     0.115 N 
HETATM    5  C7  UNL     1      84.344  65.818   2.600  1.00  0.00     0.302 C 
HETATM    6  C8  UNL     1      83.170  66.660   2.936  1.00  0.00     0.264 C 
HETATM    7  N5  UNL     1      82.729  67.090   1.624  1.00  0.00    -0.047 N 
HETATM    8  C9  UNL     1      83.921  67.211   0.834  1.00  0.00     0.502 C 
ATOM      9  H52 UNL     1      82.024  66.480   1.209  1.00  0.00     0.279 HD
ATOM     10  H51 UNL     1      82.163  67.937   1.641  1.00  0.00     0.279 HD
ENDBRANCH   3   4
ENDBRANCH   2   3
ENDBRANCH   1   2
BRANCH   1  11
HETATM   11  N1  UNL     1      88.523  66.802   2.206  1.00  0.00    -0.362 N 
ATOM     12  H1  UNL     1      88.263  67.244   3.088  1.00  0.00     0.162 HD
BRANCH  11  13
HETATM   13  C3  UNL     1      89.386  65.676   2.226  1.00  0.00     0.171 C 
HETATM   14  N2  UNL     1      89.480  64.947   1.131  1.00  0.00    -0.361 N 
HETATM   15  C4  UNL     1      90.397  63.853   1.325  1.00  0.00     0.142 C 
ATOM     16  H2  UNL     1      88.973  65.133   0.266  1.00  0.00     0.162 HD
HETATM   17  C5  UNL     1      90.463  63.724   2.831  1.00  0.00     0.142 C 
HETATM   18  N3  UNL     1      90.217  65.118   3.221  1.00  0.00    -0.361 N 
ATOM     19  H3  UNL     1      90.576  65.592   4.050  1.00  0.00     0.162 HD
ENDBRANCH  11  13
ENDBRANCH   1  11
TORSDOF 5
ENDMDL
