MODEL 1
REMARK VINA RESULT: -4.810278732      0.000      0.000
REMARK  8 active torsions:
REMARK  status: ('A' for Active; 'I' for Inactive)
REMARK    1  A    between atoms: N1_1  and  C1_5 
REMARK    2  A    between atoms: C1_5  and  C2_6 
REMARK    3  A    between atoms: C2_6  and  C3_7 
REMARK    4  A    between atoms: C3_7  and  N2_8 
REMARK    5  A    between atoms: N2_8  and  C4_10 
REMARK    6  A    between atoms: C4_10  and  C5_11 
REMARK    7  A    between atoms: C5_11  and  N3_12 
REMARK    8  A    between atoms: C8_15  and  N4_16 
ROOT
HETATM    1  C4  UNL     1      87.672  69.972   0.499  1.00  0.00     0.098 C 
ENDROOT
BRANCH   1   2
HETATM    2  N2  UNL     1      88.589  70.885   1.028  1.00  0.00    -0.378 N 
ATOM      3  H2  UNL     1      88.500  71.209   1.992  1.00  0.00     0.164 HD
BRANCH   2   4
HETATM    4  C3  UNL     1      89.638  71.349   0.210  1.00  0.00     0.062 C 
BRANCH   4   5
HETATM    5  C2  UNL     1      90.503  72.430   0.802  1.00  0.00     0.072 C 
BRANCH   5   6
HETATM    6  C1  UNL     1      90.270  72.574   2.293  1.00  0.00     0.234 C 
BRANCH   6   7
HETATM    7  N1  UNL     1      91.474  72.264   3.035  1.00  0.00    -0.079 N 
ATOM      8  H13 UNL     1      92.300  72.281   2.438  1.00  0.00     0.274 HD
ATOM      9  H12 UNL     1      91.728  73.018   3.673  1.00  0.00     0.274 HD
ATOM     10  H11 UNL     1      91.380  71.373   3.524  1.00  0.00     0.274 HD
ENDBRANCH   6   7
ENDBRANCH   5   6
ENDBRANCH   4   5
ENDBRANCH   2   4
ENDBRANCH   1   2
BRANCH   1  11
HETATM   11  C5  UNL     1      87.453  68.691   1.208  1.00  0.00     0.076 C 
BRANCH  11  12
HETATM   12  N3  UNL     1      86.174  68.231   1.484  1.00  0.00    -0.289 NA
HETATM   13  C6  UNL     1      85.410  67.434   0.657  1.00  0.00     0.097 C 
HETATM   14  C7  UNL     1      85.111  66.126   1.402  1.00  0.00     0.049 C 
HETATM   15  C8  UNL     1      85.066  66.618   2.830  1.00  0.00     0.198 C 
HETATM   16  C9  UNL     1      86.146  67.671   2.842  1.00  0.00     0.127 C 
BRANCH  15  17
HETATM   17  N4  UNL     1      83.755  67.169   3.161  1.00  0.00    -0.074 N 
ATOM     18  H43 UNL     1      83.538  67.986   2.590  1.00  0.00     0.274 HD
ATOM     19  H42 UNL     1      83.003  66.555   2.850  1.00  0.00     0.274 HD
ATOM     20  H41 UNL     1      83.681  67.378   4.156  1.00  0.00     0.274 HD
ENDBRANCH  15  17
ENDBRANCH  11  12
ENDBRANCH   1  11
TORSDOF 8
ENDMDL
MODEL 2
REMARK VINA RESULT: -4.730899555      4.885      6.393
REMARK  8 active torsions:
REMARK  status: ('A' for Active; 'I' for Inactive)
REMARK    1  A    between atoms: N1_1  and  C1_5 
REMARK    2  A    between atoms: C1_5  and  C2_6 
REMARK    3  A    between atoms: C2_6  and  C3_7 
REMARK    4  A    between atoms: C3_7  and  N2_8 
REMARK    5  A    between atoms: N2_8  and  C4_10 
REMARK    6  A    between atoms: C4_10  and  C5_11 
REMARK    7  A    between atoms: C5_11  and  N3_12 
REMARK    8  A    between atoms: C8_15  and  N4_16 
ROOT
HETATM    1  C4  UNL     1      89.847  72.464   3.209  1.00  0.00     0.098 C 
ENDROOT
BRANCH   1   2
HETATM    2  N2  UNL     1      90.048  73.163   4.402  1.00  0.00    -0.378 N 
ATOM      3  H2  UNL     1      90.971  73.194   4.836  1.00  0.00     0.164 HD
BRANCH   2   4
HETATM    4  C3  UNL     1      88.954  73.826   4.997  1.00  0.00     0.062 C 
BRANCH   4   5
HETATM    5  C2  UNL     1      88.604  73.389   6.394  1.00  0.00     0.072 C 
BRANCH   5   6
HETATM    6  C1  UNL     1      88.731  74.533   7.382  1.00  0.00     0.234 C 
BRANCH   6   7
HETATM    7  N1  UNL     1      89.549  74.150   8.512  1.00  0.00    -0.079 N 
ATOM      8  H13 UNL     1      88.986  73.785   9.280  1.00  0.00     0.274 HD
ATOM      9  H12 UNL     1      90.100  73.315   8.313  1.00  0.00     0.274 HD
ATOM     10  H11 UNL     1      90.139  74.927   8.813  1.00  0.00     0.274 HD
ENDBRANCH   6   7
ENDBRANCH   5   6
ENDBRANCH   4   5
ENDBRANCH   2   4
ENDBRANCH   1   2
BRANCH   1  11
HETATM   11  C5  UNL     1      90.920  72.476   2.189  1.00  0.00     0.076 C 
BRANCH  11  12
HETATM   12  N3  UNL     1      90.624  72.519   0.834  1.00  0.00    -0.289 NA
HETATM   13  C6  UNL     1      91.532  72.371  -0.193  1.00  0.00     0.097 C 
HETATM   14  C7  UNL     1      91.118  71.146  -1.020  1.00  0.00     0.049 C 
HETATM   15  C8  UNL     1      89.616  71.190  -0.857  1.00  0.00     0.198 C 
HETATM   16  C9  UNL     1      89.461  71.661   0.567  1.00  0.00     0.127 C 
BRANCH  15  17
HETATM   17  N4  UNL     1      89.005  72.109  -1.812  1.00  0.00    -0.074 N 
ATOM     18  H43 UNL     1      89.705  72.693  -2.270  1.00  0.00     0.274 HD
ATOM     19  H42 UNL     1      88.652  71.616  -2.632  1.00  0.00     0.274 HD
ATOM     20  H41 UNL     1      88.278  72.672  -1.372  1.00  0.00     0.274 HD
ENDBRANCH  15  17
ENDBRANCH  11  12
ENDBRANCH   1  11
TORSDOF 8
ENDMDL
MODEL 3
REMARK VINA RESULT: -4.678743957      3.591      4.602
REMARK  8 active torsions:
REMARK  status: ('A' for Active; 'I' for Inactive)
REMARK    1  A    between atoms: N1_1  and  C1_5 
REMARK    2  A    between atoms: C1_5  and  C2_6 
REMARK    3  A    between atoms: C2_6  and  C3_7 
REMARK    4  A    between atoms: C3_7  and  N2_8 
REMARK    5  A    between atoms: N2_8  and  C4_10 
REMARK    6  A    between atoms: C4_10  and  C5_11 
REMARK    7  A    between atoms: C5_11  and  N3_12 
REMARK    8  A    between atoms: C8_15  and  N4_16 
ROOT
HETATM    1  C4  UNL     1      87.944  66.787   2.594  1.00  0.00     0.098 C 
ENDROOT
BRANCH   1   2
HETATM    2  N2  UNL     1      88.937  66.915   1.618  1.00  0.00    -0.378 N 
ATOM      3  H2  UNL     1      89.348  67.826   1.413  1.00  0.00     0.164 HD
BRANCH   2   4
HETATM    4  C3  UNL     1      89.362  65.764   0.924  1.00  0.00     0.062 C 
BRANCH   4   5
HETATM    5  C2  UNL     1      89.166  64.455   1.641  1.00  0.00     0.072 C 
BRANCH   5   6
HETATM    6  C1  UNL     1      90.492  63.826   2.021  1.00  0.00     0.234 C 
BRANCH   6   7
HETATM    7  N1  UNL     1      91.178  64.627   3.012  1.00  0.00    -0.079 N 
ATOM      8  H13 UNL     1      90.523  65.097   3.637  1.00  0.00     0.274 HD
ATOM      9  H12 UNL     1      91.658  64.047   3.700  1.00  0.00     0.274 HD
ATOM     10  H11 UNL     1      91.815  65.288   2.567  1.00  0.00     0.274 HD
ENDBRANCH   6   7
ENDBRANCH   5   6
ENDBRANCH   4   5
ENDBRANCH   2   4
ENDBRANCH   1   2
BRANCH   1  11
HETATM   11  C5  UNL     1      86.950  67.875   2.743  1.00  0.00     0.076 C 
BRANCH  11  12
HETATM   12  N3  UNL     1      85.667  67.751   2.230  1.00  0.00    -0.289 NA
HETATM   13  C6  UNL     1      85.349  67.452   0.921  1.00  0.00     0.097 C 
HETATM   14  C7  UNL     1      84.550  66.141   0.915  1.00  0.00     0.049 C 
HETATM   15  C8  UNL     1      83.834  66.240   2.242  1.00  0.00     0.198 C 
HETATM   16  C9  UNL     1      84.873  66.893   3.120  1.00  0.00     0.127 C 
BRANCH  15  17
HETATM   17  N4  UNL     1      82.621  67.044   2.133  1.00  0.00    -0.074 N 
ATOM     18  H43 UNL     1      82.742  67.964   2.555  1.00  0.00     0.274 HD
ATOM     19  H42 UNL     1      82.450  67.333   1.170  1.00  0.00     0.274 HD
ATOM     20  H41 UNL     1      81.816  66.556   2.525  1.00  0.00     0.274 HD
ENDBRANCH  15  17
ENDBRANCH  11  12
ENDBRANCH   1  11
TORSDOF 8
ENDMDL
MODEL 4
REMARK VINA RESULT: -4.596025339      5.161      5.974
REMARK  8 active torsions:
REMARK  status: ('A' for Active; 'I' for Inactive)
REMARK    1  A    between atoms: N1_1  and  C1_5 
REMARK    2  A    between atoms: C1_5  and  C2_6 
REMARK    3  A    between atoms: C2_6  and  C3_7 
REMARK    4  A    between atoms: C3_7  and  N2_8 
REMARK    5  A    between atoms: N2_8  and  C4_10 
REMARK    6  A    between atoms: C4_10  and  C5_11 
REMARK    7  A    between atoms: C5_11  and  N3_12 
REMARK    8  A    between atoms: C8_15  and  N4_16 
ROOT
HETATM    1  C4  UNL     1      86.862  63.715   0.494  1.00  0.00     0.098 C 
ENDROOT
BRANCH   1   2
HETATM    2  N2  UNL     1      88.206  63.333   0.441  1.00  0.00    -0.378 N 
ATOM      3  H2  UNL     1      88.858  63.817  -0.177  1.00  0.00     0.164 HD
BRANCH   2   4
HETATM    4  C3  UNL     1      88.645  62.269   1.255  1.00  0.00     0.062 C 
BRANCH   4   5
HETATM    5  C2  UNL     1      89.691  62.615   2.280  1.00  0.00     0.072 C 
BRANCH   5   6
HETATM    6  C1  UNL     1      90.536  63.794   1.837  1.00  0.00     0.234 C 
BRANCH   6   7
HETATM    7  N1  UNL     1      90.987  64.563   2.977  1.00  0.00    -0.079 N 
ATOM      8  H13 UNL     1      91.761  64.106   3.458  1.00  0.00     0.274 HD
ATOM      9  H12 UNL     1      91.466  65.417   2.690  1.00  0.00     0.274 HD
ATOM     10  H11 UNL     1      90.213  64.761   3.611  1.00  0.00     0.274 HD
ENDBRANCH   6   7
ENDBRANCH   5   6
ENDBRANCH   4   5
ENDBRANCH   2   4
ENDBRANCH   1   2
BRANCH   1  11
HETATM   11  C5  UNL     1      86.532  65.102   0.892  1.00  0.00     0.076 C 
BRANCH  11  12
HETATM   12  N3  UNL     1      85.217  65.534   0.968  1.00  0.00    -0.289 NA
HETATM   13  C6  UNL     1      84.104  64.792   0.628  1.00  0.00     0.097 C 
HETATM   14  C7  UNL     1      83.227  64.652   1.880  1.00  0.00     0.049 C 
HETATM   15  C8  UNL     1      83.525  65.957   2.581  1.00  0.00     0.198 C 
HETATM   16  C9  UNL     1      84.989  66.158   2.279  1.00  0.00     0.127 C 
BRANCH  15  17
HETATM   17  N4  UNL     1      82.700  67.042   2.058  1.00  0.00    -0.074 N 
ATOM     18  H43 UNL     1      81.857  66.686   1.607  1.00  0.00     0.274 HD
ATOM     19  H42 UNL     1      82.264  67.575   2.809  1.00  0.00     0.274 HD
ATOM     20  H41 UNL     1      83.233  67.644   1.431  1.00  0.00     0.274 HD
ENDBRANCH  15  17
ENDBRANCH  11  12
ENDBRANCH   1  11
TORSDOF 8
ENDMDL
MODEL 5
REMARK VINA RESULT: -4.558089171      2.441      3.284
REMARK  8 active torsions:
REMARK  status: ('A' for Active; 'I' for Inactive)
REMARK    1  A    between atoms: N1_1  and  C1_5 
REMARK    2  A    between atoms: C1_5  and  C2_6 
REMARK    3  A    between atoms: C2_6  and  C3_7 
REMARK    4  A    between atoms: C3_7  and  N2_8 
REMARK    5  A    between atoms: N2_8  and  C4_10 
REMARK    6  A    between atoms: C4_10  and  C5_11 
REMARK    7  A    between atoms: C5_11  and  N3_12 
REMARK    8  A    between atoms: C8_15  and  N4_16 
ROOT
HETATM    1  C4  UNL     1      85.570  67.509  -2.134  1.00  0.00     0.098 C 
ENDROOT
BRANCH   1   2
HETATM    2  N2  UNL     1      85.960  68.852  -2.136  1.00  0.00    -0.378 N 
ATOM      3  H2  UNL     1      85.267  69.593  -2.247  1.00  0.00     0.164 HD
BRANCH   2   4
HETATM    4  C3  UNL     1      87.326  69.165  -1.984  1.00  0.00     0.062 C 
BRANCH   4   5
HETATM    5  C2  UNL     1      87.643  70.249  -0.989  1.00  0.00     0.072 C 
BRANCH   5   6
HETATM    6  C1  UNL     1      87.609  69.726   0.434  1.00  0.00     0.234 C 
BRANCH   6   7
HETATM    7  N1  UNL     1      88.182  70.688   1.351  1.00  0.00    -0.079 N 
ATOM      8  H13 UNL     1      89.072  70.365   1.730  1.00  0.00     0.274 HD
ATOM      9  H12 UNL     1      88.514  71.520   0.865  1.00  0.00     0.274 HD
ATOM     10  H11 UNL     1      87.520  70.923   2.091  1.00  0.00     0.274 HD
ENDBRANCH   6   7
ENDBRANCH   5   6
ENDBRANCH   4   5
ENDBRANCH   2   4
ENDBRANCH   1   2
BRANCH   1  11
HETATM   11  C5  UNL     1      85.674  66.740  -0.874  1.00  0.00     0.076 C 
BRANCH  11  12
HETATM   12  N3  UNL     1      84.575  66.562  -0.047  1.00  0.00    -0.289 NA
HETATM   13  C6  UNL     1      83.991  65.351   0.266  1.00  0.00     0.097 C 
HETATM   14  C7  UNL     1      84.084  65.159   1.786  1.00  0.00     0.049 C 
HETATM   15  C8  UNL     1      84.001  66.592   2.258  1.00  0.00     0.198 C 
HETATM   16  C9  UNL     1      84.774  67.327   1.191  1.00  0.00     0.127 C 
BRANCH  15  17
HETATM   17  N4  UNL     1      82.616  67.043   2.345  1.00  0.00    -0.074 N 
ATOM     18  H43 UNL     1      82.130  66.610   3.131  1.00  0.00     0.274 HD
ATOM     19  H42 UNL     1      82.559  68.017   2.642  1.00  0.00     0.274 HD
ATOM     20  H41 UNL     1      82.119  66.890   1.468  1.00  0.00     0.274 HD
ENDBRANCH  15  17
ENDBRANCH  11  12
ENDBRANCH   1  11
TORSDOF 8
ENDMDL
