MODEL 1
REMARK VINA RESULT: -5.364778163      0.000      0.000
REMARK  6 active torsions:
REMARK  status: ('A' for Active; 'I' for Inactive)
REMARK    1  A    between atoms: N1_2  and  C2_5 
REMARK    2  A    between atoms: C2_5  and  C3_6 
REMARK    3  A    between atoms: C3_6  and  N2_7 
REMARK    4  A    between atoms: C6_11  and  C7_12 
REMARK    5  A    between atoms: C7_12  and  C8_13 
REMARK    6  A    between atoms: C8_13  and  N3_14 
ROOT
HETATM    1  N2  UNL     1      89.596  72.209   2.556  1.00  0.00    -0.375 N 
ATOM      2  H2  UNL     1      88.751  71.661   2.719  1.00  0.00     0.161 HD
HETATM    3  C4  UNL     1      90.133  72.224   1.387  1.00  0.00     0.103 A 
HETATM    4  C5  UNL     1      89.522  71.482   0.406  1.00  0.00     0.073 A 
HETATM    5  C6  UNL     1      90.037  71.450  -0.877  1.00  0.00     0.015 A 
HETATM    6  N4  UNL     1      91.146  72.163  -1.125  1.00  0.00    -0.356 N 
ATOM      7  H4  UNL     1      91.548  72.158  -2.062  1.00  0.00     0.166 HD
HETATM    8  C9  UNL     1      91.734  72.884  -0.157  1.00  0.00     0.182 A 
HETATM    9  N5  UNL     1      91.240  72.923   1.097  1.00  0.00    -0.339 N 
ATOM     10  H5  UNL     1      91.704  73.478   1.817  1.00  0.00     0.168 HD
ENDROOT
BRANCH   1  11
HETATM   11  C3  UNL     1      90.180  72.961   3.629  1.00  0.00     0.148 C 
BRANCH  11  12
HETATM   12  C2  UNL     1      89.241  74.139   3.930  1.00  0.00     0.251 C 
BRANCH  12  13
HETATM   13  N1  UNL     1      88.204  73.637   4.801  1.00  0.00    -0.077 N 
HETATM   14  C1  UNL     1      88.619  73.680   6.173  1.00  0.00     0.267 C 
ATOM     15  H12 UNL     1      87.905  72.701   4.528  1.00  0.00     0.276 HD
ATOM     16  H11 UNL     1      87.322  74.129   4.659  1.00  0.00     0.276 HD
ENDBRANCH  12  13
ENDBRANCH  11  12
ENDBRANCH   1  11
BRANCH   5  17
HETATM   17  C7  UNL     1      89.332  70.628  -1.895  1.00  0.00     0.084 C 
BRANCH  17  18
HETATM   18  C8  UNL     1      88.042  70.150  -1.273  1.00  0.00     0.235 C 
BRANCH  18  19
HETATM   19  N3  UNL     1      86.919  70.923  -1.769  1.00  0.00    -0.079 N 
ATOM     20  H33 UNL     1      87.219  71.657  -2.410  1.00  0.00     0.274 HD
ATOM     21  H32 UNL     1      86.343  70.383  -2.414  1.00  0.00     0.274 HD
ATOM     22  H31 UNL     1      86.371  71.298  -0.994  1.00  0.00     0.274 HD
ENDBRANCH  18  19
ENDBRANCH  17  18
ENDBRANCH   5  17
TORSDOF 6
ENDMDL
MODEL 2
REMARK VINA RESULT: -5.169030966      2.416      3.781
REMARK  6 active torsions:
REMARK  status: ('A' for Active; 'I' for Inactive)
REMARK    1  A    between atoms: N1_2  and  C2_5 
REMARK    2  A    between atoms: C2_5  and  C3_6 
REMARK    3  A    between atoms: C3_6  and  N2_7 
REMARK    4  A    between atoms: C6_11  and  C7_12 
REMARK    5  A    between atoms: C7_12  and  C8_13 
REMARK    6  A    between atoms: C8_13  and  N3_14 
ROOT
HETATM    1  N2  UNL     1      88.936  70.959   1.213  1.00  0.00    -0.375 N 
ATOM      2  H2  UNL     1      88.962  70.453   2.098  1.00  0.00     0.161 HD
HETATM    3  C4  UNL     1      88.236  70.504   0.235  1.00  0.00     0.103 A 
HETATM    4  C5  UNL     1      87.549  69.334   0.446  1.00  0.00     0.073 A 
HETATM    5  C6  UNL     1      86.772  68.782  -0.557  1.00  0.00     0.015 A 
HETATM    6  N4  UNL     1      86.716  69.427  -1.731  1.00  0.00    -0.356 N 
ATOM      7  H4  UNL     1      86.150  69.044  -2.489  1.00  0.00     0.166 HD
HETATM    8  C9  UNL     1      87.392  70.571  -1.925  1.00  0.00     0.182 A 
HETATM    9  N5  UNL     1      88.152  71.117  -0.955  1.00  0.00    -0.339 N 
ATOM     10  H5  UNL     1      88.658  71.987  -1.125  1.00  0.00     0.168 HD
ENDROOT
BRANCH   1  11
HETATM   11  C3  UNL     1      89.680  72.177   1.065  1.00  0.00     0.148 C 
BRANCH  11  12
HETATM   12  C2  UNL     1      90.091  72.640   2.471  1.00  0.00     0.251 C 
BRANCH  12  13
HETATM   13  N1  UNL     1      89.219  71.967   3.405  1.00  0.00    -0.077 N 
HETATM   14  C1  UNL     1      89.056  72.738   4.604  1.00  0.00     0.267 C 
ATOM     15  H12 UNL     1      89.541  71.021   3.607  1.00  0.00     0.276 HD
ATOM     16  H11 UNL     1      88.320  71.737   2.980  1.00  0.00     0.276 HD
ENDBRANCH  12  13
ENDBRANCH  11  12
ENDBRANCH   1  11
BRANCH   5  17
HETATM   17  C7  UNL     1      86.053  67.514  -0.269  1.00  0.00     0.084 C 
BRANCH  17  18
HETATM   18  C8  UNL     1      85.670  67.535   1.192  1.00  0.00     0.235 C 
BRANCH  18  19
HETATM   19  N3  UNL     1      84.245  67.762   1.342  1.00  0.00    -0.079 N 
ATOM     20  H33 UNL     1      83.757  67.710   0.448  1.00  0.00     0.274 HD
ATOM     21  H32 UNL     1      83.785  66.984   1.813  1.00  0.00     0.274 HD
ATOM     22  H31 UNL     1      84.071  68.649   1.816  1.00  0.00     0.274 HD
ENDBRANCH  18  19
ENDBRANCH  17  18
ENDBRANCH   5  17
TORSDOF 6
ENDMDL
MODEL 3
REMARK VINA RESULT: -5.115048063      1.415      2.537
REMARK  6 active torsions:
REMARK  status: ('A' for Active; 'I' for Inactive)
REMARK    1  A    between atoms: N1_2  and  C2_5 
REMARK    2  A    between atoms: C2_5  and  C3_6 
REMARK    3  A    between atoms: C3_6  and  N2_7 
REMARK    4  A    between atoms: C6_11  and  C7_12 
REMARK    5  A    between atoms: C7_12  and  C8_13 
REMARK    6  A    between atoms: C8_13  and  N3_14 
ROOT
HETATM    1  N2  UNL     1      90.091  72.255   1.834  1.00  0.00    -0.375 N 
ATOM      2  H2  UNL     1      90.882  72.806   1.500  1.00  0.00     0.161 HD
HETATM    3  C4  UNL     1      89.410  71.546   1.006  1.00  0.00     0.103 A 
HETATM    4  C5  UNL     1      89.798  71.574  -0.311  1.00  0.00     0.073 A 
HETATM    5  C6  UNL     1      89.118  70.835  -1.262  1.00  0.00     0.015 A 
HETATM    6  N4  UNL     1      88.074  70.097  -0.853  1.00  0.00    -0.356 N 
ATOM      7  H4  UNL     1      87.554  69.542  -1.533  1.00  0.00     0.166 HD
HETATM    8  C9  UNL     1      87.704  70.078   0.437  1.00  0.00     0.182 A 
HETATM    9  N5  UNL     1      88.360  70.795   1.372  1.00  0.00    -0.339 N 
ATOM     10  H5  UNL     1      88.062  70.766   2.347  1.00  0.00     0.168 HD
ENDROOT
BRANCH   1  11
HETATM   11  C3  UNL     1      89.742  72.275   3.226  1.00  0.00     0.148 C 
BRANCH  11  12
HETATM   12  C2  UNL     1      89.760  73.742   3.684  1.00  0.00     0.251 C 
BRANCH  12  13
HETATM   13  N1  UNL     1      88.556  73.955   4.453  1.00  0.00    -0.077 N 
HETATM   14  C1  UNL     1      88.403  72.944   5.459  1.00  0.00     0.267 C 
ATOM     15  H12 UNL     1      87.733  74.016   3.854  1.00  0.00     0.276 HD
ATOM     16  H11 UNL     1      88.528  74.893   4.853  1.00  0.00     0.276 HD
ENDBRANCH  12  13
ENDBRANCH  11  12
ENDBRANCH   1  11
BRANCH   5  17
HETATM   17  C7  UNL     1      89.584  70.906  -2.671  1.00  0.00     0.084 C 
BRANCH  17  18
HETATM   18  C8  UNL     1      90.684  71.940  -2.730  1.00  0.00     0.235 C 
BRANCH  18  19
HETATM   19  N3  UNL     1      90.303  73.040  -3.595  1.00  0.00    -0.079 N 
ATOM     20  H33 UNL     1      89.292  73.168  -3.623  1.00  0.00     0.274 HD
ATOM     21  H32 UNL     1      90.561  73.943  -3.196  1.00  0.00     0.274 HD
ATOM     22  H31 UNL     1      90.695  72.914  -4.529  1.00  0.00     0.274 HD
ENDBRANCH  18  19
ENDBRANCH  17  18
ENDBRANCH   5  17
TORSDOF 6
ENDMDL
MODEL 4
REMARK VINA RESULT: -5.109207520      5.896      7.373
REMARK  6 active torsions:
REMARK  status: ('A' for Active; 'I' for Inactive)
REMARK    1  A    between atoms: N1_2  and  C2_5 
REMARK    2  A    between atoms: C2_5  and  C3_6 
REMARK    3  A    between atoms: C3_6  and  N2_7 
REMARK    4  A    between atoms: C6_11  and  C7_12 
REMARK    5  A    between atoms: C7_12  and  C8_13 
REMARK    6  A    between atoms: C8_13  and  N3_14 
ROOT
HETATM    1  N2  UNL     1      87.975  67.331   0.962  1.00  0.00    -0.375 N 
ATOM      2  H2  UNL     1      88.112  66.989   0.011  1.00  0.00     0.161 HD
HETATM    3  C4  UNL     1      88.481  66.687   1.953  1.00  0.00     0.103 A 
HETATM    4  C5  UNL     1      89.193  65.548   1.665  1.00  0.00     0.073 A 
HETATM    5  C6  UNL     1      89.770  64.802   2.677  1.00  0.00     0.015 A 
HETATM    6  N4  UNL     1      89.610  65.229   3.938  1.00  0.00    -0.356 N 
ATOM      7  H4  UNL     1      90.024  64.699   4.705  1.00  0.00     0.166 HD
HETATM    8  C9  UNL     1      88.911  66.343   4.208  1.00  0.00     0.182 A 
HETATM    9  N5  UNL     1      88.345  67.078   3.229  1.00  0.00    -0.339 N 
ATOM     10  H5  UNL     1      87.818  67.922   3.457  1.00  0.00     0.168 HD
ENDROOT
BRANCH   1  11
HETATM   11  C3  UNL     1      87.219  68.529   1.188  1.00  0.00     0.148 C 
BRANCH  11  12
HETATM   12  C2  UNL     1      88.003  69.693   0.563  1.00  0.00     0.251 C 
BRANCH  12  13
HETATM   13  N1  UNL     1      87.073  70.430  -0.260  1.00  0.00    -0.077 N 
HETATM   14  C1  UNL     1      87.489  70.429  -1.633  1.00  0.00     0.267 C 
ATOM     15  H12 UNL     1      86.930  71.378   0.089  1.00  0.00     0.276 HD
ATOM     16  H11 UNL     1      86.120  70.081  -0.156  1.00  0.00     0.276 HD
ENDBRANCH  12  13
ENDBRANCH  11  12
ENDBRANCH   1  11
BRANCH   5  17
HETATM   17  C7  UNL     1      90.527  63.580   2.302  1.00  0.00     0.084 C 
BRANCH  17  18
HETATM   18  C8  UNL     1      89.558  62.422   2.335  1.00  0.00     0.235 C 
BRANCH  18  19
HETATM   19  N3  UNL     1      89.140  62.068   0.992  1.00  0.00    -0.079 N 
ATOM     20  H33 UNL     1      88.847  61.093   0.931  1.00  0.00     0.274 HD
ATOM     21  H32 UNL     1      88.255  62.510   0.742  1.00  0.00     0.274 HD
ATOM     22  H31 UNL     1      89.875  62.285   0.319  1.00  0.00     0.274 HD
ENDBRANCH  18  19
ENDBRANCH  17  18
ENDBRANCH   5  17
TORSDOF 6
ENDMDL
MODEL 5
REMARK VINA RESULT: -5.090629596      8.302      9.856
REMARK  6 active torsions:
REMARK  status: ('A' for Active; 'I' for Inactive)
REMARK    1  A    between atoms: N1_2  and  C2_5 
REMARK    2  A    between atoms: C2_5  and  C3_6 
REMARK    3  A    between atoms: C3_6  and  N2_7 
REMARK    4  A    between atoms: C6_11  and  C7_12 
REMARK    5  A    between atoms: C7_12  and  C8_13 
REMARK    6  A    between atoms: C8_13  and  N3_14 
ROOT
HETATM    1  N2  UNL     1      85.609  64.428   0.501  1.00  0.00    -0.375 N 
ATOM      2  H2  UNL     1      85.830  65.416   0.628  1.00  0.00     0.161 HD
HETATM    3  C4  UNL     1      86.549  63.551   0.542  1.00  0.00     0.103 A 
HETATM    4  C5  UNL     1      87.825  64.009   0.761  1.00  0.00     0.073 A 
HETATM    5  C6  UNL     1      88.889  63.127   0.822  1.00  0.00     0.015 A 
HETATM    6  N4  UNL     1      88.630  61.821   0.662  1.00  0.00    -0.356 N 
ATOM      7  H4  UNL     1      89.395  61.148   0.703  1.00  0.00     0.166 HD
HETATM    8  C9  UNL     1      87.378  61.386   0.449  1.00  0.00     0.182 A 
HETATM    9  N5  UNL     1      86.334  62.236   0.387  1.00  0.00    -0.339 N 
ATOM     10  H5  UNL     1      85.390  61.884   0.224  1.00  0.00     0.168 HD
ENDROOT
BRANCH   1  11
HETATM   11  C3  UNL     1      84.251  64.023   0.276  1.00  0.00     0.148 C 
BRANCH  11  12
HETATM   12  C2  UNL     1      83.459  64.341   1.553  1.00  0.00     0.251 C 
BRANCH  12  13
HETATM   13  N1  UNL     1      82.761  65.582   1.315  1.00  0.00    -0.077 N 
HETATM   14  C1  UNL     1      83.045  66.538   2.346  1.00  0.00     0.267 C 
ATOM     15  H12 UNL     1      81.758  65.435   1.205  1.00  0.00     0.276 HD
ATOM     16  H11 UNL     1      82.965  65.956   0.388  1.00  0.00     0.276 HD
ENDBRANCH  12  13
ENDBRANCH  11  12
ENDBRANCH   1  11
BRANCH   5  17
HETATM   17  C7  UNL     1      90.247  63.683   1.060  1.00  0.00     0.084 C 
BRANCH  17  18
HETATM   18  C8  UNL     1      90.420  63.826   2.554  1.00  0.00     0.235 C 
BRANCH  18  19
HETATM   19  N3  UNL     1      90.658  65.212   2.909  1.00  0.00    -0.079 N 
ATOM     20  H33 UNL     1      91.030  65.746   2.124  1.00  0.00     0.274 HD
ATOM     21  H32 UNL     1      89.787  65.724   3.044  1.00  0.00     0.274 HD
ATOM     22  H31 UNL     1      91.264  65.273   3.728  1.00  0.00     0.274 HD
ENDBRANCH  18  19
ENDBRANCH  17  18
ENDBRANCH   5  17
TORSDOF 6
ENDMDL
