MODEL 1
REMARK VINA RESULT: -5.018179331      0.000      0.000
REMARK  9 active torsions:
REMARK  status: ('A' for Active; 'I' for Inactive)
REMARK    1  A    between atoms: N1_1  and  C1_4 
REMARK    2  A    between atoms: C3_8  and  C4_9 
REMARK    3  A    between atoms: C4_9  and  C5_10 
REMARK    4  A    between atoms: C5_10  and  C6_11 
REMARK    5  A    between atoms: C6_11  and  N3_12 
REMARK    6  A    between atoms: N4_16  and  C7_17 
REMARK    7  A    between atoms: C7_17  and  C8_18 
REMARK    8  A    between atoms: C8_18  and  N5_19 
REMARK    9  A    between atoms: N5_19  and  N6_21 
ROOT
HETATM    1  C1  UNL     1      90.039  65.291   3.111  1.00  0.00     0.682 A 
HETATM    2  N2  UNL     1      89.616  65.716   4.292  1.00  0.00    -0.200 N 
ATOM      3  H2  UNL     1      90.056  65.533   5.195  1.00  0.00     0.183 HD
HETATM    4  C2  UNL     1      88.503  66.431   4.078  1.00  0.00     0.132 A 
HETATM    5  C3  UNL     1      88.240  66.444   2.749  1.00  0.00     0.050 A 
HETATM    6  N4  UNL     1      89.205  65.730   2.156  1.00  0.00    -0.152 N 
ENDROOT
BRANCH   5   7
HETATM    7  C4  UNL     1      87.091  67.130   2.108  1.00  0.00     0.061 C 
BRANCH   7   8
HETATM    8  C5  UNL     1      85.795  66.373   2.350  1.00  0.00     0.033 C 
BRANCH   8   9
HETATM    9  C6  UNL     1      84.913  67.123   3.337  1.00  0.00     0.230 C 
BRANCH   9  10
HETATM   10  N3  UNL     1      83.598  67.351   2.814  1.00  0.00    -0.079 N 
ATOM     11  H33 UNL     1      83.289  68.307   2.990  1.00  0.00     0.274 HD
ATOM     12  H32 UNL     1      83.603  67.369   1.794  1.00  0.00     0.274 HD
ATOM     13  H31 UNL     1      82.924  66.672   3.169  1.00  0.00     0.274 HD
ENDBRANCH   9  10
ENDBRANCH   8   9
ENDBRANCH   7   8
ENDBRANCH   5   7
BRANCH   6  14
HETATM   14  C7  UNL     1      89.372  65.453   0.792  1.00  0.00     0.191 C 
BRANCH  14  15
HETATM   15  C8  UNL     1      89.093  64.214   0.408  1.00  0.00    -0.008 C 
BRANCH  15  16
HETATM   16  N5  UNL     1      89.032  62.986   0.079  1.00  0.00    -0.271 N 
ATOM     17  H5  UNL     1      88.958  62.692  -0.895  1.00  0.00     0.196 HD
BRANCH  16  18
HETATM   18  N6  UNL     1      89.071  62.052   1.144  1.00  0.00    -0.338 N 
ATOM     19  H62 UNL     1      88.281  61.948   1.782  1.00  0.00     0.177 HD
ATOM     20  H61 UNL     1      89.926  61.503   1.228  1.00  0.00     0.177 HD
ENDBRANCH  16  18
ENDBRANCH  15  16
ENDBRANCH  14  15
ENDBRANCH   6  14
BRANCH   1  21
HETATM   21  N1  UNL     1      91.115  64.556   2.957  1.00  0.00    -0.234 N 
ATOM     22  H12 UNL     1      91.170  63.540   2.903  1.00  0.00     0.174 HD
ATOM     23  H11 UNL     1      92.051  64.952   2.871  1.00  0.00     0.174 HD
ENDBRANCH   1  21
TORSDOF 9
ENDMDL
MODEL 2
REMARK VINA RESULT: -4.874918068      1.509      2.395
REMARK  9 active torsions:
REMARK  status: ('A' for Active; 'I' for Inactive)
REMARK    1  A    between atoms: N1_1  and  C1_4 
REMARK    2  A    between atoms: C3_8  and  C4_9 
REMARK    3  A    between atoms: C4_9  and  C5_10 
REMARK    4  A    between atoms: C5_10  and  C6_11 
REMARK    5  A    between atoms: C6_11  and  N3_12 
REMARK    6  A    between atoms: N4_16  and  C7_17 
REMARK    7  A    between atoms: C7_17  and  C8_18 
REMARK    8  A    between atoms: C8_18  and  N5_19 
REMARK    9  A    between atoms: N5_19  and  N6_21 
ROOT
HETATM    1  C1  UNL     1      89.748  65.519   3.134  1.00  0.00     0.682 A 
HETATM    2  N2  UNL     1      89.422  65.934   4.348  1.00  0.00    -0.200 N 
ATOM      3  H2  UNL     1      89.941  65.758   5.208  1.00  0.00     0.183 HD
HETATM    4  C2  UNL     1      88.280  66.627   4.233  1.00  0.00     0.132 A 
HETATM    5  C3  UNL     1      87.902  66.636   2.932  1.00  0.00     0.050 A 
HETATM    6  N4  UNL     1      88.825  65.942   2.256  1.00  0.00    -0.152 N 
ENDROOT
BRANCH   5   7
HETATM    7  C4  UNL     1      86.689  67.300   2.395  1.00  0.00     0.061 C 
BRANCH   7   8
HETATM    8  C5  UNL     1      85.465  66.411   2.545  1.00  0.00     0.033 C 
BRANCH   8   9
HETATM    9  C6  UNL     1      84.347  67.154   3.259  1.00  0.00     0.230 C 
BRANCH   9  10
HETATM   10  N3  UNL     1      83.117  67.109   2.522  1.00  0.00    -0.079 N 
ATOM     11  H33 UNL     1      83.285  66.925   1.532  1.00  0.00     0.274 HD
ATOM     12  H32 UNL     1      82.578  66.273   2.751  1.00  0.00     0.274 HD
ATOM     13  H31 UNL     1      82.563  67.955   2.654  1.00  0.00     0.274 HD
ENDBRANCH   9  10
ENDBRANCH   8   9
ENDBRANCH   7   8
ENDBRANCH   5   7
BRANCH   6  14
HETATM   14  C7  UNL     1      88.878  65.669   0.882  1.00  0.00     0.191 C 
BRANCH  14  15
HETATM   15  C8  UNL     1      89.258  66.672   0.100  1.00  0.00    -0.008 C 
BRANCH  15  16
HETATM   16  N5  UNL     1      89.456  67.737  -0.566  1.00  0.00    -0.271 N 
ATOM     17  H5  UNL     1      89.652  67.720  -1.567  1.00  0.00     0.196 HD
BRANCH  16  18
HETATM   18  N6  UNL     1      89.390  68.951   0.163  1.00  0.00    -0.338 N 
ATOM     19  H62 UNL     1      88.499  69.426   0.313  1.00  0.00     0.177 HD
ATOM     20  H61 UNL     1      90.275  69.309   0.520  1.00  0.00     0.177 HD
ENDBRANCH  16  18
ENDBRANCH  15  16
ENDBRANCH  14  15
ENDBRANCH   6  14
BRANCH   1  21
HETATM   21  N1  UNL     1      90.821  64.805   2.884  1.00  0.00    -0.234 N 
ATOM     22  H12 UNL     1      91.393  64.291   3.553  1.00  0.00     0.174 HD
ATOM     23  H11 UNL     1      91.207  64.690   1.948  1.00  0.00     0.174 HD
ENDBRANCH   1  21
TORSDOF 9
ENDMDL
MODEL 3
REMARK VINA RESULT: -4.873661130      2.876      4.652
REMARK  9 active torsions:
REMARK  status: ('A' for Active; 'I' for Inactive)
REMARK    1  A    between atoms: N1_1  and  C1_4 
REMARK    2  A    between atoms: C3_8  and  C4_9 
REMARK    3  A    between atoms: C4_9  and  C5_10 
REMARK    4  A    between atoms: C5_10  and  C6_11 
REMARK    5  A    between atoms: C6_11  and  N3_12 
REMARK    6  A    between atoms: N4_16  and  C7_17 
REMARK    7  A    between atoms: C7_17  and  C8_18 
REMARK    8  A    between atoms: C8_18  and  N5_19 
REMARK    9  A    between atoms: N5_19  and  N6_21 
ROOT
HETATM    1  C1  UNL     1      89.037  63.662  -1.303  1.00  0.00     0.682 A 
HETATM    2  N2  UNL     1      90.354  63.798  -1.338  1.00  0.00    -0.200 N 
ATOM      3  H2  UNL     1      90.922  63.992  -2.163  1.00  0.00     0.183 HD
HETATM    4  C2  UNL     1      90.800  63.632  -0.084  1.00  0.00     0.132 A 
HETATM    5  C3  UNL     1      89.742  63.391   0.728  1.00  0.00     0.050 A 
HETATM    6  N4  UNL     1      88.648  63.413  -0.043  1.00  0.00    -0.152 N 
ENDROOT
BRANCH   5   7
HETATM    7  C4  UNL     1      89.820  63.152   2.190  1.00  0.00     0.061 C 
BRANCH   7   8
HETATM    8  C5  UNL     1      90.531  64.296   2.895  1.00  0.00     0.033 C 
BRANCH   8   9
HETATM    9  C6  UNL     1      89.621  65.511   2.997  1.00  0.00     0.230 C 
BRANCH   9  10
HETATM   10  N3  UNL     1      89.361  65.873   4.360  1.00  0.00    -0.079 N 
ATOM     11  H33 UNL     1      88.393  65.676   4.617  1.00  0.00     0.274 HD
ATOM     12  H32 UNL     1      89.831  65.239   5.007  1.00  0.00     0.274 HD
ATOM     13  H31 UNL     1      89.605  66.845   4.549  1.00  0.00     0.274 HD
ENDBRANCH   9  10
ENDBRANCH   8   9
ENDBRANCH   7   8
ENDBRANCH   5   7
BRANCH   6  14
HETATM   14  C7  UNL     1      87.312  63.218   0.333  1.00  0.00     0.191 C 
BRANCH  14  15
HETATM   15  C8  UNL     1      86.879  61.964   0.326  1.00  0.00    -0.008 C 
BRANCH  15  16
HETATM   16  N5  UNL     1      86.661  60.712   0.255  1.00  0.00    -0.271 N 
ATOM     17  H5  UNL     1      85.719  60.333   0.156  1.00  0.00     0.196 HD
BRANCH  16  18
HETATM   18  N6  UNL     1      87.802  59.875   0.324  1.00  0.00    -0.338 N 
ATOM     19  H62 UNL     1      88.370  59.690  -0.504  1.00  0.00     0.177 HD
ATOM     20  H61 UNL     1      88.013  59.477   1.239  1.00  0.00     0.177 HD
ENDBRANCH  16  18
ENDBRANCH  15  16
ENDBRANCH  14  15
ENDBRANCH   6  14
BRANCH   1  21
HETATM   21  N1  UNL     1      88.278  63.767  -2.368  1.00  0.00    -0.234 N 
ATOM     22  H12 UNL     1      87.288  64.009  -2.404  1.00  0.00     0.174 HD
ATOM     23  H11 UNL     1      88.622  63.608  -3.315  1.00  0.00     0.174 HD
ENDBRANCH   1  21
TORSDOF 9
ENDMDL
MODEL 4
REMARK VINA RESULT: -4.826305078      2.114      4.911
REMARK  9 active torsions:
REMARK  status: ('A' for Active; 'I' for Inactive)
REMARK    1  A    between atoms: N1_1  and  C1_4 
REMARK    2  A    between atoms: C3_8  and  C4_9 
REMARK    3  A    between atoms: C4_9  and  C5_10 
REMARK    4  A    between atoms: C5_10  and  C6_11 
REMARK    5  A    between atoms: C6_11  and  N3_12 
REMARK    6  A    between atoms: N4_16  and  C7_17 
REMARK    7  A    between atoms: C7_17  and  C8_18 
REMARK    8  A    between atoms: C8_18  and  N5_19 
REMARK    9  A    between atoms: N5_19  and  N6_21 
ROOT
HETATM    1  C1  UNL     1      83.924  66.845   2.335  1.00  0.00     0.682 A 
HETATM    2  N2  UNL     1      84.513  67.200   3.466  1.00  0.00    -0.200 N 
ATOM      3  H2  UNL     1      84.061  67.617   4.280  1.00  0.00     0.183 HD
HETATM    4  C2  UNL     1      85.816  66.909   3.339  1.00  0.00     0.132 A 
HETATM    5  C3  UNL     1      86.026  66.369   2.114  1.00  0.00     0.050 A 
HETATM    6  N4  UNL     1      84.839  66.334   1.497  1.00  0.00    -0.152 N 
ENDROOT
BRANCH   5   7
HETATM    7  C4  UNL     1      87.337  65.914   1.591  1.00  0.00     0.061 C 
BRANCH   7   8
HETATM    8  C5  UNL     1      88.485  66.526   2.377  1.00  0.00     0.033 C 
BRANCH   8   9
HETATM    9  C6  UNL     1      89.509  65.464   2.747  1.00  0.00     0.230 C 
BRANCH   9  10
HETATM   10  N3  UNL     1      89.759  65.429   4.159  1.00  0.00    -0.079 N 
ATOM     11  H33 UNL     1      90.030  66.348   4.510  1.00  0.00     0.274 HD
ATOM     12  H32 UNL     1      88.893  65.305   4.685  1.00  0.00     0.274 HD
ATOM     13  H31 UNL     1      90.447  64.718   4.406  1.00  0.00     0.274 HD
ENDBRANCH   9  10
ENDBRANCH   8   9
ENDBRANCH   7   8
ENDBRANCH   5   7
BRANCH   6  14
HETATM   14  C7  UNL     1      84.538  65.863   0.212  1.00  0.00     0.191 C 
BRANCH  14  15
HETATM   15  C8  UNL     1      84.397  64.550   0.087  1.00  0.00    -0.008 C 
BRANCH  15  16
HETATM   16  N5  UNL     1      84.439  63.278   0.086  1.00  0.00    -0.271 N 
ATOM     17  H5  UNL     1      83.655  62.713  -0.242  1.00  0.00     0.196 HD
BRANCH  16  18
HETATM   18  N6  UNL     1      85.636  62.692   0.567  1.00  0.00    -0.338 N 
ATOM     19  H62 UNL     1      86.114  63.069   1.386  1.00  0.00     0.177 HD
ATOM     20  H61 UNL     1      85.981  61.885   0.048  1.00  0.00     0.177 HD
ENDBRANCH  16  18
ENDBRANCH  15  16
ENDBRANCH  14  15
ENDBRANCH   6  14
BRANCH   1  21
HETATM   21  N1  UNL     1      82.638  66.993   2.120  1.00  0.00    -0.234 N 
ATOM     22  H12 UNL     1      82.053  67.788   2.377  1.00  0.00     0.174 HD
ATOM     23  H11 UNL     1      82.068  66.290   1.651  1.00  0.00     0.174 HD
ENDBRANCH   1  21
TORSDOF 9
ENDMDL
MODEL 5
REMARK VINA RESULT: -4.811676710      2.037      3.525
REMARK  9 active torsions:
REMARK  status: ('A' for Active; 'I' for Inactive)
REMARK    1  A    between atoms: N1_1  and  C1_4 
REMARK    2  A    between atoms: C3_8  and  C4_9 
REMARK    3  A    between atoms: C4_9  and  C5_10 
REMARK    4  A    between atoms: C5_10  and  C6_11 
REMARK    5  A    between atoms: C6_11  and  N3_12 
REMARK    6  A    between atoms: N4_16  and  C7_17 
REMARK    7  A    between atoms: C7_17  and  C8_18 
REMARK    8  A    between atoms: C8_18  and  N5_19 
REMARK    9  A    between atoms: N5_19  and  N6_21 
ROOT
HETATM    1  C1  UNL     1      88.072  66.841   0.833  1.00  0.00     0.682 A 
HETATM    2  N2  UNL     1      87.353  66.403  -0.188  1.00  0.00    -0.200 N 
ATOM      3  H2  UNL     1      87.649  66.357  -1.163  1.00  0.00     0.183 HD
HETATM    4  C2  UNL     1      86.161  66.030   0.301  1.00  0.00     0.132 A 
HETATM    5  C3  UNL     1      86.152  66.244   1.639  1.00  0.00     0.050 A 
HETATM    6  N4  UNL     1      87.349  66.749   1.960  1.00  0.00    -0.152 N 
ENDROOT
BRANCH   5   7
HETATM    7  C4  UNL     1      85.012  65.959   2.545  1.00  0.00     0.061 C 
BRANCH   7   8
HETATM    8  C5  UNL     1      84.042  64.974   1.914  1.00  0.00     0.033 C 
BRANCH   8   9
HETATM    9  C6  UNL     1      82.710  65.648   1.619  1.00  0.00     0.230 C 
BRANCH   9  10
HETATM   10  N3  UNL     1      82.674  66.998   2.103  1.00  0.00    -0.079 N 
ATOM     11  H33 UNL     1      83.519  67.226   2.628  1.00  0.00     0.274 HD
ATOM     12  H32 UNL     1      82.774  67.668   1.340  1.00  0.00     0.274 HD
ATOM     13  H31 UNL     1      81.835  67.183   2.652  1.00  0.00     0.274 HD
ENDBRANCH   9  10
ENDBRANCH   8   9
ENDBRANCH   7   8
ENDBRANCH   5   7
BRANCH   6  14
HETATM   14  C7  UNL     1      87.824  67.134   3.221  1.00  0.00     0.191 C 
BRANCH  14  15
HETATM   15  C8  UNL     1      88.680  66.304   3.803  1.00  0.00    -0.008 C 
BRANCH  15  16
HETATM   16  N5  UNL     1      89.631  65.558   4.201  1.00  0.00    -0.271 N 
ATOM     17  H5  UNL     1      89.666  65.189   5.151  1.00  0.00     0.196 HD
BRANCH  16  18
HETATM   18  N6  UNL     1      90.640  65.271   3.247  1.00  0.00    -0.338 N 
ATOM     19  H62 UNL     1      90.711  65.804   2.380  1.00  0.00     0.177 HD
ATOM     20  H61 UNL     1      91.275  64.509   3.482  1.00  0.00     0.177 HD
ENDBRANCH  16  18
ENDBRANCH  15  16
ENDBRANCH  14  15
ENDBRANCH   6  14
BRANCH   1  21
HETATM   21  N1  UNL     1      89.300  67.286   0.706  1.00  0.00    -0.234 N 
ATOM     22  H12 UNL     1      90.157  66.735   0.641  1.00  0.00     0.174 HD
ATOM     23  H11 UNL     1      89.531  68.278   0.657  1.00  0.00     0.174 HD
ENDBRANCH   1  21
TORSDOF 9
ENDMDL
