MODEL 1
REMARK VINA RESULT: -4.965446670      0.000      0.000
REMARK  6 active torsions:
REMARK  status: ('A' for Active; 'I' for Inactive)
REMARK    1  A    between atoms: N1_1  and  C1_5 
REMARK    2  A    between atoms: C1_5  and  C2_6 
REMARK    3  A    between atoms: C2_6  and  C3_7 
REMARK    4  A    between atoms: C3_7  and  S1_8 
REMARK    5  A    between atoms: S1_8  and  C4_10 
REMARK    6  A    between atoms: C4_10  and  C5_11 
ROOT
HETATM    1  S1  UNL     1      84.334  63.982   0.297  1.00  0.00     0.018 S 
HETATM    2  O1  UNL     1      83.755  63.046  -0.970  1.00  0.00    -0.258 OA
ENDROOT
BRANCH   1   3
HETATM    3  C3  UNL     1      86.066  64.246   0.021  1.00  0.00     0.110 C 
BRANCH   3   4
HETATM    4  C2  UNL     1      86.790  63.072   0.638  1.00  0.00     0.040 C 
BRANCH   4   5
HETATM    5  C1  UNL     1      87.062  62.073  -0.461  1.00  0.00     0.230 C 
BRANCH   5   6
HETATM    6  N1  UNL     1      86.109  60.990  -0.462  1.00  0.00    -0.079 N 
ATOM      7  H13 UNL     1      85.386  61.135   0.243  1.00  0.00     0.274 HD
ATOM      8  H12 UNL     1      85.527  61.013  -1.299  1.00  0.00     0.274 HD
ATOM      9  H11 UNL     1      86.558  60.081  -0.349  1.00  0.00     0.274 HD
ENDBRANCH   5   6
ENDBRANCH   4   5
ENDBRANCH   3   4
ENDBRANCH   1   3
BRANCH   1  10
HETATM   10  C4  UNL     1      83.588  65.592   0.324  1.00  0.00     0.155 C 
BRANCH  10  11
HETATM   11  C5  UNL     1      82.875  65.819   1.640  1.00  0.00     0.197 A 
HETATM   12  N2  UNL     1      83.091  67.136   2.156  1.00  0.00    -0.343 N 
HETATM   13  C6  UNL     1      83.830  66.759   3.140  1.00  0.00     0.187 A 
ATOM     14  H2  UNL     1      82.772  68.055   1.849  1.00  0.00     0.164 HD
HETATM   15  N3  UNL     1      84.498  67.432   4.191  1.00  0.00    -0.064 NA
HETATM   16  N4  UNL     1      83.700  65.406   2.740  1.00  0.00    -0.343 N 
ATOM     17  H4  UNL     1      84.047  64.512   3.088  1.00  0.00     0.164 HD
ENDBRANCH  10  11
ENDBRANCH   1  10
TORSDOF 6
ENDMDL
MODEL 2
REMARK VINA RESULT: -4.909925716      5.436      6.981
REMARK  6 active torsions:
REMARK  status: ('A' for Active; 'I' for Inactive)
REMARK    1  A    between atoms: N1_1  and  C1_5 
REMARK    2  A    between atoms: C1_5  and  C2_6 
REMARK    3  A    between atoms: C2_6  and  C3_7 
REMARK    4  A    between atoms: C3_7  and  S1_8 
REMARK    5  A    between atoms: S1_8  and  C4_10 
REMARK    6  A    between atoms: C4_10  and  C5_11 
ROOT
HETATM    1  S1  UNL     1      87.202  67.396   2.437  1.00  0.00     0.018 S 
HETATM    2  O1  UNL     1      86.851  68.837   3.222  1.00  0.00    -0.258 OA
ENDROOT
BRANCH   1   3
HETATM    3  C3  UNL     1      87.920  67.801   0.868  1.00  0.00     0.110 C 
BRANCH   3   4
HETATM    4  C2  UNL     1      87.196  69.026   0.360  1.00  0.00     0.040 C 
BRANCH   4   5
HETATM    5  C1  UNL     1      88.208  70.141   0.243  1.00  0.00     0.230 C 
BRANCH   5   6
HETATM    6  N1  UNL     1      88.392  70.844   1.488  1.00  0.00    -0.079 N 
ATOM      7  H13 UNL     1      87.643  70.630   2.146  1.00  0.00     0.274 HD
ATOM      8  H12 UNL     1      89.182  70.465   2.012  1.00  0.00     0.274 HD
ATOM      9  H11 UNL     1      88.488  71.850   1.352  1.00  0.00     0.274 HD
ENDBRANCH   5   6
ENDBRANCH   4   5
ENDBRANCH   3   4
ENDBRANCH   1   3
BRANCH   1  10
HETATM   10  C4  UNL     1      88.423  66.448   3.310  1.00  0.00     0.155 C 
BRANCH  10  11
HETATM   11  C5  UNL     1      89.453  65.901   2.345  1.00  0.00     0.197 A 
HETATM   12  N2  UNL     1      89.118  64.591   1.876  1.00  0.00    -0.343 N 
HETATM   13  C6  UNL     1      90.061  63.992   2.515  1.00  0.00     0.187 A 
ATOM     14  H2  UNL     1      88.386  64.251   1.253  1.00  0.00     0.164 HD
HETATM   15  N3  UNL     1      90.479  62.643   2.627  1.00  0.00    -0.064 NA
HETATM   16  N4  UNL     1      90.502  65.225   3.055  1.00  0.00    -0.343 N 
ATOM     17  H4  UNL     1      91.251  65.512   3.684  1.00  0.00     0.164 HD
ENDBRANCH  10  11
ENDBRANCH   1  10
TORSDOF 6
ENDMDL
MODEL 3
REMARK VINA RESULT: -4.890840918      1.272      1.330
REMARK  6 active torsions:
REMARK  status: ('A' for Active; 'I' for Inactive)
REMARK    1  A    between atoms: N1_1  and  C1_5 
REMARK    2  A    between atoms: C1_5  and  C2_6 
REMARK    3  A    between atoms: C2_6  and  C3_7 
REMARK    4  A    between atoms: C3_7  and  S1_8 
REMARK    5  A    between atoms: S1_8  and  C4_10 
REMARK    6  A    between atoms: C4_10  and  C5_11 
ROOT
HETATM    1  S1  UNL     1      85.511  64.535   0.556  1.00  0.00     0.018 S 
HETATM    2  O1  UNL     1      84.770  63.247   1.335  1.00  0.00    -0.258 OA
ENDROOT
BRANCH   1   3
HETATM    3  C3  UNL     1      85.899  64.013  -1.093  1.00  0.00     0.110 C 
BRANCH   3   4
HETATM    4  C2  UNL     1      85.119  62.744  -1.344  1.00  0.00     0.040 C 
BRANCH   4   5
HETATM    5  C1  UNL     1      86.108  61.604  -1.407  1.00  0.00     0.230 C 
BRANCH   5   6
HETATM    6  N1  UNL     1      86.181  60.876  -0.164  1.00  0.00    -0.079 N 
ATOM      7  H13 UNL     1      85.977  61.483   0.631  1.00  0.00     0.274 HD
ATOM      8  H12 UNL     1      85.402  60.223  -0.073  1.00  0.00     0.274 HD
ATOM      9  H11 UNL     1      87.076  60.402  -0.047  1.00  0.00     0.274 HD
ENDBRANCH   5   6
ENDBRANCH   4   5
ENDBRANCH   3   4
ENDBRANCH   1   3
BRANCH   1  10
HETATM   10  C4  UNL     1      84.419  65.925   0.390  1.00  0.00     0.155 C 
BRANCH  10  11
HETATM   11  C5  UNL     1      83.572  66.080   1.634  1.00  0.00     0.197 A 
HETATM   12  N2  UNL     1      83.632  67.405   2.172  1.00  0.00    -0.343 N 
HETATM   13  C6  UNL     1      84.305  67.077   3.220  1.00  0.00     0.187 A 
ATOM     14  H2  UNL     1      83.269  68.298   1.840  1.00  0.00     0.164 HD
HETATM   15  N3  UNL     1      84.816  67.790   4.331  1.00  0.00    -0.064 NA
HETATM   16  N4  UNL     1      84.322  65.723   2.805  1.00  0.00    -0.343 N 
ATOM     17  H4  UNL     1      84.707  64.856   3.181  1.00  0.00     0.164 HD
ENDBRANCH  10  11
ENDBRANCH   1  10
TORSDOF 6
ENDMDL
MODEL 4
REMARK VINA RESULT: -4.883255637      1.331      5.685
REMARK  6 active torsions:
REMARK  status: ('A' for Active; 'I' for Inactive)
REMARK    1  A    between atoms: N1_1  and  C1_5 
REMARK    2  A    between atoms: C1_5  and  C2_6 
REMARK    3  A    between atoms: C2_6  and  C3_7 
REMARK    4  A    between atoms: C3_7  and  S1_8 
REMARK    5  A    between atoms: S1_8  and  C4_10 
REMARK    6  A    between atoms: C4_10  and  C5_11 
ROOT
HETATM    1  S1  UNL     1      84.884  64.108   0.053  1.00  0.00     0.018 S 
HETATM    2  O1  UNL     1      84.010  63.037  -0.897  1.00  0.00    -0.258 OA
ENDROOT
BRANCH   1   3
HETATM    3  C3  UNL     1      84.332  63.915   1.727  1.00  0.00     0.110 C 
BRANCH   3   4
HETATM    4  C2  UNL     1      83.047  64.698   1.856  1.00  0.00     0.040 C 
BRANCH   4   5
HETATM    5  C1  UNL     1      83.300  66.085   1.315  1.00  0.00     0.230 C 
BRANCH   5   6
HETATM    6  N1  UNL     1      82.752  67.111   2.166  1.00  0.00    -0.079 N 
ATOM      7  H13 UNL     1      82.343  66.710   3.011  1.00  0.00     0.274 HD
ATOM      8  H12 UNL     1      83.491  67.671   2.593  1.00  0.00     0.274 HD
ATOM      9  H11 UNL     1      82.079  67.701   1.675  1.00  0.00     0.274 HD
ENDBRANCH   5   6
ENDBRANCH   4   5
ENDBRANCH   3   4
ENDBRANCH   1   3
BRANCH   1  10
HETATM   10  C4  UNL     1      86.618  63.726   0.057  1.00  0.00     0.155 C 
BRANCH  10  11
HETATM   11  C5  UNL     1      86.881  62.467  -0.739  1.00  0.00     0.197 A 
HETATM   12  N2  UNL     1      86.183  61.334  -0.213  1.00  0.00    -0.343 N 
HETATM   13  C6  UNL     1      87.236  60.736   0.222  1.00  0.00     0.187 A 
ATOM     14  H2  UNL     1      85.193  61.086  -0.191  1.00  0.00     0.164 HD
HETATM   15  N3  UNL     1      87.473  59.516   0.900  1.00  0.00    -0.064 NA
HETATM   16  N4  UNL     1      88.051  61.794  -0.251  1.00  0.00    -0.343 N 
ATOM     17  H4  UNL     1      89.052  61.994  -0.246  1.00  0.00     0.164 HD
ENDBRANCH  10  11
ENDBRANCH   1  10
TORSDOF 6
ENDMDL
MODEL 5
REMARK VINA RESULT: -4.817338864      1.704      1.910
REMARK  6 active torsions:
REMARK  status: ('A' for Active; 'I' for Inactive)
REMARK    1  A    between atoms: N1_1  and  C1_5 
REMARK    2  A    between atoms: C1_5  and  C2_6 
REMARK    3  A    between atoms: C2_6  and  C3_7 
REMARK    4  A    between atoms: C3_7  and  S1_8 
REMARK    5  A    between atoms: S1_8  and  C4_10 
REMARK    6  A    between atoms: C4_10  and  C5_11 
ROOT
HETATM    1  S1  UNL     1      84.429  65.080   0.488  1.00  0.00     0.018 S 
HETATM    2  O1  UNL     1      83.128  65.679  -0.385  1.00  0.00    -0.258 OA
ENDROOT
BRANCH   1   3
HETATM    3  C3  UNL     1      84.932  63.559  -0.274  1.00  0.00     0.110 C 
BRANCH   3   4
HETATM    4  C2  UNL     1      86.146  63.073   0.483  1.00  0.00     0.040 C 
BRANCH   4   5
HETATM    5  C1  UNL     1      86.762  61.948  -0.315  1.00  0.00     0.230 C 
BRANCH   5   6
HETATM    6  N1  UNL     1      86.303  60.654   0.124  1.00  0.00    -0.079 N 
ATOM      7  H13 UNL     1      85.941  60.695   1.077  1.00  0.00     0.274 HD
ATOM      8  H12 UNL     1      85.450  60.381  -0.363  1.00  0.00     0.274 HD
ATOM      9  H11 UNL     1      87.025  59.938   0.034  1.00  0.00     0.274 HD
ENDBRANCH   5   6
ENDBRANCH   4   5
ENDBRANCH   3   4
ENDBRANCH   1   3
BRANCH   1  10
HETATM   10  C4  UNL     1      85.835  66.161   0.406  1.00  0.00     0.155 C 
BRANCH  10  11
HETATM   11  C5  UNL     1      85.538  67.465   1.114  1.00  0.00     0.197 A 
HETATM   12  N2  UNL     1      86.130  67.524   2.415  1.00  0.00    -0.343 N 
HETATM   13  C6  UNL     1      85.016  67.446   3.056  1.00  0.00     0.187 A 
ATOM     14  H2  UNL     1      87.098  67.601   2.727  1.00  0.00     0.164 HD
HETATM   15  N3  UNL     1      84.662  67.434   4.427  1.00  0.00    -0.064 NA
HETATM   16  N4  UNL     1      84.300  67.378   1.836  1.00  0.00    -0.343 N 
ATOM     17  H4  UNL     1      83.316  67.300   1.578  1.00  0.00     0.164 HD
ENDBRANCH  10  11
ENDBRANCH   1  10
TORSDOF 6
ENDMDL
