MODEL 1
REMARK VINA RESULT: -5.694202736      0.000      0.000
REMARK  7 active torsions:
REMARK  status: ('A' for Active; 'I' for Inactive)
REMARK    1  A    between atoms: C2_2  and  C3_3 
REMARK    2  A    between atoms: C3_3  and  N1_4 
REMARK    3  A    between atoms: C4_7  and  N3_8 
REMARK    4  A    between atoms: N3_8  and  C5_10 
REMARK    5  A    between atoms: C5_10  and  C6_11 
REMARK    6  A    between atoms: C6_11  and  C7_12 
REMARK    7  A    between atoms: C7_12  and  N4_13 
ROOT
HETATM    1  N1  UNL     1      89.832  71.941   1.279  1.00  0.00    -0.106 N 
HETATM    2  N2  UNL     1      89.346  71.924   2.527  1.00  0.00    -0.115 N 
ATOM      3  H2  UNL     1      88.567  71.349   2.849  1.00  0.00     0.206 HD
HETATM    4  C4  UNL     1      90.043  72.779   3.287  1.00  0.00     0.707 A 
HETATM    5  N5  UNL     1      90.966  73.315   2.462  1.00  0.00    -0.020 N 
ATOM      6  H5  UNL     1      91.660  74.010   2.741  1.00  0.00     0.203 HD
HETATM    7  C8  UNL     1      90.847  72.807   1.222  1.00  0.00     0.708 A 
HETATM    8  N6  UNL     1      91.533  73.059   0.159  1.00  0.00    -0.233 N 
ATOM      9  H61 UNL     1      92.308  73.721   0.116  1.00  0.00     0.174 HD
ATOM     10  H62 UNL     1      91.442  72.674  -0.781  1.00  0.00     0.174 HD
ENDROOT
BRANCH   4  11
HETATM   11  N3  UNL     1      89.846  73.013   4.538  1.00  0.00    -0.224 N 
ATOM     12  H3  UNL     1      90.577  72.817   5.221  1.00  0.00     0.177 HD
BRANCH  11  13
HETATM   13  C5  UNL     1      88.583  73.553   4.957  1.00  0.00     0.140 C 
BRANCH  13  14
HETATM   14  C6  UNL     1      88.613  74.025   6.396  1.00  0.00     0.047 C 
BRANCH  14  15
HETATM   15  C7  UNL     1      89.409  73.082   7.253  1.00  0.00     0.231 C 
BRANCH  15  16
HETATM   16  N4  UNL     1      89.694  73.778   8.506  1.00  0.00    -0.079 N 
ATOM     17  H43 UNL     1      90.469  73.365   9.026  1.00  0.00     0.274 HD
ATOM     18  H42 UNL     1      90.108  74.700   8.367  1.00  0.00     0.274 HD
ATOM     19  H41 UNL     1      88.825  73.805   9.038  1.00  0.00     0.274 HD
ENDBRANCH  15  16
ENDBRANCH  14  15
ENDBRANCH  13  14
ENDBRANCH  11  13
ENDBRANCH   4  11
BRANCH   1  20
HETATM   20  C3  UNL     1      89.307  71.126   0.180  1.00  0.00     0.195 C 
BRANCH  20  21
HETATM   21  C2  UNL     1      88.177  70.347   0.734  1.00  0.00    -0.015 C 
HETATM   22  C1  UNL     1      87.488  69.568  -0.080  1.00  0.00     0.008 C 
ENDBRANCH  20  21
ENDBRANCH   1  20
TORSDOF 7
ENDMDL
MODEL 2
REMARK VINA RESULT: -5.412813010      1.803      5.770
REMARK  7 active torsions:
REMARK  status: ('A' for Active; 'I' for Inactive)
REMARK    1  A    between atoms: C2_2  and  C3_3 
REMARK    2  A    between atoms: C3_3  and  N1_4 
REMARK    3  A    between atoms: C4_7  and  N3_8 
REMARK    4  A    between atoms: N3_8  and  C5_10 
REMARK    5  A    between atoms: C5_10  and  C6_11 
REMARK    6  A    between atoms: C6_11  and  C7_12 
REMARK    7  A    between atoms: C7_12  and  N4_13 
ROOT
HETATM    1  N1  UNL     1      89.717  72.374   3.065  1.00  0.00    -0.106 N 
HETATM    2  N2  UNL     1      89.261  72.015   1.858  1.00  0.00    -0.115 N 
ATOM      3  H2  UNL     1      88.377  71.538   1.679  1.00  0.00     0.206 HD
HETATM    4  C4  UNL     1      90.147  72.380   0.922  1.00  0.00     0.707 A 
HETATM    5  N5  UNL     1      91.154  72.972   1.597  1.00  0.00    -0.020 N 
ATOM      6  H5  UNL     1      91.991  73.363   1.165  1.00  0.00     0.203 HD
HETATM    7  C8  UNL     1      90.902  72.976   2.918  1.00  0.00     0.708 A 
HETATM    8  N6  UNL     1      91.608  73.441   3.891  1.00  0.00    -0.233 N 
ATOM      9  H61 UNL     1      92.513  73.900   3.779  1.00  0.00     0.174 HD
ATOM     10  H62 UNL     1      91.417  73.444   4.893  1.00  0.00     0.174 HD
ENDROOT
BRANCH   4  11
HETATM   11  N3  UNL     1      90.028  72.190  -0.347  1.00  0.00    -0.224 N 
ATOM     12  H3  UNL     1      90.290  72.924  -1.005  1.00  0.00     0.177 HD
BRANCH  11  13
HETATM   13  C5  UNL     1      89.523  70.933  -0.822  1.00  0.00     0.140 C 
BRANCH  13  14
HETATM   14  C6  UNL     1      88.624  71.097  -2.029  1.00  0.00     0.047 C 
BRANCH  14  15
HETATM   15  C7  UNL     1      87.318  70.384  -1.825  1.00  0.00     0.231 C 
BRANCH  15  16
HETATM   16  N4  UNL     1      87.089  70.310  -0.384  1.00  0.00    -0.079 N 
ATOM     17  H43 UNL     1      87.530  69.498   0.050  1.00  0.00     0.274 HD
ATOM     18  H42 UNL     1      87.593  71.026   0.139  1.00  0.00     0.274 HD
ATOM     19  H41 UNL     1      86.081  70.343  -0.238  1.00  0.00     0.274 HD
ENDBRANCH  15  16
ENDBRANCH  14  15
ENDBRANCH  13  14
ENDBRANCH  11  13
ENDBRANCH   4  11
BRANCH   1  20
HETATM   20  C3  UNL     1      89.003  72.131   4.321  1.00  0.00     0.195 C 
BRANCH  20  21
HETATM   21  C2  UNL     1      88.558  73.453   4.816  1.00  0.00    -0.015 C 
HETATM   22  C1  UNL     1      88.613  73.693   6.114  1.00  0.00     0.008 C 
ENDBRANCH  20  21
ENDBRANCH   1  20
TORSDOF 7
ENDMDL
MODEL 3
REMARK VINA RESULT: -5.324535904      8.161     10.245
REMARK  7 active torsions:
REMARK  status: ('A' for Active; 'I' for Inactive)
REMARK    1  A    between atoms: C2_2  and  C3_3 
REMARK    2  A    between atoms: C3_3  and  N1_4 
REMARK    3  A    between atoms: C4_7  and  N3_8 
REMARK    4  A    between atoms: N3_8  and  C5_10 
REMARK    5  A    between atoms: C5_10  and  C6_11 
REMARK    6  A    between atoms: C6_11  and  C7_12 
REMARK    7  A    between atoms: C7_12  and  N4_13 
ROOT
HETATM    1  N1  UNL     1      86.243  62.907   0.037  1.00  0.00    -0.106 N 
HETATM    2  N2  UNL     1      87.320  63.282   0.738  1.00  0.00    -0.115 N 
ATOM      3  H2  UNL     1      87.410  64.155   1.259  1.00  0.00     0.206 HD
HETATM    4  C4  UNL     1      88.262  62.335   0.647  1.00  0.00     0.707 A 
HETATM    5  N5  UNL     1      87.723  61.372  -0.130  1.00  0.00    -0.020 N 
ATOM      6  H5  UNL     1      88.194  60.505  -0.391  1.00  0.00     0.203 HD
HETATM    7  C8  UNL     1      86.479  61.712  -0.512  1.00  0.00     0.708 A 
HETATM    8  N6  UNL     1      85.640  61.070  -1.251  1.00  0.00    -0.233 N 
ATOM      9  H61 UNL     1      85.821  60.157  -1.671  1.00  0.00     0.174 HD
ATOM     10  H62 UNL     1      84.696  61.328  -1.541  1.00  0.00     0.174 HD
ENDROOT
BRANCH   4  11
HETATM   11  N3  UNL     1      89.425  62.368   1.200  1.00  0.00    -0.224 N 
ATOM     12  H3  UNL     1      89.812  61.532   1.637  1.00  0.00     0.177 HD
BRANCH  11  13
HETATM   13  C5  UNL     1      90.167  63.596   1.192  1.00  0.00     0.140 C 
BRANCH  13  14
HETATM   14  C6  UNL     1      90.437  64.110   2.591  1.00  0.00     0.047 C 
BRANCH  14  15
HETATM   15  C7  UNL     1      89.722  65.409   2.832  1.00  0.00     0.231 C 
BRANCH  15  16
HETATM   16  N4  UNL     1      89.626  65.585   4.279  1.00  0.00    -0.079 N 
ATOM     17  H43 UNL     1      88.723  65.299   4.657  1.00  0.00     0.274 HD
ATOM     18  H42 UNL     1      90.201  64.924   4.802  1.00  0.00     0.274 HD
ATOM     19  H41 UNL     1      89.854  66.558   4.479  1.00  0.00     0.274 HD
ENDBRANCH  15  16
ENDBRANCH  14  15
ENDBRANCH  13  14
ENDBRANCH  11  13
ENDBRANCH   4  11
BRANCH   1  20
HETATM   20  C3  UNL     1      85.020  63.705  -0.085  1.00  0.00     0.195 C 
BRANCH  20  21
HETATM   21  C2  UNL     1      84.865  64.438   1.192  1.00  0.00    -0.015 C 
HETATM   22  C1  UNL     1      83.836  64.148   1.967  1.00  0.00     0.008 C 
ENDBRANCH  20  21
ENDBRANCH   1  20
TORSDOF 7
ENDMDL
MODEL 4
REMARK VINA RESULT: -5.298878801      3.271      5.384
REMARK  7 active torsions:
REMARK  status: ('A' for Active; 'I' for Inactive)
REMARK    1  A    between atoms: C2_2  and  C3_3 
REMARK    2  A    between atoms: C3_3  and  N1_4 
REMARK    3  A    between atoms: C4_7  and  N3_8 
REMARK    4  A    between atoms: N3_8  and  C5_10 
REMARK    5  A    between atoms: C5_10  and  C6_11 
REMARK    6  A    between atoms: C6_11  and  C7_12 
REMARK    7  A    between atoms: C7_12  and  N4_13 
ROOT
HETATM    1  N1  UNL     1      87.009  67.996   1.201  1.00  0.00    -0.106 N 
HETATM    2  N2  UNL     1      87.857  68.884   1.732  1.00  0.00    -0.115 N 
ATOM      3  H2  UNL     1      88.392  68.750   2.591  1.00  0.00     0.206 HD
HETATM    4  C4  UNL     1      87.895  69.979   0.961  1.00  0.00     0.707 A 
HETATM    5  N5  UNL     1      87.044  69.727  -0.055  1.00  0.00    -0.020 N 
ATOM      6  H5  UNL     1      86.846  70.372  -0.821  1.00  0.00     0.203 HD
HETATM    7  C8  UNL     1      86.491  68.508   0.081  1.00  0.00     0.708 A 
HETATM    8  N6  UNL     1      85.636  67.903  -0.671  1.00  0.00    -0.233 N 
ATOM      9  H61 UNL     1      85.241  68.294  -1.526  1.00  0.00     0.174 HD
ATOM     10  H62 UNL     1      85.217  66.978  -0.568  1.00  0.00     0.174 HD
ENDROOT
BRANCH   4  11
HETATM   11  N3  UNL     1      88.608  71.030   1.173  1.00  0.00    -0.224 N 
ATOM     12  H3  UNL     1      88.430  71.618   1.988  1.00  0.00     0.177 HD
BRANCH  11  13
HETATM   13  C5  UNL     1      89.654  71.365   0.249  1.00  0.00     0.140 C 
BRANCH  13  14
HETATM   14  C6  UNL     1      90.718  72.238   0.880  1.00  0.00     0.047 C 
BRANCH  14  15
HETATM   15  C7  UNL     1      90.335  72.620   2.282  1.00  0.00     0.231 C 
BRANCH  15  16
HETATM   16  N4  UNL     1      91.537  72.498   3.104  1.00  0.00    -0.079 N 
ATOM     17  H43 UNL     1      92.019  71.608   2.977  1.00  0.00     0.274 HD
ATOM     18  H42 UNL     1      92.297  73.104   2.794  1.00  0.00     0.274 HD
ATOM     19  H41 UNL     1      91.258  72.668   4.070  1.00  0.00     0.274 HD
ENDBRANCH  15  16
ENDBRANCH  14  15
ENDBRANCH  13  14
ENDBRANCH  11  13
ENDBRANCH   4  11
BRANCH   1  20
HETATM   20  C3  UNL     1      86.719  66.683   1.783  1.00  0.00     0.195 C 
BRANCH  20  21
HETATM   21  C2  UNL     1      86.193  66.932   3.145  1.00  0.00    -0.015 C 
HETATM   22  C1  UNL     1      84.908  67.203   3.285  1.00  0.00     0.008 C 
ENDBRANCH  20  21
ENDBRANCH   1  20
TORSDOF 7
ENDMDL
MODEL 5
REMARK VINA RESULT: -5.271271109      2.282      5.633
REMARK  7 active torsions:
REMARK  status: ('A' for Active; 'I' for Inactive)
REMARK    1  A    between atoms: C2_2  and  C3_3 
REMARK    2  A    between atoms: C3_3  and  N1_4 
REMARK    3  A    between atoms: C4_7  and  N3_8 
REMARK    4  A    between atoms: N3_8  and  C5_10 
REMARK    5  A    between atoms: C5_10  and  C6_11 
REMARK    6  A    between atoms: C6_11  and  C7_12 
REMARK    7  A    between atoms: C7_12  and  N4_13 
ROOT
HETATM    1  N1  UNL     1      90.094  72.247   1.778  1.00  0.00    -0.106 N 
HETATM    2  N2  UNL     1      89.022  71.446   1.749  1.00  0.00    -0.115 N 
ATOM      3  H2  UNL     1      88.504  71.125   2.567  1.00  0.00     0.206 HD
HETATM    4  C4  UNL     1      88.736  71.130   0.479  1.00  0.00     0.707 A 
HETATM    5  N5  UNL     1      89.667  71.766  -0.262  1.00  0.00    -0.020 N 
ATOM      6  H5  UNL     1      89.724  71.726  -1.280  1.00  0.00     0.203 HD
HETATM    7  C8  UNL     1      90.510  72.457   0.525  1.00  0.00     0.708 A 
HETATM    8  N6  UNL     1      91.524  73.187   0.206  1.00  0.00    -0.233 N 
ATOM      9  H61 UNL     1      91.842  73.347  -0.750  1.00  0.00     0.174 HD
ATOM     10  H62 UNL     1      92.163  73.711   0.804  1.00  0.00     0.174 HD
ENDROOT
BRANCH   4  11
HETATM   11  N3  UNL     1      87.768  70.378   0.086  1.00  0.00    -0.224 N 
ATOM     12  H3  UNL     1      87.116  70.706  -0.627  1.00  0.00     0.177 HD
BRANCH  11  13
HETATM   13  C5  UNL     1      87.617  69.073   0.664  1.00  0.00     0.140 C 
BRANCH  13  14
HETATM   14  C6  UNL     1      87.902  67.969  -0.333  1.00  0.00     0.047 C 
BRANCH  14  15
HETATM   15  C7  UNL     1      89.326  67.504  -0.224  1.00  0.00     0.231 C 
BRANCH  15  16
HETATM   16  N4  UNL     1      89.469  66.859   1.080  1.00  0.00    -0.079 N 
ATOM     17  H43 UNL     1      89.392  67.512   1.860  1.00  0.00     0.274 HD
ATOM     18  H42 UNL     1      88.673  66.269   1.324  1.00  0.00     0.274 HD
ATOM     19  H41 UNL     1      90.354  66.352   1.069  1.00  0.00     0.274 HD
ENDBRANCH  15  16
ENDBRANCH  14  15
ENDBRANCH  13  14
ENDBRANCH  11  13
ENDBRANCH   4  11
BRANCH   1  20
HETATM   20  C3  UNL     1      90.687  72.787   3.004  1.00  0.00     0.195 C 
BRANCH  20  21
HETATM   21  C2  UNL     1      89.649  73.630   3.639  1.00  0.00    -0.015 C 
HETATM   22  C1  UNL     1      89.219  73.304   4.844  1.00  0.00     0.008 C 
ENDBRANCH  20  21
ENDBRANCH   1  20
TORSDOF 7
ENDMDL
