MODEL 1
REMARK VINA RESULT: -6.979716202      0.000      0.000
REMARK  6 active torsions:
REMARK  status: ('A' for Active; 'I' for Inactive)
REMARK    1  A    between atoms: C2_2  and  C3_3 
REMARK    2  A    between atoms: C3_3  and  O1_6 
REMARK    3  A    between atoms: O1_6  and  C6_7 
REMARK    4  A    between atoms: C6_7  and  C7_8 
REMARK    5  A    between atoms: C7_8  and  C8_9 
REMARK    6  A    between atoms: C8_9  and  C9_10 
ROOT
HETATM    1  O1  UNL     1       0.269  -0.268   6.458  1.00  0.00    -0.351 OA
ENDROOT
BRANCH   1   2
HETATM    2  C3  UNL     1       0.094  -0.939   7.635  1.00  0.00     0.063 C 
HETATM    3  C4  UNL     1       0.907  -1.917   7.999  1.00  0.00     0.006 C 
HETATM    4  C5  UNL     1       0.764  -2.670   9.255  1.00  0.00     0.038 C 
BRANCH   2   5
HETATM    5  C2  UNL     1      -1.006  -0.601   8.546  1.00  0.00     0.026 C 
HETATM    6  C1  UNL     1      -1.648   0.537   8.363  1.00  0.00     0.014 C 
ENDBRANCH   2   5
ENDBRANCH   1   2
BRANCH   1   7
HETATM    7  C6  UNL     1       1.159  -0.696   5.430  1.00  0.00     0.175 C 
BRANCH   7   8
HETATM    8  C7  UNL     1       1.161   0.381   4.380  1.00  0.00     0.027 C 
BRANCH   8   9
HETATM    9  C8  UNL     1       0.239   1.524   4.712  1.00  0.00     0.006 C 
BRANCH   9  10
HETATM   10  C9  UNL     1      -0.878   1.680   3.709  1.00  0.00    -0.023 C 
HETATM   11  C10 UNL     1      -2.201   1.212   4.261  1.00  0.00     0.009 C 
HETATM   12  C11 UNL     1      -0.533   0.792   2.529  1.00  0.00     0.009 C 
ENDBRANCH   9  10
ENDBRANCH   8   9
ENDBRANCH   7   8
ENDBRANCH   1   7
TORSDOF 6
ENDMDL
MODEL 2
REMARK VINA RESULT: -6.934020105      1.258      2.216
REMARK  6 active torsions:
REMARK  status: ('A' for Active; 'I' for Inactive)
REMARK    1  A    between atoms: C2_2  and  C3_3 
REMARK    2  A    between atoms: C3_3  and  O1_6 
REMARK    3  A    between atoms: O1_6  and  C6_7 
REMARK    4  A    between atoms: C6_7  and  C7_8 
REMARK    5  A    between atoms: C7_8  and  C8_9 
REMARK    6  A    between atoms: C8_9  and  C9_10 
ROOT
HETATM    1  O1  UNL     1      -0.267  -1.240   5.492  1.00  0.00    -0.351 OA
ENDROOT
BRANCH   1   2
HETATM    2  C3  UNL     1      -0.979  -1.400   6.646  1.00  0.00     0.063 C 
HETATM    3  C4  UNL     1      -2.047  -0.663   6.906  1.00  0.00     0.006 C 
HETATM    4  C5  UNL     1      -2.849  -0.795   8.132  1.00  0.00     0.038 C 
BRANCH   2   5
HETATM    5  C2  UNL     1      -0.588  -2.399   7.649  1.00  0.00     0.026 C 
HETATM    6  C1  UNL     1      -0.147  -3.570   7.231  1.00  0.00     0.014 C 
ENDBRANCH   2   5
ENDBRANCH   1   2
BRANCH   1   7
HETATM    7  C6  UNL     1       1.000  -0.592   5.429  1.00  0.00     0.175 C 
BRANCH   7   8
HETATM    8  C7  UNL     1       0.928   0.399   4.300  1.00  0.00     0.027 C 
BRANCH   8   9
HETATM    9  C8  UNL     1      -0.017   1.536   4.580  1.00  0.00     0.006 C 
BRANCH   9  10
HETATM   10  C9  UNL     1      -1.044   1.721   3.489  1.00  0.00    -0.023 C 
HETATM   11  C10 UNL     1      -2.416   1.269   3.924  1.00  0.00     0.009 C 
HETATM   12  C11 UNL     1      -0.616   0.838   2.332  1.00  0.00     0.009 C 
ENDBRANCH   9  10
ENDBRANCH   8   9
ENDBRANCH   7   8
ENDBRANCH   1   7
TORSDOF 6
ENDMDL
MODEL 3
REMARK VINA RESULT: -6.912061756      1.761      2.769
REMARK  6 active torsions:
REMARK  status: ('A' for Active; 'I' for Inactive)
REMARK    1  A    between atoms: C2_2  and  C3_3 
REMARK    2  A    between atoms: C3_3  and  O1_6 
REMARK    3  A    between atoms: O1_6  and  C6_7 
REMARK    4  A    between atoms: C6_7  and  C7_8 
REMARK    5  A    between atoms: C7_8  and  C8_9 
REMARK    6  A    between atoms: C8_9  and  C9_10 
ROOT
HETATM    1  O1  UNL     1      -2.920  -0.564   5.412  1.00  0.00    -0.351 OA
ENDROOT
BRANCH   1   2
HETATM    2  C3  UNL     1      -2.075  -1.036   6.376  1.00  0.00     0.063 C 
HETATM    3  C4  UNL     1      -1.051  -1.818   6.074  1.00  0.00     0.006 C 
HETATM    4  C5  UNL     1      -0.112  -2.352   7.073  1.00  0.00     0.038 C 
BRANCH   2   5
HETATM    5  C2  UNL     1      -2.270  -0.694   7.791  1.00  0.00     0.026 C 
HETATM    6  C1  UNL     1      -2.864   0.446   8.086  1.00  0.00     0.014 C 
ENDBRANCH   2   5
ENDBRANCH   1   2
BRANCH   1   7
HETATM    7  C6  UNL     1      -2.950  -1.061   4.076  1.00  0.00     0.175 C 
BRANCH   7   8
HETATM    8  C7  UNL     1      -2.987   0.136   3.167  1.00  0.00     0.027 C 
BRANCH   8   9
HETATM    9  C8  UNL     1      -2.480   1.389   3.828  1.00  0.00     0.006 C 
BRANCH   9  10
HETATM   10  C9  UNL     1      -1.091   1.766   3.373  1.00  0.00    -0.023 C 
HETATM   11  C10 UNL     1      -0.608   0.885   2.248  1.00  0.00     0.009 C 
HETATM   12  C11 UNL     1      -0.169   1.546   4.557  1.00  0.00     0.009 C 
ENDBRANCH   9  10
ENDBRANCH   8   9
ENDBRANCH   7   8
ENDBRANCH   1   7
TORSDOF 6
ENDMDL
MODEL 4
REMARK VINA RESULT: -6.911214568      2.628      5.074
REMARK  6 active torsions:
REMARK  status: ('A' for Active; 'I' for Inactive)
REMARK    1  A    between atoms: C2_2  and  C3_3 
REMARK    2  A    between atoms: C3_3  and  O1_6 
REMARK    3  A    between atoms: O1_6  and  C6_7 
REMARK    4  A    between atoms: C6_7  and  C7_8 
REMARK    5  A    between atoms: C7_8  and  C8_9 
REMARK    6  A    between atoms: C8_9  and  C9_10 
ROOT
HETATM    1  O1  UNL     1      -2.416  -1.591   9.355  1.00  0.00    -0.351 OA
ENDROOT
BRANCH   1   2
HETATM    2  C3  UNL     1      -2.234  -0.594   8.441  1.00  0.00     0.063 C 
HETATM    3  C4  UNL     1      -2.558  -0.756   7.168  1.00  0.00     0.006 C 
HETATM    4  C5  UNL     1      -2.383   0.286   6.144  1.00  0.00     0.038 C 
BRANCH   2   5
HETATM    5  C2  UNL     1      -1.671   0.705   8.834  1.00  0.00     0.026 C 
HETATM    6  C1  UNL     1      -2.407   1.510   9.575  1.00  0.00     0.014 C 
ENDBRANCH   2   5
ENDBRANCH   1   2
BRANCH   1   7
HETATM    7  C6  UNL     1      -1.413  -2.008  10.279  1.00  0.00     0.175 C 
BRANCH   7   8
HETATM    8  C7  UNL     1      -0.770  -3.238   9.699  1.00  0.00     0.027 C 
BRANCH   8   9
HETATM    9  C8  UNL     1       0.714  -3.087   9.508  1.00  0.00     0.006 C 
BRANCH   9  10
HETATM   10  C9  UNL     1       1.103  -2.954   8.054  1.00  0.00    -0.023 C 
HETATM   11  C10 UNL     1       1.238  -1.511   7.637  1.00  0.00     0.009 C 
HETATM   12  C11 UNL     1      -0.025  -3.563   7.244  1.00  0.00     0.009 C 
ENDBRANCH   9  10
ENDBRANCH   8   9
ENDBRANCH   7   8
ENDBRANCH   1   7
TORSDOF 6
ENDMDL
MODEL 5
REMARK VINA RESULT: -6.895298087      1.509      2.587
REMARK  6 active torsions:
REMARK  status: ('A' for Active; 'I' for Inactive)
REMARK    1  A    between atoms: C2_2  and  C3_3 
REMARK    2  A    between atoms: C3_3  and  O1_6 
REMARK    3  A    between atoms: O1_6  and  C6_7 
REMARK    4  A    between atoms: C6_7  and  C7_8 
REMARK    5  A    between atoms: C7_8  and  C8_9 
REMARK    6  A    between atoms: C8_9  and  C9_10 
ROOT
HETATM    1  O1  UNL     1       0.762  -0.273   5.749  1.00  0.00    -0.351 OA
ENDROOT
BRANCH   1   2
HETATM    2  C3  UNL     1      -0.474  -0.494   6.284  1.00  0.00     0.063 C 
HETATM    3  C4  UNL     1      -1.219   0.502   6.738  1.00  0.00     0.006 C 
HETATM    4  C5  UNL     1      -2.556   0.318   7.323  1.00  0.00     0.038 C 
BRANCH   2   5
HETATM    5  C2  UNL     1      -1.030  -1.850   6.380  1.00  0.00     0.026 C 
HETATM    6  C1  UNL     1      -0.235  -2.830   6.763  1.00  0.00     0.014 C 
ENDBRANCH   2   5
ENDBRANCH   1   2
BRANCH   1   7
HETATM    7  C6  UNL     1       0.999   0.592   4.641  1.00  0.00     0.175 C 
BRANCH   7   8
HETATM    8  C7  UNL     1       0.374  -0.058   3.438  1.00  0.00     0.027 C 
BRANCH   8   9
HETATM    9  C8  UNL     1      -0.445   0.899   2.615  1.00  0.00     0.006 C 
BRANCH   9  10
HETATM   10  C9  UNL     1      -1.893   0.485   2.508  1.00  0.00    -0.023 C 
HETATM   11  C10 UNL     1      -2.768   1.240   3.477  1.00  0.00     0.009 C 
HETATM   12  C11 UNL     1      -1.955  -0.984   2.883  1.00  0.00     0.009 C 
ENDBRANCH   9  10
ENDBRANCH   8   9
ENDBRANCH   7   8
ENDBRANCH   1   7
TORSDOF 6
ENDMDL
