MODEL 1
REMARK VINA RESULT: -5.615450436      0.000      0.000
REMARK  0 active torsions:
REMARK  status: ('A' for Active; 'I' for Inactive)
ROOT
HETATM    1  C1  UNL     1       0.971   0.663   4.738  1.00  0.00    -0.030 C 
HETATM    2  C2  UNL     1       0.088   1.645   4.652  1.00  0.00    -0.030 C 
HETATM    3  C3  UNL     1      -0.812   1.835   3.488  1.00  0.00     0.026 C 
HETATM    4  C4  UNL     1      -0.853   0.690   2.526  1.00  0.00     0.004 C 
HETATM    5  C5  UNL     1      -0.422  -0.564   3.256  1.00  0.00     0.004 C 
HETATM    6  C6  UNL     1       1.050  -0.288   3.599  1.00  0.00     0.026 C 
ENDROOT
TORSDOF 0
ENDMDL
MODEL 2
REMARK VINA RESULT: -5.481264309      0.793      2.655
REMARK  0 active torsions:
REMARK  status: ('A' for Active; 'I' for Inactive)
ROOT
HETATM    1  C1  UNL     1      -0.556   0.690   2.454  1.00  0.00    -0.030 C 
HETATM    2  C2  UNL     1       0.413   0.076   3.115  1.00  0.00    -0.030 C 
HETATM    3  C3  UNL     1       0.809   0.430   4.500  1.00  0.00     0.026 C 
HETATM    4  C4  UNL     1      -0.131   1.350   5.212  1.00  0.00     0.004 C 
HETATM    5  C5  UNL     1      -1.496   1.232   4.567  1.00  0.00     0.004 C 
HETATM    6  C6  UNL     1      -1.271   1.790   3.153  1.00  0.00     0.026 C 
ENDROOT
TORSDOF 0
ENDMDL
MODEL 3
REMARK VINA RESULT: -5.481181001      1.202      2.354
REMARK  0 active torsions:
REMARK  status: ('A' for Active; 'I' for Inactive)
ROOT
HETATM    1  C1  UNL     1      -0.713   0.972   2.584  1.00  0.00    -0.030 C 
HETATM    2  C2  UNL     1      -1.878   1.320   3.109  1.00  0.00    -0.030 C 
HETATM    3  C3  UNL     1      -2.193   1.194   4.553  1.00  0.00     0.026 C 
HETATM    4  C4  UNL     1      -1.021   0.899   5.434  1.00  0.00     0.004 C 
HETATM    5  C5  UNL     1       0.236   1.358   4.727  1.00  0.00     0.004 C 
HETATM    6  C6  UNL     1       0.318   0.429   3.506  1.00  0.00     0.026 C 
ENDROOT
TORSDOF 0
ENDMDL
MODEL 4
REMARK VINA RESULT: -5.472788021      1.150      1.498
REMARK  0 active torsions:
REMARK  status: ('A' for Active; 'I' for Inactive)
ROOT
HETATM    1  C1  UNL     1      -0.759   1.011   5.337  1.00  0.00    -0.030 C 
HETATM    2  C2  UNL     1      -1.907   1.176   4.699  1.00  0.00    -0.030 C 
HETATM    3  C3  UNL     1      -2.004   1.394   3.235  1.00  0.00     0.026 C 
HETATM    4  C4  UNL     1      -0.740   1.150   2.473  1.00  0.00     0.004 C 
HETATM    5  C5  UNL     1       0.135   0.218   3.285  1.00  0.00     0.004 C 
HETATM    6  C6  UNL     1       0.487   1.050   4.527  1.00  0.00     0.026 C 
ENDROOT
TORSDOF 0
ENDMDL
MODEL 5
REMARK VINA RESULT: -5.442127973      0.416      2.020
REMARK  0 active torsions:
REMARK  status: ('A' for Active; 'I' for Inactive)
ROOT
HETATM    1  C1  UNL     1       0.235   1.678   4.769  1.00  0.00    -0.030 C 
HETATM    2  C2  UNL     1       1.124   0.717   4.580  1.00  0.00    -0.030 C 
HETATM    3  C3  UNL     1       0.863  -0.486   3.751  1.00  0.00     0.026 C 
HETATM    4  C4  UNL     1      -0.377  -0.424   2.917  1.00  0.00     0.004 C 
HETATM    5  C5  UNL     1      -0.734   1.031   2.699  1.00  0.00     0.004 C 
HETATM    6  C6  UNL     1      -1.088   1.527   4.109  1.00  0.00     0.026 C 
ENDROOT
TORSDOF 0
ENDMDL
