MODEL 1
REMARK VINA RESULT: -6.861073095      0.000      0.000
REMARK  5 active torsions:
REMARK  status: ('A' for Active; 'I' for Inactive)
REMARK    1  A    between atoms: C2_2  and  C4_4 
REMARK    2  A    between atoms: C4_4  and  C7_7 
REMARK    3  A    between atoms: C7_7  and  C8_8 
REMARK    4  A    between atoms: C8_8  and  C9_9 
REMARK    5  A    between atoms: C9_9  and  C10_11 
ROOT
HETATM    1  C4  UNL     1      -1.815   0.789   4.963  1.00  0.00    -0.057 C 
HETATM    2  C5  UNL     1      -2.874   1.075   4.298  1.00  0.00    -0.023 C 
HETATM    3  C6  UNL     1      -3.068   1.421   2.886  1.00  0.00     0.036 C 
ENDROOT
BRANCH   1   4
HETATM    4  C2  UNL     1      -0.481   0.742   4.436  1.00  0.00    -0.065 C 
HETATM    5  C1  UNL     1       0.348   1.781   4.681  1.00  0.00     0.019 C 
HETATM    6  C3  UNL     1       0.099  -0.345   3.621  1.00  0.00     0.048 C 
ENDBRANCH   1   4
BRANCH   1   7
HETATM    7  C7  UNL     1      -1.940   0.448   6.429  1.00  0.00     0.046 C 
BRANCH   7   8
HETATM    8  C8  UNL     1      -2.229  -0.992   6.677  1.00  0.00     0.082 C 
BRANCH   8   9
HETATM    9  C9  UNL     1      -0.941  -1.645   7.043  1.00  0.00     0.126 C 
HETATM   10  O1  UNL     1      -0.689  -2.767   6.655  1.00  0.00    -0.298 OA
BRANCH   9  11
HETATM   11  C10 UNL     1       0.080  -0.959   7.889  1.00  0.00     0.074 C 
HETATM   12  C11 UNL     1       1.456  -1.060   7.281  1.00  0.00     0.013 C 
ENDBRANCH   9  11
ENDBRANCH   8   9
ENDBRANCH   7   8
ENDBRANCH   1   7
TORSDOF 5
ENDMDL
MODEL 2
REMARK VINA RESULT: -6.825763459      1.760      2.313
REMARK  5 active torsions:
REMARK  status: ('A' for Active; 'I' for Inactive)
REMARK    1  A    between atoms: C2_2  and  C4_4 
REMARK    2  A    between atoms: C4_4  and  C7_7 
REMARK    3  A    between atoms: C7_7  and  C8_8 
REMARK    4  A    between atoms: C8_8  and  C9_9 
REMARK    5  A    between atoms: C9_9  and  C10_11 
ROOT
HETATM    1  C4  UNL     1      -1.486   0.621   5.043  1.00  0.00    -0.057 C 
HETATM    2  C5  UNL     1      -2.637   0.884   4.542  1.00  0.00    -0.023 C 
HETATM    3  C6  UNL     1      -3.024   1.418   3.232  1.00  0.00     0.036 C 
ENDROOT
BRANCH   1   4
HETATM    4  C2  UNL     1      -0.223   0.806   4.387  1.00  0.00    -0.065 C 
HETATM    5  C1  UNL     1       0.503   1.907   4.681  1.00  0.00     0.019 C 
HETATM    6  C3  UNL     1       0.383  -0.096   3.387  1.00  0.00     0.048 C 
ENDBRANCH   1   4
BRANCH   1   7
HETATM    7  C7  UNL     1      -1.408   0.047   6.438  1.00  0.00     0.046 C 
BRANCH   7   8
HETATM    8  C8  UNL     1      -2.662  -0.632   6.867  1.00  0.00     0.082 C 
BRANCH   8   9
HETATM    9  C9  UNL     1      -2.843  -0.352   8.318  1.00  0.00     0.126 C 
HETATM   10  O1  UNL     1      -2.582  -1.200   9.146  1.00  0.00    -0.298 OA
BRANCH   9  11
HETATM   11  C10 UNL     1      -3.344   0.965   8.812  1.00  0.00     0.074 C 
HETATM   12  C11 UNL     1      -2.309   1.670   9.649  1.00  0.00     0.013 C 
ENDBRANCH   9  11
ENDBRANCH   8   9
ENDBRANCH   7   8
ENDBRANCH   1   7
TORSDOF 5
ENDMDL
MODEL 3
REMARK VINA RESULT: -6.794029134      1.811      3.106
REMARK  5 active torsions:
REMARK  status: ('A' for Active; 'I' for Inactive)
REMARK    1  A    between atoms: C2_2  and  C4_4 
REMARK    2  A    between atoms: C4_4  and  C7_7 
REMARK    3  A    between atoms: C7_7  and  C8_8 
REMARK    4  A    between atoms: C8_8  and  C9_9 
REMARK    5  A    between atoms: C9_9  and  C10_11 
ROOT
HETATM    1  C4  UNL     1      -1.065   0.103   6.406  1.00  0.00    -0.057 C 
HETATM    2  C5  UNL     1      -1.476   0.285   7.607  1.00  0.00    -0.023 C 
HETATM    3  C6  UNL     1      -2.806   0.603   8.139  1.00  0.00     0.036 C 
ENDROOT
BRANCH   1   4
HETATM    4  C2  UNL     1      -1.873   0.179   5.222  1.00  0.00    -0.065 C 
HETATM    5  C1  UNL     1      -1.815   1.300   4.471  1.00  0.00     0.019 C 
HETATM    6  C3  UNL     1      -2.797  -0.862   4.727  1.00  0.00     0.048 C 
ENDBRANCH   1   4
BRANCH   1   7
HETATM    7  C7  UNL     1       0.388  -0.239   6.173  1.00  0.00     0.046 C 
BRANCH   7   8
HETATM    8  C8  UNL     1       1.060  -0.809   7.374  1.00  0.00     0.082 C 
BRANCH   8   9
HETATM    9  C9  UNL     1       1.678  -2.100   6.964  1.00  0.00     0.126 C 
HETATM   10  O1  UNL     1       2.603  -2.116   6.178  1.00  0.00    -0.298 OA
BRANCH   9  11
HETATM   11  C10 UNL     1       1.197  -3.410   7.494  1.00  0.00     0.074 C 
HETATM   12  C11 UNL     1      -0.213  -3.700   7.047  1.00  0.00     0.013 C 
ENDBRANCH   9  11
ENDBRANCH   8   9
ENDBRANCH   7   8
ENDBRANCH   1   7
TORSDOF 5
ENDMDL
MODEL 4
REMARK VINA RESULT: -6.771518479      2.123      4.246
REMARK  5 active torsions:
REMARK  status: ('A' for Active; 'I' for Inactive)
REMARK    1  A    between atoms: C2_2  and  C4_4 
REMARK    2  A    between atoms: C4_4  and  C7_7 
REMARK    3  A    between atoms: C7_7  and  C8_8 
REMARK    4  A    between atoms: C8_8  and  C9_9 
REMARK    5  A    between atoms: C9_9  and  C10_11 
ROOT
HETATM    1  C4  UNL     1      -1.060   0.259   6.338  1.00  0.00    -0.057 C 
HETATM    2  C5  UNL     1      -2.138   0.581   6.954  1.00  0.00    -0.023 C 
HETATM    3  C6  UNL     1      -2.839  -0.051   8.076  1.00  0.00     0.036 C 
ENDROOT
BRANCH   1   4
HETATM    4  C2  UNL     1      -0.236  -0.880   6.628  1.00  0.00    -0.065 C 
HETATM    5  C1  UNL     1      -0.585  -2.079   6.111  1.00  0.00     0.019 C 
HETATM    6  C3  UNL     1       0.981  -0.888   7.465  1.00  0.00     0.048 C 
ENDBRANCH   1   4
BRANCH   1   7
HETATM    7  C7  UNL     1      -0.568   1.138   5.213  1.00  0.00     0.046 C 
BRANCH   7   8
HETATM    8  C8  UNL     1      -1.606   1.409   4.179  1.00  0.00     0.082 C 
BRANCH   8   9
HETATM    9  C9  UNL     1      -1.325   0.512   3.024  1.00  0.00     0.126 C 
HETATM   10  O1  UNL     1      -0.494   0.819   2.196  1.00  0.00    -0.298 OA
BRANCH   9  11
HETATM   11  C10 UNL     1      -2.043  -0.784   2.838  1.00  0.00     0.074 C 
HETATM   12  C11 UNL     1      -3.286  -0.852   3.687  1.00  0.00     0.013 C 
ENDBRANCH   9  11
ENDBRANCH   8   9
ENDBRANCH   7   8
ENDBRANCH   1   7
TORSDOF 5
ENDMDL
MODEL 5
REMARK VINA RESULT: -6.753273806      2.029      4.592
REMARK  5 active torsions:
REMARK  status: ('A' for Active; 'I' for Inactive)
REMARK    1  A    between atoms: C2_2  and  C4_4 
REMARK    2  A    between atoms: C4_4  and  C7_7 
REMARK    3  A    between atoms: C7_7  and  C8_8 
REMARK    4  A    between atoms: C8_8  and  C9_9 
REMARK    5  A    between atoms: C9_9  and  C10_11 
ROOT
HETATM    1  C4  UNL     1      -1.588   0.071   6.891  1.00  0.00    -0.057 C 
HETATM    2  C5  UNL     1      -0.397  -0.373   6.719  1.00  0.00    -0.023 C 
HETATM    3  C6  UNL     1       0.601  -0.866   7.674  1.00  0.00     0.036 C 
ENDROOT
BRANCH   1   4
HETATM    4  C2  UNL     1      -2.261   0.200   8.152  1.00  0.00    -0.065 C 
HETATM    5  C1  UNL     1      -3.156  -0.748   8.506  1.00  0.00     0.019 C 
HETATM    6  C3  UNL     1      -2.086   1.294   9.128  1.00  0.00     0.048 C 
ENDBRANCH   1   4
BRANCH   1   7
HETATM    7  C7  UNL     1      -2.393   0.492   5.685  1.00  0.00     0.046 C 
BRANCH   7   8
HETATM    8  C8  UNL     1      -2.850  -0.654   4.851  1.00  0.00     0.082 C 
BRANCH   8   9
HETATM    9  C9  UNL     1      -2.300  -0.453   3.482  1.00  0.00     0.126 C 
HETATM   10  O1  UNL     1      -2.040  -1.407   2.778  1.00  0.00    -0.298 OA
BRANCH   9  11
HETATM   11  C10 UNL     1      -2.047   0.908   2.924  1.00  0.00     0.074 C 
HETATM   12  C11 UNL     1      -0.644   1.031   2.387  1.00  0.00     0.013 C 
ENDBRANCH   9  11
ENDBRANCH   8   9
ENDBRANCH   7   8
ENDBRANCH   1   7
TORSDOF 5
ENDMDL
