MODEL 1
REMARK VINA RESULT: -7.429402716      0.000      0.000
REMARK  15 active torsions:
REMARK  status: ('A' for Active; 'I' for Inactive)
REMARK    1  A    between atoms: C2_2  and  N1_3 
REMARK    2  A    between atoms: N1_3  and  C3_6 
REMARK    3  A    between atoms: C5_8  and  N2_9 
REMARK    4  A    between atoms: C6_13  and  O1_14 
REMARK    5  A    between atoms: O1_14  and  C7_15 
REMARK    6  A    between atoms: C7_15  and  C8_16 
REMARK    7  A    between atoms: C9_18  and  S1_19 
REMARK    8  A    between atoms: S1_19  and  C10_20 
REMARK    9  A    between atoms: C12_22  and  N3_23 
REMARK   10  A    between atoms: C14_28  and  N4_29 
REMARK       I    between atoms: N4_29  and  C15_31 
REMARK   11  A    between atoms: C17_34  and  O4_35 
REMARK   12  A    between atoms: C18_37  and  N5_38 
REMARK   13  A    between atoms: C20_43  and  N6_44 
REMARK   14  A    between atoms: C21_49  and  C22_50 
REMARK   15  A    between atoms: C22_50  and  O6_51 
ROOT
HETATM    1  C8  UNL     1      -4.870  26.646  23.630  1.00  0.00     0.177 C 
HETATM    2  O2  UNL     1      -5.265  27.960  23.550  1.00  0.00    -0.364 OA
HETATM    3  C9  UNL     1      -5.331  28.487  22.288  1.00  0.00     0.214 C 
HETATM    4  C18 UNL     1      -5.995  27.679  21.265  1.00  0.00     0.224 C 
HETATM    5  C19 UNL     1      -5.867  26.182  21.469  1.00  0.00     0.072 C 
HETATM    6  C20 UNL     1      -4.704  25.907  22.360  1.00  0.00     0.216 C 
ENDROOT
BRANCH   1   7
HETATM    7  C7  UNL     1      -3.712  26.443  24.585  1.00  0.00     0.205 C 
BRANCH   7   8
HETATM    8  O1  UNL     1      -4.052  25.702  25.711  1.00  0.00    -0.357 OA
BRANCH   8   9
HETATM    9  C6  UNL     1      -3.407  26.166  26.853  1.00  0.00     0.290 C 
HETATM   10  C5  UNL     1      -4.434  26.866  27.695  1.00  0.00     0.240 C 
HETATM   11  C4  UNL     1      -3.948  27.126  29.108  1.00  0.00     0.073 C 
HETATM   12  C3  UNL     1      -3.500  25.820  29.666  1.00  0.00     0.219 C 
HETATM   13  C21 UNL     1      -2.424  25.267  28.751  1.00  0.00     0.178 C 
HETATM   14  O5  UNL     1      -2.837  25.072  27.472  1.00  0.00    -0.350 OA
BRANCH  10  15
HETATM   15  N2  UNL     1      -5.679  26.122  27.720  1.00  0.00    -0.070 N 
ATOM     16  H23 UNL     1      -6.262  26.383  28.516  1.00  0.00     0.274 HD
ATOM     17  H22 UNL     1      -6.308  26.409  26.970  1.00  0.00     0.274 HD
ATOM     18  H21 UNL     1      -5.493  25.120  27.698  1.00  0.00     0.274 HD
ENDBRANCH  10  15
BRANCH  12  19
HETATM   19  N1  UNL     1      -3.062  25.834  31.026  1.00  0.00    -0.069 N 
ATOM     20  H12 UNL     1      -3.578  26.511  31.588  1.00  0.00     0.277 HD
ATOM     21  H11 UNL     1      -2.131  26.240  31.125  1.00  0.00     0.277 HD
BRANCH  19  22
HETATM   22  C2  UNL     1      -3.135  24.499  31.578  1.00  0.00     0.228 C 
HETATM   23  C1  UNL     1      -4.521  23.913  31.506  1.00  0.00     0.034 C 
ENDBRANCH  19  22
ENDBRANCH  12  19
BRANCH  13  24
HETATM   24  C22 UNL     1      -1.100  25.946  28.900  1.00  0.00     0.198 C 
BRANCH  24  25
HETATM   25  O6  UNL     1      -0.114  25.211  29.499  1.00  0.00    -0.398 OA
ATOM     26  H6  UNL     1       0.633  25.702  29.821  1.00  0.00     0.209 HD
ENDBRANCH  24  25
ENDBRANCH  13  24
ENDBRANCH   8   9
ENDBRANCH   7   8
ENDBRANCH   1   7
BRANCH   6  27
HETATM   27  N6  UNL     1      -3.456  26.042  21.682  1.00  0.00    -0.072 N 
ATOM     28  H63 UNL     1      -3.049  26.952  21.899  1.00  0.00     0.274 HD
ATOM     29  H62 UNL     1      -2.771  25.419  22.109  1.00  0.00     0.274 HD
ATOM     30  H61 UNL     1      -3.455  25.903  20.671  1.00  0.00     0.274 HD
ENDBRANCH   6  27
BRANCH   3  31
HETATM   31  S1  UNL     1      -5.976  30.160  22.374  1.00  0.00    -0.128 SA
BRANCH  31  32
HETATM   32  C10 UNL     1      -7.043  30.515  23.754  1.00  0.00     0.082 C 
HETATM   33  C11 UNL     1      -6.503  30.143  25.105  1.00  0.00     0.050 C 
HETATM   34  C12 UNL     1      -7.607  29.539  25.985  1.00  0.00     0.186 C 
HETATM   35  C13 UNL     1      -7.886  28.177  25.337  1.00  0.00     0.060 C 
HETATM   36  C14 UNL     1      -8.516  28.468  23.995  1.00  0.00     0.116 C 
HETATM   37  C17 UNL     1      -8.398  29.887  23.558  1.00  0.00     0.154 C 
BRANCH  34  38
HETATM   38  N3  UNL     1      -7.111  29.338  27.312  1.00  0.00    -0.075 N 
ATOM     39  H33 UNL     1      -7.178  28.362  27.603  1.00  0.00     0.274 HD
ATOM     40  H32 UNL     1      -6.096  29.436  27.361  1.00  0.00     0.274 HD
ATOM     41  H31 UNL     1      -7.590  29.966  27.957  1.00  0.00     0.274 HD
ENDBRANCH  34  38
BRANCH  36  42
HETATM   42  N4  UNL     1      -9.940  28.130  24.170  1.00  0.00    -0.354 N 
HETATM   43  C15 UNL     1     -10.657  27.500  23.125  1.00  0.00     0.214 C 
HETATM   44  C16 UNL     1     -12.086  27.150  23.279  1.00  0.00     0.117 C 
HETATM   45  O3  UNL     1     -10.080  27.230  22.048  1.00  0.00    -0.274 OA
ATOM     46  H4  UNL     1     -10.412  28.351  25.048  1.00  0.00     0.162 HD
ENDBRANCH  36  42
BRANCH  37  47
HETATM   47  O4  UNL     1      -8.772  29.933  22.197  1.00  0.00    -0.392 OA
ATOM     48  H4  UNL     1      -9.629  30.333  22.101  1.00  0.00     0.210 HD
ENDBRANCH  37  47
ENDBRANCH  31  32
ENDBRANCH   3  31
BRANCH   4  49
HETATM   49  N5  UNL     1      -5.452  27.967  19.947  1.00  0.00    -0.072 N 
ATOM     50  H53 UNL     1      -6.084  28.549  19.397  1.00  0.00     0.274 HD
ATOM     51  H52 UNL     1      -4.658  28.606  19.997  1.00  0.00     0.274 HD
ATOM     52  H51 UNL     1      -5.211  27.105  19.457  1.00  0.00     0.274 HD
ENDBRANCH   4  49
TORSDOF 15
ENDMDL
MODEL 2
REMARK VINA RESULT: -7.367557050      1.863      3.415
REMARK  15 active torsions:
REMARK  status: ('A' for Active; 'I' for Inactive)
REMARK    1  A    between atoms: C2_2  and  N1_3 
REMARK    2  A    between atoms: N1_3  and  C3_6 
REMARK    3  A    between atoms: C5_8  and  N2_9 
REMARK    4  A    between atoms: C6_13  and  O1_14 
REMARK    5  A    between atoms: O1_14  and  C7_15 
REMARK    6  A    between atoms: C7_15  and  C8_16 
REMARK    7  A    between atoms: C9_18  and  S1_19 
REMARK    8  A    between atoms: S1_19  and  C10_20 
REMARK    9  A    between atoms: C12_22  and  N3_23 
REMARK   10  A    between atoms: C14_28  and  N4_29 
REMARK       I    between atoms: N4_29  and  C15_31 
REMARK   11  A    between atoms: C17_34  and  O4_35 
REMARK   12  A    between atoms: C18_37  and  N5_38 
REMARK   13  A    between atoms: C20_43  and  N6_44 
REMARK   14  A    between atoms: C21_49  and  C22_50 
REMARK   15  A    between atoms: C22_50  and  O6_51 
ROOT
HETATM    1  C8  UNL     1      -4.662  26.044  23.909  1.00  0.00     0.177 C 
HETATM    2  O2  UNL     1      -5.462  27.156  23.798  1.00  0.00    -0.364 OA
HETATM    3  C9  UNL     1      -5.483  27.755  22.566  1.00  0.00     0.214 C 
HETATM    4  C18 UNL     1      -5.642  26.879  21.405  1.00  0.00     0.224 C 
HETATM    5  C19 UNL     1      -5.047  25.495  21.579  1.00  0.00     0.072 C 
HETATM    6  C20 UNL     1      -4.034  25.531  22.672  1.00  0.00     0.216 C 
ENDROOT
BRANCH   1   7
HETATM    7  C7  UNL     1      -3.689  26.140  25.066  1.00  0.00     0.205 C 
BRANCH   7   8
HETATM    8  O1  UNL     1      -3.890  27.263  25.860  1.00  0.00    -0.357 OA
BRANCH   8   9
HETATM    9  C6  UNL     1      -3.307  27.122  27.116  1.00  0.00     0.290 C 
HETATM   10  C5  UNL     1      -4.380  27.366  28.137  1.00  0.00     0.240 C 
HETATM   11  C4  UNL     1      -3.971  26.922  29.528  1.00  0.00     0.073 C 
HETATM   12  C3  UNL     1      -3.548  25.497  29.429  1.00  0.00     0.219 C 
HETATM   13  C21 UNL     1      -2.424  25.415  28.414  1.00  0.00     0.178 C 
HETATM   14  O5  UNL     1      -2.767  25.853  27.175  1.00  0.00    -0.350 OA
BRANCH  10  15
HETATM   15  N2  UNL     1      -5.622  26.726  27.749  1.00  0.00    -0.070 N 
ATOM     16  H23 UNL     1      -5.458  25.858  27.238  1.00  0.00     0.274 HD
ATOM     17  H22 UNL     1      -6.116  26.338  28.552  1.00  0.00     0.274 HD
ATOM     18  H21 UNL     1      -6.204  27.374  27.221  1.00  0.00     0.274 HD
ENDBRANCH  10  15
BRANCH  12  19
HETATM   19  N1  UNL     1      -3.183  24.862  30.655  1.00  0.00    -0.069 N 
ATOM     20  H12 UNL     1      -2.719  25.505  31.297  1.00  0.00     0.277 HD
ATOM     21  H11 UNL     1      -2.417  24.200  30.531  1.00  0.00     0.277 HD
BRANCH  19  22
HETATM   22  C2  UNL     1      -4.348  24.244  31.251  1.00  0.00     0.228 C 
HETATM   23  C1  UNL     1      -4.002  23.062  32.119  1.00  0.00     0.034 C 
ENDBRANCH  19  22
ENDBRANCH  12  19
BRANCH  13  24
HETATM   24  C22 UNL     1      -1.111  25.916  28.929  1.00  0.00     0.198 C 
BRANCH  24  25
HETATM   25  O6  UNL     1      -0.279  24.972  29.465  1.00  0.00    -0.398 OA
ATOM     26  H6  UNL     1      -0.340  24.850  30.405  1.00  0.00     0.209 HD
ENDBRANCH  24  25
ENDBRANCH  13  24
ENDBRANCH   8   9
ENDBRANCH   7   8
ENDBRANCH   1   7
BRANCH   6  27
HETATM   27  N6  UNL     1      -2.810  26.135  22.259  1.00  0.00    -0.072 N 
ATOM     28  H63 UNL     1      -2.856  27.141  22.425  1.00  0.00     0.274 HD
ATOM     29  H62 UNL     1      -2.067  25.869  22.905  1.00  0.00     0.274 HD
ATOM     30  H61 UNL     1      -2.503  25.964  21.301  1.00  0.00     0.274 HD
ENDBRANCH   6  27
BRANCH   3  31
HETATM   31  S1  UNL     1      -6.666  29.105  22.581  1.00  0.00    -0.128 SA
BRANCH  31  32
HETATM   32  C10 UNL     1      -7.489  29.405  24.130  1.00  0.00     0.082 C 
HETATM   33  C11 UNL     1      -8.843  30.045  24.033  1.00  0.00     0.050 C 
HETATM   34  C12 UNL     1      -9.029  31.098  25.136  1.00  0.00     0.186 C 
HETATM   35  C13 UNL     1      -8.080  32.231  24.723  1.00  0.00     0.060 C 
HETATM   36  C14 UNL     1      -6.679  31.687  24.877  1.00  0.00     0.116 C 
HETATM   37  C17 UNL     1      -6.612  30.210  25.055  1.00  0.00     0.154 C 
BRANCH  34  38
HETATM   38  N3  UNL     1     -10.375  31.581  25.121  1.00  0.00    -0.075 N 
ATOM     39  H33 UNL     1     -10.576  32.132  24.287  1.00  0.00     0.274 HD
ATOM     40  H32 UNL     1     -11.050  30.831  24.969  1.00  0.00     0.274 HD
ATOM     41  H31 UNL     1     -10.564  32.100  25.979  1.00  0.00     0.274 HD
ENDBRANCH  34  38
BRANCH  36  42
HETATM   42  N4  UNL     1      -6.154  32.346  26.087  1.00  0.00    -0.354 N 
HETATM   43  C15 UNL     1      -4.835  32.858  26.103  1.00  0.00     0.214 C 
HETATM   44  C16 UNL     1      -4.288  33.525  27.305  1.00  0.00     0.117 C 
HETATM   45  O3  UNL     1      -4.111  32.750  25.089  1.00  0.00    -0.274 OA
ATOM     46  H4  UNL     1      -6.743  32.433  26.915  1.00  0.00     0.162 HD
ENDBRANCH  36  42
BRANCH  37  47
HETATM   47  O4  UNL     1      -5.258  29.835  24.901  1.00  0.00    -0.392 OA
ATOM     48  H4  UNL     1      -4.882  29.597  25.740  1.00  0.00     0.210 HD
ENDBRANCH  37  47
ENDBRANCH  31  32
ENDBRANCH   3  31
BRANCH   4  49
HETATM   49  N5  UNL     1      -5.009  27.459  20.231  1.00  0.00    -0.072 N 
ATOM     50  H53 UNL     1      -5.678  27.974  19.657  1.00  0.00     0.274 HD
ATOM     51  H52 UNL     1      -4.391  28.232  20.478  1.00  0.00     0.274 HD
ATOM     52  H51 UNL     1      -4.522  26.744  19.691  1.00  0.00     0.274 HD
ENDBRANCH   4  49
TORSDOF 15
ENDMDL
MODEL 3
REMARK VINA RESULT: -7.331181026      1.650      2.060
REMARK  15 active torsions:
REMARK  status: ('A' for Active; 'I' for Inactive)
REMARK    1  A    between atoms: C2_2  and  N1_3 
REMARK    2  A    between atoms: N1_3  and  C3_6 
REMARK    3  A    between atoms: C5_8  and  N2_9 
REMARK    4  A    between atoms: C6_13  and  O1_14 
REMARK    5  A    between atoms: O1_14  and  C7_15 
REMARK    6  A    between atoms: C7_15  and  C8_16 
REMARK    7  A    between atoms: C9_18  and  S1_19 
REMARK    8  A    between atoms: S1_19  and  C10_20 
REMARK    9  A    between atoms: C12_22  and  N3_23 
REMARK   10  A    between atoms: C14_28  and  N4_29 
REMARK       I    between atoms: N4_29  and  C15_31 
REMARK   11  A    between atoms: C17_34  and  O4_35 
REMARK   12  A    between atoms: C18_37  and  N5_38 
REMARK   13  A    between atoms: C20_43  and  N6_44 
REMARK   14  A    between atoms: C21_49  and  C22_50 
REMARK   15  A    between atoms: C22_50  and  O6_51 
ROOT
HETATM    1  C8  UNL     1      -4.838  26.606  23.653  1.00  0.00     0.177 C 
HETATM    2  O2  UNL     1      -5.311  27.894  23.582  1.00  0.00    -0.364 OA
HETATM    3  C9  UNL     1      -5.383  28.434  22.326  1.00  0.00     0.214 C 
HETATM    4  C18 UNL     1      -5.976  27.603  21.278  1.00  0.00     0.224 C 
HETATM    5  C19 UNL     1      -5.760  26.114  21.465  1.00  0.00     0.072 C 
HETATM    6  C20 UNL     1      -4.600  25.897  22.377  1.00  0.00     0.216 C 
ENDROOT
BRANCH   1   7
HETATM    7  C7  UNL     1      -3.688  26.460  24.629  1.00  0.00     0.205 C 
BRANCH   7   8
HETATM    8  O1  UNL     1      -4.006  25.686  25.739  1.00  0.00    -0.357 OA
BRANCH   8   9
HETATM    9  C6  UNL     1      -3.373  26.144  26.890  1.00  0.00     0.290 C 
HETATM   10  C5  UNL     1      -4.413  26.821  27.735  1.00  0.00     0.240 C 
HETATM   11  C4  UNL     1      -3.938  27.069  29.153  1.00  0.00     0.073 C 
HETATM   12  C3  UNL     1      -3.477  25.762  29.699  1.00  0.00     0.219 C 
HETATM   13  C21 UNL     1      -2.390  25.232  28.783  1.00  0.00     0.178 C 
HETATM   14  O5  UNL     1      -2.793  25.049  27.499  1.00  0.00    -0.350 OA
BRANCH  10  15
HETATM   15  N2  UNL     1      -5.649  26.062  27.744  1.00  0.00    -0.070 N 
ATOM     16  H23 UNL     1      -5.877  25.718  28.677  1.00  0.00     0.274 HD
ATOM     17  H22 UNL     1      -6.462  26.660  27.600  1.00  0.00     0.274 HD
ATOM     18  H21 UNL     1      -5.605  25.308  27.060  1.00  0.00     0.274 HD
ENDBRANCH  10  15
BRANCH  12  19
HETATM   19  N1  UNL     1      -3.047  25.765  31.061  1.00  0.00    -0.069 N 
ATOM     20  H12 UNL     1      -3.566  26.437  31.626  1.00  0.00     0.277 HD
ATOM     21  H11 UNL     1      -2.116  26.170  31.169  1.00  0.00     0.277 HD
BRANCH  19  22
HETATM   22  C2  UNL     1      -3.124  24.425  31.601  1.00  0.00     0.228 C 
HETATM   23  C1  UNL     1      -4.524  23.868  31.585  1.00  0.00     0.034 C 
ENDBRANCH  19  22
ENDBRANCH  12  19
BRANCH  13  24
HETATM   24  C22 UNL     1      -1.075  25.926  28.947  1.00  0.00     0.198 C 
BRANCH  24  25
HETATM   25  O6  UNL     1      -0.095  25.207  29.576  1.00  0.00    -0.398 OA
ATOM     26  H6  UNL     1       0.260  24.473  29.088  1.00  0.00     0.209 HD
ENDBRANCH  24  25
ENDBRANCH  13  24
ENDBRANCH   8   9
ENDBRANCH   7   8
ENDBRANCH   1   7
BRANCH   6  27
HETATM   27  N6  UNL     1      -3.350  26.118  21.727  1.00  0.00    -0.072 N 
ATOM     28  H63 UNL     1      -3.156  25.341  21.095  1.00  0.00     0.274 HD
ATOM     29  H62 UNL     1      -3.447  26.885  21.062  1.00  0.00     0.274 HD
ATOM     30  H61 UNL     1      -2.537  26.284  22.319  1.00  0.00     0.274 HD
ENDBRANCH   6  27
BRANCH   3  31
HETATM   31  S1  UNL     1      -6.132  30.063  22.421  1.00  0.00    -0.128 SA
BRANCH  31  32
HETATM   32  C10 UNL     1      -7.714  30.149  23.232  1.00  0.00     0.082 C 
HETATM   33  C11 UNL     1      -8.177  28.881  23.890  1.00  0.00     0.050 C 
HETATM   34  C12 UNL     1      -9.681  28.669  23.664  1.00  0.00     0.186 C 
HETATM   35  C13 UNL     1      -9.783  28.340  22.169  1.00  0.00     0.060 C 
HETATM   36  C14 UNL     1      -9.411  29.605  21.432  1.00  0.00     0.116 C 
HETATM   37  C17 UNL     1      -8.775  30.647  22.285  1.00  0.00     0.154 C 
BRANCH  34  38
HETATM   38  N3  UNL     1     -10.129  27.543  24.426  1.00  0.00    -0.075 N 
ATOM     39  H33 UNL     1      -9.652  27.474  25.325  1.00  0.00     0.274 HD
ATOM     40  H32 UNL     1     -11.080  27.668  24.772  1.00  0.00     0.274 HD
ATOM     41  H31 UNL     1     -10.030  26.692  23.872  1.00  0.00     0.274 HD
ENDBRANCH  34  38
BRANCH  36  42
HETATM   42  N4  UNL     1     -10.689  30.121  20.908  1.00  0.00    -0.354 N 
HETATM   43  C15 UNL     1     -10.956  30.086  19.519  1.00  0.00     0.214 C 
HETATM   44  C16 UNL     1     -12.232  30.596  18.971  1.00  0.00     0.117 C 
HETATM   45  O3  UNL     1     -10.104  29.617  18.732  1.00  0.00    -0.274 OA
ATOM     46  H4  UNL     1     -11.384  30.505  21.549  1.00  0.00     0.162 HD
ENDBRANCH  36  42
BRANCH  37  47
HETATM   47  O4  UNL     1      -8.242  31.626  21.417  1.00  0.00    -0.392 OA
ATOM     48  H4  UNL     1      -8.684  32.457  21.543  1.00  0.00     0.210 HD
ENDBRANCH  37  47
ENDBRANCH  31  32
ENDBRANCH   3  31
BRANCH   4  49
HETATM   49  N5  UNL     1      -5.425  27.943  19.976  1.00  0.00    -0.072 N 
ATOM     50  H53 UNL     1      -5.825  28.807  19.611  1.00  0.00     0.274 HD
ATOM     51  H52 UNL     1      -4.452  28.240  20.044  1.00  0.00     0.274 HD
ATOM     52  H51 UNL     1      -5.539  27.169  19.321  1.00  0.00     0.274 HD
ENDBRANCH   4  49
TORSDOF 15
ENDMDL
MODEL 4
REMARK VINA RESULT: -7.328756703      1.662      2.817
REMARK  15 active torsions:
REMARK  status: ('A' for Active; 'I' for Inactive)
REMARK    1  A    between atoms: C2_2  and  N1_3 
REMARK    2  A    between atoms: N1_3  and  C3_6 
REMARK    3  A    between atoms: C5_8  and  N2_9 
REMARK    4  A    between atoms: C6_13  and  O1_14 
REMARK    5  A    between atoms: O1_14  and  C7_15 
REMARK    6  A    between atoms: C7_15  and  C8_16 
REMARK    7  A    between atoms: C9_18  and  S1_19 
REMARK    8  A    between atoms: S1_19  and  C10_20 
REMARK    9  A    between atoms: C12_22  and  N3_23 
REMARK   10  A    between atoms: C14_28  and  N4_29 
REMARK       I    between atoms: N4_29  and  C15_31 
REMARK   11  A    between atoms: C17_34  and  O4_35 
REMARK   12  A    between atoms: C18_37  and  N5_38 
REMARK   13  A    between atoms: C20_43  and  N6_44 
REMARK   14  A    between atoms: C21_49  and  C22_50 
REMARK   15  A    between atoms: C22_50  and  O6_51 
ROOT
HETATM    1  C8  UNL     1      -4.589  25.897  23.858  1.00  0.00     0.177 C 
HETATM    2  O2  UNL     1      -5.526  26.900  23.780  1.00  0.00    -0.364 OA
HETATM    3  C9  UNL     1      -5.650  27.504  22.558  1.00  0.00     0.214 C 
HETATM    4  C18 UNL     1      -5.724  26.629  21.388  1.00  0.00     0.224 C 
HETATM    5  C19 UNL     1      -4.955  25.330  21.530  1.00  0.00     0.072 C 
HETATM    6  C20 UNL     1      -3.930  25.482  22.601  1.00  0.00     0.216 C 
ENDROOT
BRANCH   1   7
HETATM    7  C7  UNL     1      -3.609  26.102  24.996  1.00  0.00     0.205 C 
BRANCH   7   8
HETATM    8  O1  UNL     1      -3.938  27.176  25.816  1.00  0.00    -0.357 OA
BRANCH   8   9
HETATM    9  C6  UNL     1      -3.359  27.063  27.076  1.00  0.00     0.290 C 
HETATM   10  C5  UNL     1      -4.436  27.327  28.089  1.00  0.00     0.240 C 
HETATM   11  C4  UNL     1      -4.030  26.914  29.489  1.00  0.00     0.073 C 
HETATM   12  C3  UNL     1      -3.604  25.488  29.422  1.00  0.00     0.219 C 
HETATM   13  C21 UNL     1      -2.476  25.386  28.413  1.00  0.00     0.178 C 
HETATM   14  O5  UNL     1      -2.816  25.797  27.164  1.00  0.00    -0.350 OA
BRANCH  10  15
HETATM   15  N2  UNL     1      -5.675  26.676  27.711  1.00  0.00    -0.070 N 
ATOM     16  H23 UNL     1      -5.587  26.176  26.825  1.00  0.00     0.274 HD
ATOM     17  H22 UNL     1      -5.885  25.880  28.313  1.00  0.00     0.274 HD
ATOM     18  H21 UNL     1      -6.438  27.351  27.692  1.00  0.00     0.274 HD
ENDBRANCH  10  15
BRANCH  12  19
HETATM   19  N1  UNL     1      -3.241  24.880  30.663  1.00  0.00    -0.069 N 
ATOM     20  H12 UNL     1      -2.822  25.549  31.310  1.00  0.00     0.277 HD
ATOM     21  H11 UNL     1      -2.444  24.251  30.564  1.00  0.00     0.277 HD
BRANCH  19  22
HETATM   22  C2  UNL     1      -4.392  24.216  31.236  1.00  0.00     0.228 C 
HETATM   23  C1  UNL     1      -4.016  23.048  32.111  1.00  0.00     0.034 C 
ENDBRANCH  19  22
ENDBRANCH  12  19
BRANCH  13  24
HETATM   24  C22 UNL     1      -1.166  25.901  28.921  1.00  0.00     0.198 C 
BRANCH  24  25
HETATM   25  O6  UNL     1      -0.337  24.972  29.485  1.00  0.00    -0.398 OA
ATOM     26  H6  UNL     1       0.568  25.237  29.599  1.00  0.00     0.209 HD
ENDBRANCH  24  25
ENDBRANCH  13  24
ENDBRANCH   8   9
ENDBRANCH   7   8
ENDBRANCH   1   7
BRANCH   6  27
HETATM   27  N6  UNL     1      -2.802  26.241  22.171  1.00  0.00    -0.072 N 
ATOM     28  H63 UNL     1      -3.083  26.864  21.413  1.00  0.00     0.274 HD
ATOM     29  H62 UNL     1      -2.555  26.917  22.893  1.00  0.00     0.274 HD
ATOM     30  H61 UNL     1      -1.968  25.724  21.892  1.00  0.00     0.274 HD
ENDBRANCH   6  27
BRANCH   3  31
HETATM   31  S1  UNL     1      -6.994  28.693  22.616  1.00  0.00    -0.128 SA
BRANCH  31  32
HETATM   32  C10 UNL     1      -8.530  28.102  23.293  1.00  0.00     0.082 C 
HETATM   33  C11 UNL     1      -9.771  28.542  22.572  1.00  0.00     0.050 C 
HETATM   34  C12 UNL     1     -10.885  28.895  23.568  1.00  0.00     0.186 C 
HETATM   35  C13 UNL     1     -10.390  30.189  24.226  1.00  0.00     0.060 C 
HETATM   36  C14 UNL     1      -9.181  29.810  25.048  1.00  0.00     0.116 C 
HETATM   37  C17 UNL     1      -8.641  28.453  24.755  1.00  0.00     0.154 C 
BRANCH  34  38
HETATM   38  N3  UNL     1     -12.100  29.160  22.861  1.00  0.00    -0.075 N 
ATOM     39  H33 UNL     1     -11.927  29.480  21.907  1.00  0.00     0.274 HD
ATOM     40  H32 UNL     1     -12.610  28.305  22.638  1.00  0.00     0.274 HD
ATOM     41  H31 UNL     1     -12.669  29.820  23.390  1.00  0.00     0.274 HD
ENDBRANCH  34  38
BRANCH  36  42
HETATM   42  N4  UNL     1      -9.650  29.854  26.446  1.00  0.00    -0.354 N 
HETATM   43  C15 UNL     1      -8.853  30.461  27.445  1.00  0.00     0.214 C 
HETATM   44  C16 UNL     1      -9.305  30.520  28.853  1.00  0.00     0.117 C 
HETATM   45  O3  UNL     1      -7.747  30.961  27.143  1.00  0.00    -0.274 OA
ATOM     46  H4  UNL     1     -10.552  29.446  26.693  1.00  0.00     0.162 HD
ENDBRANCH  36  42
BRANCH  37  47
HETATM   47  O4  UNL     1      -7.379  28.364  25.381  1.00  0.00    -0.392 OA
ATOM     48  H4  UNL     1      -7.227  27.482  25.700  1.00  0.00     0.210 HD
ENDBRANCH  37  47
ENDBRANCH  31  32
ENDBRANCH   3  31
BRANCH   4  49
HETATM   49  N5  UNL     1      -5.197  27.297  20.209  1.00  0.00    -0.072 N 
ATOM     50  H53 UNL     1      -5.850  27.254  19.427  1.00  0.00     0.274 HD
ATOM     51  H52 UNL     1      -5.169  28.310  20.330  1.00  0.00     0.274 HD
ATOM     52  H51 UNL     1      -4.282  26.922  19.957  1.00  0.00     0.274 HD
ENDBRANCH   4  49
TORSDOF 15
ENDMDL
MODEL 5
REMARK VINA RESULT: -7.191834292      1.066      1.154
REMARK  15 active torsions:
REMARK  status: ('A' for Active; 'I' for Inactive)
REMARK    1  A    between atoms: C2_2  and  N1_3 
REMARK    2  A    between atoms: N1_3  and  C3_6 
REMARK    3  A    between atoms: C5_8  and  N2_9 
REMARK    4  A    between atoms: C6_13  and  O1_14 
REMARK    5  A    between atoms: O1_14  and  C7_15 
REMARK    6  A    between atoms: C7_15  and  C8_16 
REMARK    7  A    between atoms: C9_18  and  S1_19 
REMARK    8  A    between atoms: S1_19  and  C10_20 
REMARK    9  A    between atoms: C12_22  and  N3_23 
REMARK   10  A    between atoms: C14_28  and  N4_29 
REMARK       I    between atoms: N4_29  and  C15_31 
REMARK   11  A    between atoms: C17_34  and  O4_35 
REMARK   12  A    between atoms: C18_37  and  N5_38 
REMARK   13  A    between atoms: C20_43  and  N6_44 
REMARK   14  A    between atoms: C21_49  and  C22_50 
REMARK   15  A    between atoms: C22_50  and  O6_51 
ROOT
HETATM    1  C8  UNL     1      -5.056  26.224  23.997  1.00  0.00     0.177 C 
HETATM    2  O2  UNL     1      -5.818  27.201  23.402  1.00  0.00    -0.364 OA
HETATM    3  C9  UNL     1      -5.510  27.486  22.099  1.00  0.00     0.214 C 
HETATM    4  C18 UNL     1      -5.322  26.349  21.197  1.00  0.00     0.224 C 
HETATM    5  C19 UNL     1      -4.769  25.105  21.865  1.00  0.00     0.072 C 
HETATM    6  C20 UNL     1      -4.099  25.490  23.140  1.00  0.00     0.216 C 
ENDROOT
BRANCH   1   7
HETATM    7  C7  UNL     1      -4.443  26.678  25.306  1.00  0.00     0.205 C 
BRANCH   7   8
HETATM    8  O1  UNL     1      -3.785  25.660  25.986  1.00  0.00    -0.357 OA
BRANCH   8   9
HETATM    9  C6  UNL     1      -3.205  26.114  27.167  1.00  0.00     0.290 C 
HETATM   10  C5  UNL     1      -4.314  26.617  28.045  1.00  0.00     0.240 C 
HETATM   11  C4  UNL     1      -3.870  26.830  29.478  1.00  0.00     0.073 C 
HETATM   12  C3  UNL     1      -3.265  25.551  29.946  1.00  0.00     0.219 C 
HETATM   13  C21 UNL     1      -2.126  25.204  29.007  1.00  0.00     0.178 C 
HETATM   14  O5  UNL     1      -2.507  25.056  27.711  1.00  0.00    -0.350 OA
BRANCH  10  15
HETATM   15  N2  UNL     1      -5.457  25.727  27.999  1.00  0.00    -0.070 N 
ATOM     16  H23 UNL     1      -5.299  24.876  28.540  1.00  0.00     0.274 HD
ATOM     17  H22 UNL     1      -6.249  26.096  28.526  1.00  0.00     0.274 HD
ATOM     18  H21 UNL     1      -5.708  25.521  27.032  1.00  0.00     0.274 HD
ENDBRANCH  10  15
BRANCH  12  19
HETATM   19  N1  UNL     1      -2.837  25.519  31.308  1.00  0.00    -0.069 N 
ATOM     20  H12 UNL     1      -3.275  26.252  31.866  1.00  0.00     0.277 HD
ATOM     21  H11 UNL     1      -1.866  25.814  31.413  1.00  0.00     0.277 HD
BRANCH  19  22
HETATM   22  C2  UNL     1      -3.069  24.202  31.862  1.00  0.00     0.228 C 
HETATM   23  C1  UNL     1      -4.398  23.622  31.453  1.00  0.00     0.034 C 
ENDBRANCH  19  22
ENDBRANCH  12  19
BRANCH  13  24
HETATM   24  C22 UNL     1      -0.896  26.028  29.221  1.00  0.00     0.198 C 
BRANCH  24  25
HETATM   25  O6  UNL     1       0.248  25.333  29.502  1.00  0.00    -0.398 OA
ATOM     26  H6  UNL     1       0.916  25.341  28.825  1.00  0.00     0.209 HD
ENDBRANCH  24  25
ENDBRANCH  13  24
ENDBRANCH   8   9
ENDBRANCH   7   8
ENDBRANCH   1   7
BRANCH   6  27
HETATM   27  N6  UNL     1      -2.822  26.087  22.923  1.00  0.00    -0.072 N 
ATOM     28  H63 UNL     1      -2.436  25.751  22.041  1.00  0.00     0.274 HD
ATOM     29  H62 UNL     1      -2.944  27.078  22.713  1.00  0.00     0.274 HD
ATOM     30  H61 UNL     1      -2.124  25.982  23.660  1.00  0.00     0.274 HD
ENDBRANCH   6  27
BRANCH   3  31
HETATM   31  S1  UNL     1      -6.680  28.688  21.460  1.00  0.00    -0.128 SA
BRANCH  31  32
HETATM   32  C10 UNL     1      -7.173  29.973  22.589  1.00  0.00     0.082 C 
HETATM   33  C11 UNL     1      -6.243  30.217  23.742  1.00  0.00     0.050 C 
HETATM   34  C12 UNL     1      -7.033  30.475  25.034  1.00  0.00     0.186 C 
HETATM   35  C13 UNL     1      -7.646  29.108  25.365  1.00  0.00     0.060 C 
HETATM   36  C14 UNL     1      -8.664  28.827  24.286  1.00  0.00     0.116 C 
HETATM   37  C17 UNL     1      -8.567  29.728  23.103  1.00  0.00     0.154 C 
BRANCH  34  38
HETATM   38  N3  UNL     1      -6.136  30.856  26.081  1.00  0.00    -0.075 N 
ATOM     39  H33 UNL     1      -5.318  31.351  25.724  1.00  0.00     0.274 HD
ATOM     40  H32 UNL     1      -6.518  31.603  26.661  1.00  0.00     0.274 HD
ATOM     41  H31 UNL     1      -5.879  30.036  26.629  1.00  0.00     0.274 HD
ENDBRANCH  34  38
BRANCH  36  42
HETATM   42  N4  UNL     1      -9.969  29.027  24.943  1.00  0.00    -0.354 N 
HETATM   43  C15 UNL     1     -11.048  28.156  24.663  1.00  0.00     0.214 C 
HETATM   44  C16 UNL     1     -12.366  28.336  25.312  1.00  0.00     0.117 C 
HETATM   45  O3  UNL     1     -10.896  27.213  23.855  1.00  0.00    -0.274 OA
ATOM     46  H4  UNL     1     -10.095  29.797  25.601  1.00  0.00     0.162 HD
ENDBRANCH  36  42
BRANCH  37  47
HETATM   47  O4  UNL     1      -9.377  29.169  22.090  1.00  0.00    -0.392 OA
ATOM     48  H4  UNL     1      -9.542  29.809  21.406  1.00  0.00     0.210 HD
ENDBRANCH  37  47
ENDBRANCH  31  32
ENDBRANCH   3  31
BRANCH   4  49
HETATM   49  N5  UNL     1      -4.402  26.689  20.123  1.00  0.00    -0.072 N 
ATOM     50  H53 UNL     1      -4.897  26.979  19.279  1.00  0.00     0.274 HD
ATOM     51  H52 UNL     1      -3.902  27.557  20.315  1.00  0.00     0.274 HD
ATOM     52  H51 UNL     1      -3.761  25.917  19.937  1.00  0.00     0.274 HD
ENDBRANCH   4  49
TORSDOF 15
ENDMDL
