MODEL 1
REMARK VINA RESULT: -6.492705623      0.000      0.000
REMARK  15 active torsions:
REMARK  status: ('A' for Active; 'I' for Inactive)
REMARK    1  A    between atoms: C2_2  and  S1_3 
REMARK    2  A    between atoms: S1_3  and  C3_4 
REMARK    3  A    between atoms: C3_4  and  C4_5 
REMARK    4  A    between atoms: C5_7  and  C6_8 
REMARK    5  A    between atoms: C7_10  and  O2_11 
REMARK    6  A    between atoms: O2_11  and  C8_12 
REMARK    7  A    between atoms: C9_14  and  O4_15 
REMARK    8  A    between atoms: O4_15  and  C10_16 
REMARK    9  A    between atoms: C11_17  and  N1_18 
REMARK   10  A    between atoms: C13_23  and  N2_24 
REMARK   11  A    between atoms: C15_29  and  N3_30 
REMARK   12  A    between atoms: C16_34  and  N4_35 
REMARK   13  A    between atoms: C18_40  and  N5_41 
REMARK   14  A    between atoms: C19_45  and  N6_46 
REMARK   15  A    between atoms: C21_51  and  N7_52 
ROOT
HETATM    1  C8  UNL     1      -5.936  27.971  24.115  1.00  0.00     0.294 C 
HETATM    2  O3  UNL     1      -4.758  27.977  24.924  1.00  0.00    -0.327 OA
HETATM    3  C9  UNL     1      -3.903  26.924  24.617  1.00  0.00     0.293 C 
HETATM    4  C16 UNL     1      -4.446  26.000  23.562  1.00  0.00     0.240 C 
HETATM    5  C17 UNL     1      -4.756  26.783  22.335  1.00  0.00     0.075 C 
HETATM    6  C18 UNL     1      -5.341  28.121  22.735  1.00  0.00     0.240 C 
ENDROOT
BRANCH   1   7
HETATM    7  O2  UNL     1      -6.653  29.035  24.522  1.00  0.00    -0.349 OA
BRANCH   7   8
HETATM    8  C7  UNL     1      -6.276  29.774  25.614  1.00  0.00     0.184 C 
HETATM    9  C5  UNL     1      -5.707  31.048  25.001  1.00  0.00     0.163 C 
HETATM   10  O1  UNL     1      -5.138  31.950  25.772  1.00  0.00    -0.374 OA
HETATM   11  C4  UNL     1      -5.678  32.736  26.666  1.00  0.00     0.161 C 
HETATM   12  C21 UNL     1      -7.085  32.464  27.117  1.00  0.00     0.215 C 
HETATM   13  C20 UNL     1      -7.130  31.083  27.608  1.00  0.00     0.070 C 
HETATM   14  C19 UNL     1      -7.254  29.948  26.694  1.00  0.00     0.217 C 
BRANCH   9  15
HETATM   15  C6  UNL     1      -6.595  31.563  23.860  1.00  0.00     0.120 C 
HETATM   16  S2  UNL     1      -5.586  32.514  22.697  1.00  0.00    -0.095 SA
ENDBRANCH   9  15
BRANCH  11  17
HETATM   17  C3  UNL     1      -5.632  34.186  26.233  1.00  0.00     0.108 C 
BRANCH  17  18
HETATM   18  S1  UNL     1      -3.974  34.705  25.732  1.00  0.00    -0.167 SA
BRANCH  18  19
HETATM   19  C2  UNL     1      -2.858  34.491  27.139  1.00  0.00     0.069 C 
HETATM   20  C1  UNL     1      -2.022  33.236  27.001  1.00  0.00     0.016 C 
ENDBRANCH  18  19
ENDBRANCH  17  18
ENDBRANCH  11  17
BRANCH  12  21
HETATM   21  N7  UNL     1      -7.275  33.316  28.314  1.00  0.00    -0.072 N 
ATOM     22  H73 UNL     1      -7.110  32.831  29.196  1.00  0.00     0.274 HD
ATOM     23  H72 UNL     1      -6.553  34.027  28.433  1.00  0.00     0.274 HD
ATOM     24  H71 UNL     1      -8.217  33.695  28.220  1.00  0.00     0.274 HD
ENDBRANCH  12  21
BRANCH  14  25
HETATM   25  N6  UNL     1      -7.094  28.801  27.629  1.00  0.00    -0.072 N 
ATOM     26  H63 UNL     1      -7.939  28.236  27.715  1.00  0.00     0.274 HD
ATOM     27  H62 UNL     1      -6.484  28.071  27.263  1.00  0.00     0.274 HD
ATOM     28  H61 UNL     1      -6.775  29.177  28.522  1.00  0.00     0.274 HD
ENDBRANCH  14  25
ENDBRANCH   7   8
ENDBRANCH   1   7
BRANCH   6  29
HETATM   29  N5  UNL     1      -6.237  28.509  21.705  1.00  0.00    -0.070 N 
ATOM     30  H53 UNL     1      -7.061  27.908  21.720  1.00  0.00     0.274 HD
ATOM     31  H52 UNL     1      -6.660  29.408  21.935  1.00  0.00     0.274 HD
ATOM     32  H51 UNL     1      -5.852  28.541  20.760  1.00  0.00     0.274 HD
ENDBRANCH   6  29
BRANCH   3  33
HETATM   33  O4  UNL     1      -3.720  26.218  25.766  1.00  0.00    -0.350 OA
BRANCH  33  34
HETATM   34  C10 UNL     1      -3.900  26.836  26.977  1.00  0.00     0.185 C 
HETATM   35  C11 UNL     1      -2.851  27.770  27.399  1.00  0.00     0.216 C 
HETATM   36  C12 UNL     1      -2.283  27.587  28.770  1.00  0.00     0.068 C 
HETATM   37  C13 UNL     1      -2.424  26.225  29.365  1.00  0.00     0.187 C 
HETATM   38  C14 UNL     1      -3.942  25.964  29.355  1.00  0.00     0.068 C 
HETATM   39  C15 UNL     1      -4.250  25.707  27.919  1.00  0.00     0.216 C 
BRANCH  35  40
HETATM   40  N1  UNL     1      -3.442  29.133  27.465  1.00  0.00    -0.072 N 
ATOM     41  H13 UNL     1      -4.166  29.282  26.763  1.00  0.00     0.274 HD
ATOM     42  H12 UNL     1      -4.022  29.270  28.292  1.00  0.00     0.274 HD
ATOM     43  H11 UNL     1      -2.684  29.812  27.399  1.00  0.00     0.274 HD
ENDBRANCH  35  40
BRANCH  37  44
HETATM   44  N2  UNL     1      -2.013  26.259  30.734  1.00  0.00    -0.075 N 
ATOM     45  H23 UNL     1      -1.069  25.895  30.863  1.00  0.00     0.274 HD
ATOM     46  H22 UNL     1      -1.847  27.210  31.064  1.00  0.00     0.274 HD
ATOM     47  H21 UNL     1      -2.699  25.766  31.307  1.00  0.00     0.274 HD
ENDBRANCH  37  44
BRANCH  39  48
HETATM   48  N3  UNL     1      -5.651  25.347  27.733  1.00  0.00    -0.072 N 
ATOM     49  H33 UNL     1      -6.238  26.159  27.539  1.00  0.00     0.274 HD
ATOM     50  H32 UNL     1      -5.809  24.843  26.861  1.00  0.00     0.274 HD
ATOM     51  H31 UNL     1      -5.973  24.823  28.547  1.00  0.00     0.274 HD
ENDBRANCH  39  48
ENDBRANCH  33  34
ENDBRANCH   3  33
BRANCH   4  52
HETATM   52  N4  UNL     1      -3.386  25.053  23.204  1.00  0.00    -0.070 N 
ATOM     53  H43 UNL     1      -3.349  24.862  22.203  1.00  0.00     0.274 HD
ATOM     54  H42 UNL     1      -2.452  25.451  23.300  1.00  0.00     0.274 HD
ATOM     55  H41 UNL     1      -3.516  24.211  23.763  1.00  0.00     0.274 HD
ENDBRANCH   4  52
TORSDOF 15
ENDMDL
MODEL 2
REMARK VINA RESULT: -6.325838969      1.131      1.154
REMARK  15 active torsions:
REMARK  status: ('A' for Active; 'I' for Inactive)
REMARK    1  A    between atoms: C2_2  and  S1_3 
REMARK    2  A    between atoms: S1_3  and  C3_4 
REMARK    3  A    between atoms: C3_4  and  C4_5 
REMARK    4  A    between atoms: C5_7  and  C6_8 
REMARK    5  A    between atoms: C7_10  and  O2_11 
REMARK    6  A    between atoms: O2_11  and  C8_12 
REMARK    7  A    between atoms: C9_14  and  O4_15 
REMARK    8  A    between atoms: O4_15  and  C10_16 
REMARK    9  A    between atoms: C11_17  and  N1_18 
REMARK   10  A    between atoms: C13_23  and  N2_24 
REMARK   11  A    between atoms: C15_29  and  N3_30 
REMARK   12  A    between atoms: C16_34  and  N4_35 
REMARK   13  A    between atoms: C18_40  and  N5_41 
REMARK   14  A    between atoms: C19_45  and  N6_46 
REMARK   15  A    between atoms: C21_51  and  N7_52 
ROOT
HETATM    1  C8  UNL     1      -5.873  27.518  24.106  1.00  0.00     0.294 C 
HETATM    2  O3  UNL     1      -4.749  27.601  24.985  1.00  0.00    -0.327 OA
HETATM    3  C9  UNL     1      -3.780  26.646  24.693  1.00  0.00     0.293 C 
HETATM    4  C16 UNL     1      -4.172  25.720  23.573  1.00  0.00     0.240 C 
HETATM    5  C17 UNL     1      -4.484  26.521  22.359  1.00  0.00     0.075 C 
HETATM    6  C18 UNL     1      -5.217  27.781  22.772  1.00  0.00     0.240 C 
ENDROOT
BRANCH   1   7
HETATM    7  O2  UNL     1      -6.710  28.492  24.507  1.00  0.00    -0.349 OA
BRANCH   7   8
HETATM    8  C7  UNL     1      -6.412  29.292  25.581  1.00  0.00     0.184 C 
HETATM    9  C5  UNL     1      -6.235  30.671  24.956  1.00  0.00     0.163 C 
HETATM   10  O1  UNL     1      -5.824  31.679  25.696  1.00  0.00    -0.374 OA
HETATM   11  C4  UNL     1      -6.443  32.303  26.665  1.00  0.00     0.161 C 
HETATM   12  C21 UNL     1      -7.688  31.692  27.244  1.00  0.00     0.215 C 
HETATM   13  C20 UNL     1      -7.345  30.338  27.692  1.00  0.00     0.070 C 
HETATM   14  C19 UNL     1      -7.285  29.214  26.757  1.00  0.00     0.217 C 
BRANCH   9  15
HETATM   15  C6  UNL     1      -7.335  30.963  23.927  1.00  0.00     0.120 C 
HETATM   16  S2  UNL     1      -6.591  31.674  22.438  1.00  0.00    -0.095 SA
ENDBRANCH   9  15
BRANCH  11  17
HETATM   17  C3  UNL     1      -6.795  33.723  26.278  1.00  0.00     0.108 C 
BRANCH  17  18
HETATM   18  S1  UNL     1      -5.336  34.704  25.850  1.00  0.00    -0.167 SA
BRANCH  18  19
HETATM   19  C2  UNL     1      -5.137  34.677  24.053  1.00  0.00     0.069 C 
HETATM   20  C1  UNL     1      -3.828  34.031  23.648  1.00  0.00     0.016 C 
ENDBRANCH  18  19
ENDBRANCH  17  18
ENDBRANCH  11  17
BRANCH  12  21
HETATM   21  N7  UNL     1      -7.952  32.463  28.480  1.00  0.00    -0.072 N 
ATOM     22  H73 UNL     1      -8.049  31.884  29.315  1.00  0.00     0.274 HD
ATOM     23  H72 UNL     1      -7.153  33.007  28.807  1.00  0.00     0.274 HD
ATOM     24  H71 UNL     1      -8.777  33.025  28.269  1.00  0.00     0.274 HD
ENDBRANCH  12  21
BRANCH  14  25
HETATM   25  N6  UNL     1      -6.756  28.134  27.634  1.00  0.00    -0.072 N 
ATOM     26  H63 UNL     1      -6.922  27.200  27.260  1.00  0.00     0.274 HD
ATOM     27  H62 UNL     1      -5.737  28.093  27.645  1.00  0.00     0.274 HD
ATOM     28  H61 UNL     1      -7.159  28.268  28.562  1.00  0.00     0.274 HD
ENDBRANCH  14  25
ENDBRANCH   7   8
ENDBRANCH   1   7
BRANCH   6  29
HETATM   29  N5  UNL     1      -6.086  28.126  21.704  1.00  0.00    -0.070 N 
ATOM     30  H53 UNL     1      -6.602  27.301  21.399  1.00  0.00     0.274 HD
ATOM     31  H52 UNL     1      -6.851  28.703  22.053  1.00  0.00     0.274 HD
ATOM     32  H51 UNL     1      -5.653  28.579  20.898  1.00  0.00     0.274 HD
ENDBRANCH   6  29
BRANCH   3  33
HETATM   33  O4  UNL     1      -3.596  25.912  25.824  1.00  0.00    -0.350 OA
BRANCH  33  34
HETATM   34  C10 UNL     1      -3.725  26.513  27.050  1.00  0.00     0.185 C 
HETATM   35  C11 UNL     1      -2.697  27.497  27.408  1.00  0.00     0.216 C 
HETATM   36  C12 UNL     1      -2.029  27.336  28.736  1.00  0.00     0.068 C 
HETATM   37  C13 UNL     1      -2.061  25.965  29.327  1.00  0.00     0.187 C 
HETATM   38  C14 UNL     1      -3.562  25.627  29.417  1.00  0.00     0.068 C 
HETATM   39  C15 UNL     1      -3.953  25.363  28.003  1.00  0.00     0.216 C 
BRANCH  35  40
HETATM   40  N1  UNL     1      -3.350  28.828  27.526  1.00  0.00    -0.072 N 
ATOM     41  H13 UNL     1      -3.107  29.455  26.759  1.00  0.00     0.274 HD
ATOM     42  H12 UNL     1      -4.355  28.789  27.358  1.00  0.00     0.274 HD
ATOM     43  H11 UNL     1      -3.117  29.216  28.439  1.00  0.00     0.274 HD
ENDBRANCH  35  40
BRANCH  37  44
HETATM   44  N2  UNL     1      -1.560  26.012  30.666  1.00  0.00    -0.075 N 
ATOM     45  H23 UNL     1      -0.564  25.796  30.713  1.00  0.00     0.274 HD
ATOM     46  H22 UNL     1      -1.518  26.964  31.029  1.00  0.00     0.274 HD
ATOM     47  H21 UNL     1      -2.118  25.397  31.258  1.00  0.00     0.274 HD
ENDBRANCH  37  44
BRANCH  39  48
HETATM   48  N3  UNL     1      -5.343  24.933  27.909  1.00  0.00    -0.072 N 
ATOM     49  H33 UNL     1      -5.962  25.490  28.500  1.00  0.00     0.274 HD
ATOM     50  H32 UNL     1      -5.760  25.164  27.007  1.00  0.00     0.274 HD
ATOM     51  H31 UNL     1      -5.400  23.937  28.119  1.00  0.00     0.274 HD
ENDBRANCH  39  48
ENDBRANCH  33  34
ENDBRANCH   3  33
BRANCH   4  52
HETATM   52  N4  UNL     1      -3.007  24.892  23.246  1.00  0.00    -0.070 N 
ATOM     53  H43 UNL     1      -3.245  24.086  22.669  1.00  0.00     0.274 HD
ATOM     54  H42 UNL     1      -2.372  25.346  22.589  1.00  0.00     0.274 HD
ATOM     55  H41 UNL     1      -2.551  24.633  24.120  1.00  0.00     0.274 HD
ENDBRANCH   4  52
TORSDOF 15
ENDMDL
MODEL 3
REMARK VINA RESULT: -6.074363258      1.543      2.035
REMARK  15 active torsions:
REMARK  status: ('A' for Active; 'I' for Inactive)
REMARK    1  A    between atoms: C2_2  and  S1_3 
REMARK    2  A    between atoms: S1_3  and  C3_4 
REMARK    3  A    between atoms: C3_4  and  C4_5 
REMARK    4  A    between atoms: C5_7  and  C6_8 
REMARK    5  A    between atoms: C7_10  and  O2_11 
REMARK    6  A    between atoms: O2_11  and  C8_12 
REMARK    7  A    between atoms: C9_14  and  O4_15 
REMARK    8  A    between atoms: O4_15  and  C10_16 
REMARK    9  A    between atoms: C11_17  and  N1_18 
REMARK   10  A    between atoms: C13_23  and  N2_24 
REMARK   11  A    between atoms: C15_29  and  N3_30 
REMARK   12  A    between atoms: C16_34  and  N4_35 
REMARK   13  A    between atoms: C18_40  and  N5_41 
REMARK   14  A    between atoms: C19_45  and  N6_46 
REMARK   15  A    between atoms: C21_51  and  N7_52 
ROOT
HETATM    1  C8  UNL     1      -6.082  27.503  24.117  1.00  0.00     0.294 C 
HETATM    2  O3  UNL     1      -4.997  27.636  25.037  1.00  0.00    -0.327 OA
HETATM    3  C9  UNL     1      -3.961  26.749  24.761  1.00  0.00     0.293 C 
HETATM    4  C16 UNL     1      -4.255  25.825  23.611  1.00  0.00     0.240 C 
HETATM    5  C17 UNL     1      -4.575  26.632  22.402  1.00  0.00     0.075 C 
HETATM    6  C18 UNL     1      -5.399  27.835  22.813  1.00  0.00     0.240 C 
ENDROOT
BRANCH   1   7
HETATM    7  O2  UNL     1      -6.992  28.415  24.507  1.00  0.00    -0.349 OA
BRANCH   7   8
HETATM    8  C7  UNL     1      -6.704  29.342  25.476  1.00  0.00     0.184 C 
HETATM    9  C5  UNL     1      -6.769  30.668  24.728  1.00  0.00     0.163 C 
HETATM   10  O1  UNL     1      -6.428  31.784  25.338  1.00  0.00    -0.374 OA
HETATM   11  C4  UNL     1      -7.031  32.413  26.313  1.00  0.00     0.161 C 
HETATM   12  C21 UNL     1      -8.125  31.710  27.065  1.00  0.00     0.215 C 
HETATM   13  C20 UNL     1      -7.567  30.456  27.582  1.00  0.00     0.070 C 
HETATM   14  C19 UNL     1      -7.446  29.267  26.739  1.00  0.00     0.217 C 
BRANCH   9  15
HETATM   15  C6  UNL     1      -7.989  30.726  23.799  1.00  0.00     0.120 C 
HETATM   16  S2  UNL     1      -7.469  31.294  22.161  1.00  0.00    -0.095 SA
ENDBRANCH   9  15
BRANCH  11  17
HETATM   17  C3  UNL     1      -7.601  33.738  25.852  1.00  0.00     0.108 C 
BRANCH  17  18
HETATM   18  S1  UNL     1      -6.659  34.458  24.486  1.00  0.00    -0.167 SA
BRANCH  18  19
HETATM   19  C2  UNL     1      -7.778  34.706  23.088  1.00  0.00     0.069 C 
HETATM   20  C1  UNL     1      -9.220  34.461  23.479  1.00  0.00     0.016 C 
ENDBRANCH  18  19
ENDBRANCH  17  18
ENDBRANCH  11  17
BRANCH  12  21
HETATM   21  N7  UNL     1      -8.373  32.554  28.257  1.00  0.00    -0.072 N 
ATOM     22  H73 UNL     1      -9.330  32.505  28.605  1.00  0.00     0.274 HD
ATOM     23  H72 UNL     1      -7.921  32.213  29.106  1.00  0.00     0.274 HD
ATOM     24  H71 UNL     1      -8.080  33.491  27.981  1.00  0.00     0.274 HD
ENDBRANCH  12  21
BRANCH  14  25
HETATM   25  N6  UNL     1      -6.700  28.346  27.641  1.00  0.00    -0.072 N 
ATOM     26  H63 UNL     1      -7.115  27.415  27.691  1.00  0.00     0.274 HD
ATOM     27  H62 UNL     1      -5.794  28.067  27.263  1.00  0.00     0.274 HD
ATOM     28  H61 UNL     1      -6.629  28.800  28.551  1.00  0.00     0.274 HD
ENDBRANCH  14  25
ENDBRANCH   7   8
ENDBRANCH   1   7
BRANCH   6  29
HETATM   29  N5  UNL     1      -6.250  28.149  21.721  1.00  0.00    -0.070 N 
ATOM     30  H53 UNL     1      -5.734  28.689  21.026  1.00  0.00     0.274 HD
ATOM     31  H52 UNL     1      -6.451  27.305  21.186  1.00  0.00     0.274 HD
ATOM     32  H51 UNL     1      -7.122  28.627  21.951  1.00  0.00     0.274 HD
ENDBRANCH   6  29
BRANCH   3  33
HETATM   33  O4  UNL     1      -3.771  26.004  25.884  1.00  0.00    -0.350 OA
BRANCH  33  34
HETATM   34  C10 UNL     1      -3.834  26.606  27.115  1.00  0.00     0.185 C 
HETATM   35  C11 UNL     1      -2.764  27.558  27.434  1.00  0.00     0.216 C 
HETATM   36  C12 UNL     1      -2.049  27.373  28.735  1.00  0.00     0.068 C 
HETATM   37  C13 UNL     1      -2.098  26.003  29.324  1.00  0.00     0.187 C 
HETATM   38  C14 UNL     1      -3.604  25.708  29.472  1.00  0.00     0.068 C 
HETATM   39  C15 UNL     1      -4.058  25.460  28.075  1.00  0.00     0.216 C 
BRANCH  35  40
HETATM   40  N1  UNL     1      -3.373  28.907  27.580  1.00  0.00    -0.072 N 
ATOM     41  H13 UNL     1      -3.176  29.515  26.786  1.00  0.00     0.274 HD
ATOM     42  H12 UNL     1      -4.389  28.892  27.493  1.00  0.00     0.274 HD
ATOM     43  H11 UNL     1      -3.059  29.303  28.466  1.00  0.00     0.274 HD
ENDBRANCH  35  40
BRANCH  37  44
HETATM   44  N2  UNL     1      -1.544  26.031  30.642  1.00  0.00    -0.075 N 
ATOM     45  H23 UNL     1      -0.570  25.730  30.657  1.00  0.00     0.274 HD
ATOM     46  H22 UNL     1      -1.407  26.983  30.982  1.00  0.00     0.274 HD
ATOM     47  H21 UNL     1      -2.130  25.478  31.269  1.00  0.00     0.274 HD
ENDBRANCH  37  44
BRANCH  39  48
HETATM   48  N3  UNL     1      -5.463  25.071  28.035  1.00  0.00    -0.072 N 
ATOM     49  H33 UNL     1      -6.087  25.877  27.987  1.00  0.00     0.274 HD
ATOM     50  H32 UNL     1      -5.720  24.637  27.148  1.00  0.00     0.274 HD
ATOM     51  H31 UNL     1      -5.667  24.470  28.834  1.00  0.00     0.274 HD
ENDBRANCH  39  48
ENDBRANCH  33  34
ENDBRANCH   3  33
BRANCH   4  52
HETATM   52  N4  UNL     1      -3.031  25.079  23.309  1.00  0.00    -0.070 N 
ATOM     53  H43 UNL     1      -2.991  24.758  22.342  1.00  0.00     0.274 HD
ATOM     54  H42 UNL     1      -2.201  25.671  23.290  1.00  0.00     0.274 HD
ATOM     55  H41 UNL     1      -2.955  24.316  23.982  1.00  0.00     0.274 HD
ENDBRANCH   4  52
TORSDOF 15
ENDMDL
MODEL 4
REMARK VINA RESULT: -6.041863954      2.565      3.540
REMARK  15 active torsions:
REMARK  status: ('A' for Active; 'I' for Inactive)
REMARK    1  A    between atoms: C2_2  and  S1_3 
REMARK    2  A    between atoms: S1_3  and  C3_4 
REMARK    3  A    between atoms: C3_4  and  C4_5 
REMARK    4  A    between atoms: C5_7  and  C6_8 
REMARK    5  A    between atoms: C7_10  and  O2_11 
REMARK    6  A    between atoms: O2_11  and  C8_12 
REMARK    7  A    between atoms: C9_14  and  O4_15 
REMARK    8  A    between atoms: O4_15  and  C10_16 
REMARK    9  A    between atoms: C11_17  and  N1_18 
REMARK   10  A    between atoms: C13_23  and  N2_24 
REMARK   11  A    between atoms: C15_29  and  N3_30 
REMARK   12  A    between atoms: C16_34  and  N4_35 
REMARK   13  A    between atoms: C18_40  and  N5_41 
REMARK   14  A    between atoms: C19_45  and  N6_46 
REMARK   15  A    between atoms: C21_51  and  N7_52 
ROOT
HETATM    1  C8  UNL     1      -6.042  28.223  24.040  1.00  0.00     0.294 C 
HETATM    2  O3  UNL     1      -4.885  28.098  24.870  1.00  0.00    -0.327 OA
HETATM    3  C9  UNL     1      -4.103  27.002  24.521  1.00  0.00     0.293 C 
HETATM    4  C16 UNL     1      -4.688  26.181  23.405  1.00  0.00     0.240 C 
HETATM    5  C17 UNL     1      -4.912  27.051  22.218  1.00  0.00     0.075 C 
HETATM    6  C18 UNL     1      -5.406  28.405  22.683  1.00  0.00     0.240 C 
ENDROOT
BRANCH   1   7
HETATM    7  O2  UNL     1      -6.688  29.314  24.494  1.00  0.00    -0.349 OA
BRANCH   7   8
HETATM    8  C7  UNL     1      -7.728  29.210  25.382  1.00  0.00     0.184 C 
HETATM    9  C5  UNL     1      -7.348  30.188  26.487  1.00  0.00     0.163 C 
HETATM   10  O1  UNL     1      -8.081  30.262  27.578  1.00  0.00    -0.374 OA
HETATM   11  C4  UNL     1      -9.299  30.713  27.729  1.00  0.00     0.161 C 
HETATM   12  C21 UNL     1     -10.138  30.964  26.508  1.00  0.00     0.215 C 
HETATM   13  C20 UNL     1     -10.185  29.713  25.743  1.00  0.00     0.070 C 
HETATM   14  C19 UNL     1      -9.093  29.318  24.854  1.00  0.00     0.217 C 
BRANCH   9  15
HETATM   15  C6  UNL     1      -6.821  31.508  25.909  1.00  0.00     0.120 C 
HETATM   16  S2  UNL     1      -5.561  32.188  27.016  1.00  0.00    -0.095 SA
ENDBRANCH   9  15
BRANCH  11  17
HETATM   17  C3  UNL     1      -9.324  31.989  28.543  1.00  0.00     0.108 C 
BRANCH  17  18
HETATM   18  S1  UNL     1      -9.501  31.674  30.315  1.00  0.00    -0.167 SA
BRANCH  18  19
HETATM   19  C2  UNL     1     -10.583  30.242  30.536  1.00  0.00     0.069 C 
HETATM   20  C1  UNL     1     -10.696  29.850  31.995  1.00  0.00     0.016 C 
ENDBRANCH  18  19
ENDBRANCH  17  18
ENDBRANCH  11  17
BRANCH  12  21
HETATM   21  N7  UNL     1     -11.512  31.165  27.022  1.00  0.00    -0.072 N 
ATOM     22  H73 UNL     1     -12.116  30.350  26.917  1.00  0.00     0.274 HD
ATOM     23  H72 UNL     1     -11.569  31.222  28.039  1.00  0.00     0.274 HD
ATOM     24  H71 UNL     1     -11.854  31.998  26.542  1.00  0.00     0.274 HD
ENDBRANCH  12  21
BRANCH  14  25
HETATM   25  N6  UNL     1      -9.525  27.950  24.453  1.00  0.00    -0.072 N 
ATOM     26  H63 UNL     1      -9.559  27.298  25.236  1.00  0.00     0.274 HD
ATOM     27  H62 UNL     1     -10.511  27.903  24.198  1.00  0.00     0.274 HD
ATOM     28  H61 UNL     1      -8.905  27.641  23.704  1.00  0.00     0.274 HD
ENDBRANCH  14  25
ENDBRANCH   7   8
ENDBRANCH   1   7
BRANCH   6  29
HETATM   29  N5  UNL     1      -6.248  28.915  21.660  1.00  0.00    -0.070 N 
ATOM     30  H53 UNL     1      -7.010  29.450  22.075  1.00  0.00     0.274 HD
ATOM     31  H52 UNL     1      -5.762  29.652  21.148  1.00  0.00     0.274 HD
ATOM     32  H51 UNL     1      -6.625  28.231  21.003  1.00  0.00     0.274 HD
ENDBRANCH   6  29
BRANCH   3  33
HETATM   33  O4  UNL     1      -3.998  26.222  25.631  1.00  0.00    -0.350 OA
BRANCH  33  34
HETATM   34  C10 UNL     1      -4.019  26.805  26.873  1.00  0.00     0.185 C 
HETATM   35  C11 UNL     1      -2.892  27.683  27.203  1.00  0.00     0.216 C 
HETATM   36  C12 UNL     1      -2.185  27.432  28.497  1.00  0.00     0.068 C 
HETATM   37  C13 UNL     1      -2.317  26.057  29.063  1.00  0.00     0.187 C 
HETATM   38  C14 UNL     1      -3.837  25.853  29.212  1.00  0.00     0.068 C 
HETATM   39  C15 UNL     1      -4.310  25.658  27.813  1.00  0.00     0.216 C 
BRANCH  35  40
HETATM   40  N1  UNL     1      -3.416  29.065  27.375  1.00  0.00    -0.072 N 
ATOM     41  H13 UNL     1      -2.943  29.742  26.778  1.00  0.00     0.274 HD
ATOM     42  H12 UNL     1      -4.356  29.179  26.996  1.00  0.00     0.274 HD
ATOM     43  H11 UNL     1      -3.358  29.305  28.364  1.00  0.00     0.274 HD
ENDBRANCH  35  40
BRANCH  37  44
HETATM   44  N2  UNL     1      -1.757  26.028  30.378  1.00  0.00    -0.075 N 
ATOM     45  H23 UNL     1      -1.111  26.800  30.539  1.00  0.00     0.274 HD
ATOM     46  H22 UNL     1      -2.444  26.262  31.095  1.00  0.00     0.274 HD
ATOM     47  H21 UNL     1      -1.322  25.120  30.542  1.00  0.00     0.274 HD
ENDBRANCH  37  44
BRANCH  39  48
HETATM   48  N3  UNL     1      -5.737  25.357  27.772  1.00  0.00    -0.072 N 
ATOM     49  H33 UNL     1      -6.283  26.122  27.376  1.00  0.00     0.274 HD
ATOM     50  H32 UNL     1      -5.963  24.644  27.079  1.00  0.00     0.274 HD
ATOM     51  H31 UNL     1      -6.051  25.101  28.708  1.00  0.00     0.274 HD
ENDBRANCH  39  48
ENDBRANCH  33  34
ENDBRANCH   3  33
BRANCH   4  52
HETATM   52  N4  UNL     1      -3.692  25.179  23.013  1.00  0.00    -0.070 N 
ATOM     53  H43 UNL     1      -3.608  24.420  23.689  1.00  0.00     0.274 HD
ATOM     54  H42 UNL     1      -3.989  24.618  22.215  1.00  0.00     0.274 HD
ATOM     55  H41 UNL     1      -2.809  25.663  22.849  1.00  0.00     0.274 HD
ENDBRANCH   4  52
TORSDOF 15
ENDMDL
MODEL 5
REMARK VINA RESULT: -6.013449782      2.483      3.171
REMARK  15 active torsions:
REMARK  status: ('A' for Active; 'I' for Inactive)
REMARK    1  A    between atoms: C2_2  and  S1_3 
REMARK    2  A    between atoms: S1_3  and  C3_4 
REMARK    3  A    between atoms: C3_4  and  C4_5 
REMARK    4  A    between atoms: C5_7  and  C6_8 
REMARK    5  A    between atoms: C7_10  and  O2_11 
REMARK    6  A    between atoms: O2_11  and  C8_12 
REMARK    7  A    between atoms: C9_14  and  O4_15 
REMARK    8  A    between atoms: O4_15  and  C10_16 
REMARK    9  A    between atoms: C11_17  and  N1_18 
REMARK   10  A    between atoms: C13_23  and  N2_24 
REMARK   11  A    between atoms: C15_29  and  N3_30 
REMARK   12  A    between atoms: C16_34  and  N4_35 
REMARK   13  A    between atoms: C18_40  and  N5_41 
REMARK   14  A    between atoms: C19_45  and  N6_46 
REMARK   15  A    between atoms: C21_51  and  N7_52 
ROOT
HETATM    1  C8  UNL     1      -5.903  28.190  24.352  1.00  0.00     0.294 C 
HETATM    2  O3  UNL     1      -4.693  28.101  25.108  1.00  0.00    -0.327 OA
HETATM    3  C9  UNL     1      -3.919  27.007  24.736  1.00  0.00     0.293 C 
HETATM    4  C16 UNL     1      -4.563  26.148  23.683  1.00  0.00     0.240 C 
HETATM    5  C17 UNL     1      -4.876  26.984  22.491  1.00  0.00     0.075 C 
HETATM    6  C18 UNL     1      -5.360  28.343  22.952  1.00  0.00     0.240 C 
ENDROOT
BRANCH   1   7
HETATM    7  O2  UNL     1      -6.534  29.283  24.818  1.00  0.00    -0.349 OA
BRANCH   7   8
HETATM    8  C7  UNL     1      -7.720  29.187  25.501  1.00  0.00     0.184 C 
HETATM    9  C5  UNL     1      -7.608  30.278  26.559  1.00  0.00     0.163 C 
HETATM   10  O1  UNL     1      -8.541  30.397  27.481  1.00  0.00    -0.374 OA
HETATM   11  C4  UNL     1      -9.785  30.778  27.356  1.00  0.00     0.161 C 
HETATM   12  C21 UNL     1     -10.383  30.868  25.981  1.00  0.00     0.215 C 
HETATM   13  C20 UNL     1     -10.222  29.557  25.344  1.00  0.00     0.070 C 
HETATM   14  C19 UNL     1      -8.960  29.160  24.718  1.00  0.00     0.217 C 
BRANCH   9  15
HETATM   15  C6  UNL     1      -7.043  31.576  25.966  1.00  0.00     0.120 C 
HETATM   16  S2  UNL     1      -5.563  32.062  26.886  1.00  0.00    -0.095 SA
ENDBRANCH   9  15
BRANCH  11  17
HETATM   17  C3  UNL     1     -10.028  32.114  28.025  1.00  0.00     0.108 C 
BRANCH  17  18
HETATM   18  S1  UNL     1     -10.333  31.953  29.800  1.00  0.00    -0.167 SA
BRANCH  18  19
HETATM   19  C2  UNL     1      -8.865  32.527  30.687  1.00  0.00     0.069 C 
HETATM   20  C1  UNL     1      -7.838  33.114  29.741  1.00  0.00     0.016 C 
ENDBRANCH  18  19
ENDBRANCH  17  18
ENDBRANCH  11  17
BRANCH  12  21
HETATM   21  N7  UNL     1     -11.839  31.021  26.206  1.00  0.00    -0.072 N 
ATOM     22  H73 UNL     1     -12.163  31.988  26.171  1.00  0.00     0.274 HD
ATOM     23  H72 UNL     1     -12.415  30.677  25.438  1.00  0.00     0.274 HD
ATOM     24  H71 UNL     1     -12.018  30.557  27.097  1.00  0.00     0.274 HD
ENDBRANCH  12  21
BRANCH  14  25
HETATM   25  N6  UNL     1      -9.240  27.738  24.377  1.00  0.00    -0.072 N 
ATOM     26  H63 UNL     1      -9.127  27.537  23.383  1.00  0.00     0.274 HD
ATOM     27  H62 UNL     1      -8.526  27.097  24.723  1.00  0.00     0.274 HD
ATOM     28  H61 UNL     1     -10.174  27.518  24.723  1.00  0.00     0.274 HD
ENDBRANCH  14  25
ENDBRANCH   7   8
ENDBRANCH   1   7
BRANCH   6  29
HETATM   29  N5  UNL     1      -6.273  28.814  21.973  1.00  0.00    -0.070 N 
ATOM     30  H53 UNL     1      -6.959  28.089  21.765  1.00  0.00     0.274 HD
ATOM     31  H52 UNL     1      -6.878  29.528  22.379  1.00  0.00     0.274 HD
ATOM     32  H51 UNL     1      -5.865  29.161  21.105  1.00  0.00     0.274 HD
ENDBRANCH   6  29
BRANCH   3  33
HETATM   33  O4  UNL     1      -3.731  26.259  25.857  1.00  0.00    -0.350 OA
BRANCH  33  34
HETATM   34  C10 UNL     1      -3.883  26.837  27.091  1.00  0.00     0.185 C 
HETATM   35  C11 UNL     1      -2.813  27.741  27.528  1.00  0.00     0.216 C 
HETATM   36  C12 UNL     1      -2.226  27.502  28.883  1.00  0.00     0.068 C 
HETATM   37  C13 UNL     1      -2.379  26.123  29.433  1.00  0.00     0.187 C 
HETATM   38  C14 UNL     1      -3.901  25.884  29.438  1.00  0.00     0.068 C 
HETATM   39  C15 UNL     1      -4.235  25.682  28.000  1.00  0.00     0.216 C 
BRANCH  35  40
HETATM   40  N1  UNL     1      -3.382  29.109  27.650  1.00  0.00    -0.072 N 
ATOM     41  H13 UNL     1      -4.327  29.109  28.032  1.00  0.00     0.274 HD
ATOM     42  H12 UNL     1      -2.936  29.656  28.387  1.00  0.00     0.274 HD
ATOM     43  H11 UNL     1      -3.327  29.559  26.737  1.00  0.00     0.274 HD
ENDBRANCH  35  40
BRANCH  37  44
HETATM   44  N2  UNL     1      -1.946  26.104  30.796  1.00  0.00    -0.075 N 
ATOM     45  H23 UNL     1      -1.528  25.210  31.055  1.00  0.00     0.274 HD
ATOM     46  H22 UNL     1      -1.130  26.695  30.950  1.00  0.00     0.274 HD
ATOM     47  H21 UNL     1      -2.726  26.356  31.403  1.00  0.00     0.274 HD
ENDBRANCH  37  44
BRANCH  39  48
HETATM   48  N3  UNL     1      -5.644  25.348  27.824  1.00  0.00    -0.072 N 
ATOM     49  H33 UNL     1      -5.968  25.524  26.872  1.00  0.00     0.274 HD
ATOM     50  H32 UNL     1      -5.810  24.342  27.849  1.00  0.00     0.274 HD
ATOM     51  H31 UNL     1      -6.196  25.850  28.520  1.00  0.00     0.274 HD
ENDBRANCH  39  48
ENDBRANCH  33  34
ENDBRANCH   3  33
BRANCH   4  52
HETATM   52  N4  UNL     1      -3.580  25.150  23.253  1.00  0.00    -0.070 N 
ATOM     53  H43 UNL     1      -2.715  25.568  22.913  1.00  0.00     0.274 HD
ATOM     54  H42 UNL     1      -3.181  24.627  24.032  1.00  0.00     0.274 HD
ATOM     55  H41 UNL     1      -4.027  24.548  22.561  1.00  0.00     0.274 HD
ENDBRANCH   4  52
TORSDOF 15
ENDMDL
