MODEL 1
REMARK VINA RESULT: -7.548864576      0.000      0.000
REMARK  9 active torsions:
REMARK  status: ('A' for Active; 'I' for Inactive)
REMARK    1  A    between atoms: N1_1  and  C1_4 
REMARK    2  A    between atoms: C2_7  and  C3_8 
REMARK    3  A    between atoms: C3_8  and  O1_9 
REMARK    4  A    between atoms: C3_8  and  O2_11 
REMARK    5  A    between atoms: N4_20  and  N5_21 
REMARK       I    between atoms: N5_21  and  C7_23 
REMARK    6  A    between atoms: C7_23  and  C8_25 
REMARK    7  A    between atoms: C8_25  and  N6_26 
REMARK    8  A    between atoms: C8_25  and  C9_30 
REMARK    9  A    between atoms: C9_30  and  N7_31 
ROOT
HETATM    1  C1  UNL     1       6.192   7.957  56.310  1.00  0.00     0.677 A 
HETATM    2  N2  UNL     1       7.245   8.351  56.991  1.00  0.00    -0.190 N 
ATOM      3  H2  UNL     1       7.421   7.934  57.905  1.00  0.00     0.184 HD
HETATM    4  C2  UNL     1       8.126   9.310  56.517  1.00  0.00     0.100 A 
HETATM    5  C4  UNL     1       7.820   9.826  55.276  1.00  0.00     0.107 A 
HETATM    6  C5  UNL     1       8.637  10.786  54.750  1.00  0.00     0.265 A 
HETATM    7  O3  UNL     1       9.633  11.195  55.341  1.00  0.00    -0.267 OA
HETATM    8  N3  UNL     1       8.374  11.319  53.554  1.00  0.00    -0.273 N 
ATOM      9  H3  UNL     1       8.990  12.034  53.167  1.00  0.00     0.173 HD
HETATM   10  C6  UNL     1       7.287  10.908  52.853  1.00  0.00     0.350 A 
HETATM   11  O4  UNL     1       7.106  11.461  51.728  1.00  0.00    -0.244 OA
HETATM   12  N4  UNL     1       6.445   9.972  53.315  1.00  0.00    -0.184 N 
HETATM   13  C10 UNL     1       6.704   9.403  54.564  1.00  0.00     0.165 A 
HETATM   14  N8  UNL     1       5.915   8.476  55.100  1.00  0.00    -0.174 N 
ATOM     15  H8  UNL     1       5.092   8.155  54.590  1.00  0.00     0.186 HD
ENDROOT
BRANCH  12  16
HETATM   16  N5  UNL     1       5.322   9.519  52.657  1.00  0.00    -0.256 N 
HETATM   17  C7  UNL     1       5.156   8.736  51.524  1.00  0.00     0.269 C 
HETATM   18  O5  UNL     1       6.043   8.254  50.826  1.00  0.00    -0.269 OA
ATOM     19  H5  UNL     1       4.446   9.816  53.085  1.00  0.00     0.191 HD
BRANCH  17  20
HETATM   20  C8  UNL     1       3.744   8.398  51.037  1.00  0.00     0.301 C 
BRANCH  20  21
HETATM   21  N6  UNL     1       2.816   8.701  52.078  1.00  0.00    -0.065 N 
ATOM     22  H63 UNL     1       1.856   8.468  51.824  1.00  0.00     0.275 HD
ATOM     23  H62 UNL     1       2.907   8.073  52.877  1.00  0.00     0.275 HD
ATOM     24  H61 UNL     1       2.923   9.682  52.338  1.00  0.00     0.275 HD
ENDBRANCH  20  21
BRANCH  20  25
HETATM   25  C9  UNL     1       3.440   9.169  49.785  1.00  0.00     0.272 C 
BRANCH  25  26
HETATM   26  N7  UNL     1       2.231   8.732  49.135  1.00  0.00    -0.077 N 
ATOM     27  H73 UNL     1       2.136   9.160  48.215  1.00  0.00     0.274 HD
ATOM     28  H72 UNL     1       2.300   7.753  48.857  1.00  0.00     0.274 HD
ATOM     29  H71 UNL     1       1.396   8.892  49.699  1.00  0.00     0.274 HD
ENDBRANCH  25  26
ENDBRANCH  20  25
ENDBRANCH  17  20
ENDBRANCH  12  16
BRANCH   4  30
HETATM   30  C3  UNL     1       9.266   9.633  57.350  1.00  0.00     0.306 C 
BRANCH  30  31
HETATM   31  O1  UNL     1       9.117   9.152  58.678  1.00  0.00    -0.366 OA
ATOM     32  H1  UNL     1       9.380   9.794  59.326  1.00  0.00     0.213 HD
ENDBRANCH  30  31
BRANCH  30  33
HETATM   33  O2  UNL     1      10.232   8.619  56.904  1.00  0.00    -0.366 OA
ATOM     34  H2  UNL     1      10.938   9.170  56.589  1.00  0.00     0.213 HD
ENDBRANCH  30  33
ENDBRANCH   4  30
BRANCH   1  35
HETATM   35  N1  UNL     1       5.416   7.044  56.840  1.00  0.00    -0.234 N 
ATOM     36  H12 UNL     1       4.515   7.298  57.245  1.00  0.00     0.174 HD
ATOM     37  H11 UNL     1       5.738   6.076  56.837  1.00  0.00     0.174 HD
ENDBRANCH   1  35
TORSDOF 9
ENDMDL
MODEL 2
REMARK VINA RESULT: -7.424335919      1.200      1.417
REMARK  9 active torsions:
REMARK  status: ('A' for Active; 'I' for Inactive)
REMARK    1  A    between atoms: N1_1  and  C1_4 
REMARK    2  A    between atoms: C2_7  and  C3_8 
REMARK    3  A    between atoms: C3_8  and  O1_9 
REMARK    4  A    between atoms: C3_8  and  O2_11 
REMARK    5  A    between atoms: N4_20  and  N5_21 
REMARK       I    between atoms: N5_21  and  C7_23 
REMARK    6  A    between atoms: C7_23  and  C8_25 
REMARK    7  A    between atoms: C8_25  and  N6_26 
REMARK    8  A    between atoms: C8_25  and  C9_30 
REMARK    9  A    between atoms: C9_30  and  N7_31 
ROOT
HETATM    1  C1  UNL     1       6.207   7.784  56.775  1.00  0.00     0.677 A 
HETATM    2  N2  UNL     1       7.181   8.003  57.630  1.00  0.00    -0.190 N 
ATOM      3  H2  UNL     1       7.199   7.467  58.499  1.00  0.00     0.184 HD
HETATM    4  C2  UNL     1       8.184   8.930  57.400  1.00  0.00     0.100 A 
HETATM    5  C4  UNL     1       8.089   9.613  56.207  1.00  0.00     0.107 A 
HETATM    6  C5  UNL     1       9.037  10.554  55.917  1.00  0.00     0.265 A 
HETATM    7  O3  UNL     1       9.967  10.804  56.679  1.00  0.00    -0.267 OA
HETATM    8  N3  UNL     1       8.980  11.244  54.775  1.00  0.00    -0.273 N 
ATOM      9  H3  UNL     1       9.692  11.944  54.566  1.00  0.00     0.173 HD
HETATM   10  C6  UNL     1       7.975  11.015  53.894  1.00  0.00     0.350 A 
HETATM   11  O4  UNL     1       7.990  11.709  52.835  1.00  0.00    -0.244 OA
HETATM   12  N4  UNL     1       7.013  10.107  54.120  1.00  0.00    -0.184 N 
HETATM   13  C10 UNL     1       7.056   9.375  55.308  1.00  0.00     0.165 A 
HETATM   14  N8  UNL     1       6.138   8.463  55.616  1.00  0.00    -0.174 N 
ATOM     15  H8  UNL     1       5.373   8.277  54.967  1.00  0.00     0.186 HD
ENDROOT
BRANCH  12  16
HETATM   16  N5  UNL     1       5.963   9.833  53.271  1.00  0.00    -0.256 N 
HETATM   17  C7  UNL     1       5.857   9.025  52.148  1.00  0.00     0.269 C 
HETATM   18  O5  UNL     1       6.743   8.340  51.647  1.00  0.00    -0.269 OA
ATOM     19  H5  UNL     1       5.099  10.318  53.513  1.00  0.00     0.191 HD
BRANCH  17  20
HETATM   20  C8  UNL     1       4.519   8.930  51.408  1.00  0.00     0.301 C 
BRANCH  20  21
HETATM   21  N6  UNL     1       4.593   7.866  50.460  1.00  0.00    -0.065 N 
ATOM     22  H63 UNL     1       5.153   8.111  49.643  1.00  0.00     0.275 HD
ATOM     23  H62 UNL     1       5.162   7.087  50.793  1.00  0.00     0.275 HD
ATOM     24  H61 UNL     1       3.646   7.581  50.213  1.00  0.00     0.275 HD
ENDBRANCH  20  21
BRANCH  20  25
HETATM   25  C9  UNL     1       3.407   8.715  52.394  1.00  0.00     0.272 C 
BRANCH  25  26
HETATM   26  N7  UNL     1       2.294   9.607  52.188  1.00  0.00    -0.077 N 
ATOM     27  H73 UNL     1       1.574   9.460  52.896  1.00  0.00     0.274 HD
ATOM     28  H72 UNL     1       2.552  10.569  52.410  1.00  0.00     0.274 HD
ATOM     29  H71 UNL     1       1.900   9.543  51.249  1.00  0.00     0.274 HD
ENDBRANCH  25  26
ENDBRANCH  20  25
ENDBRANCH  17  20
ENDBRANCH  12  16
BRANCH   4  30
HETATM   30  C3  UNL     1       9.217   9.054  58.407  1.00  0.00     0.306 C 
BRANCH  30  31
HETATM   31  O1  UNL     1       8.814   8.523  59.662  1.00  0.00    -0.366 OA
ATOM     32  H1  UNL     1       7.900   8.697  59.850  1.00  0.00     0.213 HD
ENDBRANCH  30  31
BRANCH  30  33
HETATM   33  O2  UNL     1      10.108   7.947  58.028  1.00  0.00    -0.366 OA
ATOM     34  H2  UNL     1      10.912   8.208  58.460  1.00  0.00     0.213 HD
ENDBRANCH  30  33
ENDBRANCH   4  30
BRANCH   1  35
HETATM   35  N1  UNL     1       5.304   6.886  57.079  1.00  0.00    -0.234 N 
ATOM     36  H12 UNL     1       4.673   7.028  57.868  1.00  0.00     0.174 HD
ATOM     37  H11 UNL     1       5.249   6.042  56.508  1.00  0.00     0.174 HD
ENDBRANCH   1  35
TORSDOF 9
ENDMDL
MODEL 3
REMARK VINA RESULT: -7.386785598      2.661      6.662
REMARK  9 active torsions:
REMARK  status: ('A' for Active; 'I' for Inactive)
REMARK    1  A    between atoms: N1_1  and  C1_4 
REMARK    2  A    between atoms: C2_7  and  C3_8 
REMARK    3  A    between atoms: C3_8  and  O1_9 
REMARK    4  A    between atoms: C3_8  and  O2_11 
REMARK    5  A    between atoms: N4_20  and  N5_21 
REMARK       I    between atoms: N5_21  and  C7_23 
REMARK    6  A    between atoms: C7_23  and  C8_25 
REMARK    7  A    between atoms: C8_25  and  N6_26 
REMARK    8  A    between atoms: C8_25  and  C9_30 
REMARK    9  A    between atoms: C9_30  and  N7_31 
ROOT
HETATM    1  C1  UNL     1       4.107   8.827  52.621  1.00  0.00     0.677 A 
HETATM    2  N2  UNL     1       3.212   8.612  51.682  1.00  0.00    -0.190 N 
ATOM      3  H2  UNL     1       2.505   7.893  51.836  1.00  0.00     0.184 HD
HETATM    4  C2  UNL     1       3.190   9.323  50.493  1.00  0.00     0.100 A 
HETATM    5  C4  UNL     1       4.177  10.276  50.361  1.00  0.00     0.107 A 
HETATM    6  C5  UNL     1       4.225  11.008  49.208  1.00  0.00     0.265 A 
HETATM    7  O3  UNL     1       3.419  10.849  48.296  1.00  0.00    -0.267 OA
HETATM    8  N3  UNL     1       5.170  11.936  49.034  1.00  0.00    -0.273 N 
ATOM      9  H3  UNL     1       5.198  12.480  48.172  1.00  0.00     0.173 HD
HETATM   10  C6  UNL     1       6.090  12.157  50.005  1.00  0.00     0.350 A 
HETATM   11  O4  UNL     1       6.952  13.054  49.766  1.00  0.00    -0.244 OA
HETATM   12  N4  UNL     1       6.098  11.471  51.158  1.00  0.00    -0.184 N 
HETATM   13  C10 UNL     1       5.119  10.496  51.358  1.00  0.00     0.165 A 
HETATM   14  N8  UNL     1       5.060   9.764  52.467  1.00  0.00    -0.174 N 
ATOM     15  H8  UNL     1       5.745   9.914  53.209  1.00  0.00     0.186 HD
ENDROOT
BRANCH  12  16
HETATM   16  N5  UNL     1       7.009  11.642  52.178  1.00  0.00    -0.256 N 
HETATM   17  C7  UNL     1       7.950  10.792  52.741  1.00  0.00     0.269 C 
HETATM   18  O5  UNL     1       8.176   9.628  52.423  1.00  0.00    -0.269 OA
ATOM     19  H5  UNL     1       6.988  12.570  52.599  1.00  0.00     0.191 HD
BRANCH  17  20
HETATM   20  C8  UNL     1       8.834  11.294  53.887  1.00  0.00     0.301 C 
BRANCH  20  21
HETATM   21  N6  UNL     1       8.428  12.617  54.234  1.00  0.00    -0.065 N 
ATOM     22  H63 UNL     1       8.054  13.131  53.436  1.00  0.00     0.275 HD
ATOM     23  H62 UNL     1       7.590  12.628  54.815  1.00  0.00     0.275 HD
ATOM     24  H61 UNL     1       9.214  13.097  54.673  1.00  0.00     0.275 HD
ENDBRANCH  20  21
BRANCH  20  25
HETATM   25  C9  UNL     1       8.728  10.359  55.058  1.00  0.00     0.272 C 
BRANCH  25  26
HETATM   26  N7  UNL     1       7.374   9.946  55.326  1.00  0.00    -0.077 N 
ATOM     27  H73 UNL     1       7.160  10.023  56.320  1.00  0.00     0.274 HD
ATOM     28  H72 UNL     1       6.707  10.623  54.958  1.00  0.00     0.274 HD
ATOM     29  H71 UNL     1       7.169   9.007  54.982  1.00  0.00     0.274 HD
ENDBRANCH  25  26
ENDBRANCH  20  25
ENDBRANCH  17  20
ENDBRANCH  12  16
BRANCH   4  30
HETATM   30  C3  UNL     1       2.132   9.012  49.554  1.00  0.00     0.306 C 
BRANCH  30  31
HETATM   31  O1  UNL     1       2.573   8.157  48.509  1.00  0.00    -0.366 OA
ATOM     32  H1  UNL     1       2.033   8.231  47.731  1.00  0.00     0.213 HD
ENDBRANCH  30  31
BRANCH  30  33
HETATM   33  O2  UNL     1       1.383   7.996  50.307  1.00  0.00    -0.366 OA
ATOM     34  H2  UNL     1       0.599   7.922  49.777  1.00  0.00     0.213 HD
ENDBRANCH  30  33
ENDBRANCH   4  30
BRANCH   1  35
HETATM   35  N1  UNL     1       4.048   8.105  53.712  1.00  0.00    -0.234 N 
ATOM     36  H12 UNL     1       3.444   7.284  53.761  1.00  0.00     0.174 HD
ATOM     37  H11 UNL     1       4.620   8.385  54.509  1.00  0.00     0.174 HD
ENDBRANCH   1  35
TORSDOF 9
ENDMDL
MODEL 4
REMARK VINA RESULT: -7.356539548      3.514      5.801
REMARK  9 active torsions:
REMARK  status: ('A' for Active; 'I' for Inactive)
REMARK    1  A    between atoms: N1_1  and  C1_4 
REMARK    2  A    between atoms: C2_7  and  C3_8 
REMARK    3  A    between atoms: C3_8  and  O1_9 
REMARK    4  A    between atoms: C3_8  and  O2_11 
REMARK    5  A    between atoms: N4_20  and  N5_21 
REMARK       I    between atoms: N5_21  and  C7_23 
REMARK    6  A    between atoms: C7_23  and  C8_25 
REMARK    7  A    between atoms: C8_25  and  N6_26 
REMARK    8  A    between atoms: C8_25  and  C9_30 
REMARK    9  A    between atoms: C9_30  and  N7_31 
ROOT
HETATM    1  C1  UNL     1       6.906   9.273  50.220  1.00  0.00     0.677 A 
HETATM    2  N2  UNL     1       6.904   8.779  51.438  1.00  0.00    -0.190 N 
ATOM      3  H2  UNL     1       7.785   8.448  51.833  1.00  0.00     0.184 HD
HETATM    4  C2  UNL     1       5.756   8.689  52.207  1.00  0.00     0.100 A 
HETATM    5  C4  UNL     1       4.608   9.155  51.603  1.00  0.00     0.107 A 
HETATM    6  C5  UNL     1       3.433   9.086  52.298  1.00  0.00     0.265 A 
HETATM    7  O3  UNL     1       3.370   8.631  53.437  1.00  0.00    -0.267 OA
HETATM    8  N3  UNL     1       2.295   9.519  51.748  1.00  0.00    -0.273 N 
ATOM      9  H3  UNL     1       1.422   9.466  52.274  1.00  0.00     0.173 HD
HETATM   10  C6  UNL     1       2.300  10.030  50.492  1.00  0.00     0.350 A 
HETATM   11  O4  UNL     1       1.181  10.420  50.042  1.00  0.00    -0.244 OA
HETATM   12  N4  UNL     1       3.419  10.123  49.758  1.00  0.00    -0.184 N 
HETATM   13  C10 UNL     1       4.618   9.676  50.315  1.00  0.00     0.165 A 
HETATM   14  N8  UNL     1       5.771   9.723  49.653  1.00  0.00    -0.174 N 
ATOM     15  H8  UNL     1       5.796  10.102  48.707  1.00  0.00     0.186 HD
ENDROOT
BRANCH  12  16
HETATM   16  N5  UNL     1       3.489  10.624  48.476  1.00  0.00    -0.256 N 
HETATM   17  C7  UNL     1       3.578  11.918  47.983  1.00  0.00     0.269 C 
HETATM   18  O5  UNL     1       3.612  12.955  48.637  1.00  0.00    -0.269 OA
ATOM     19  H5  UNL     1       3.472   9.907  47.752  1.00  0.00     0.191 HD
BRANCH  17  20
HETATM   20  C8  UNL     1       3.643  12.148  46.469  1.00  0.00     0.301 C 
BRANCH  20  21
HETATM   21  N6  UNL     1       3.208  13.477  46.189  1.00  0.00    -0.065 N 
ATOM     22  H63 UNL     1       2.439  13.771  46.790  1.00  0.00     0.275 HD
ATOM     23  H62 UNL     1       3.890  14.179  46.477  1.00  0.00     0.275 HD
ATOM     24  H61 UNL     1       2.975  13.544  45.198  1.00  0.00     0.275 HD
ENDBRANCH  20  21
BRANCH  20  25
HETATM   25  C9  UNL     1       5.042  11.908  45.979  1.00  0.00     0.272 C 
BRANCH  25  26
HETATM   26  N7  UNL     1       6.034  12.627  46.738  1.00  0.00    -0.077 N 
ATOM     27  H73 UNL     1       6.373  13.436  46.219  1.00  0.00     0.274 HD
ATOM     28  H72 UNL     1       5.610  13.104  47.533  1.00  0.00     0.274 HD
ATOM     29  H71 UNL     1       6.809  12.036  47.039  1.00  0.00     0.274 HD
ENDBRANCH  25  26
ENDBRANCH  20  25
ENDBRANCH  17  20
ENDBRANCH  12  16
BRANCH   4  30
HETATM   30  C3  UNL     1       5.894   8.154  53.545  1.00  0.00     0.306 C 
BRANCH  30  31
HETATM   31  O1  UNL     1       7.044   7.332  53.682  1.00  0.00    -0.366 OA
ATOM     32  H1  UNL     1       6.967   6.720  54.405  1.00  0.00     0.213 HD
ENDBRANCH  30  31
BRANCH  30  33
HETATM   33  O2  UNL     1       6.430   9.323  54.257  1.00  0.00    -0.366 OA
ATOM     34  H2  UNL     1       7.085   9.625  53.639  1.00  0.00     0.213 HD
ENDBRANCH  30  33
ENDBRANCH   4  30
BRANCH   1  35
HETATM   35  N1  UNL     1       8.042   9.319  49.570  1.00  0.00    -0.234 N 
ATOM     36  H12 UNL     1       8.625   8.486  49.481  1.00  0.00     0.174 HD
ATOM     37  H11 UNL     1       8.327  10.206  49.155  1.00  0.00     0.174 HD
ENDBRANCH   1  35
TORSDOF 9
ENDMDL
MODEL 5
REMARK VINA RESULT: -7.243261446      2.970      4.032
REMARK  9 active torsions:
REMARK  status: ('A' for Active; 'I' for Inactive)
REMARK    1  A    between atoms: N1_1  and  C1_4 
REMARK    2  A    between atoms: C2_7  and  C3_8 
REMARK    3  A    between atoms: C3_8  and  O1_9 
REMARK    4  A    between atoms: C3_8  and  O2_11 
REMARK    5  A    between atoms: N4_20  and  N5_21 
REMARK       I    between atoms: N5_21  and  C7_23 
REMARK    6  A    between atoms: C7_23  and  C8_25 
REMARK    7  A    between atoms: C8_25  and  N6_26 
REMARK    8  A    between atoms: C8_25  and  C9_30 
REMARK    9  A    between atoms: C9_30  and  N7_31 
ROOT
HETATM    1  C1  UNL     1       3.889   8.890  52.538  1.00  0.00     0.677 A 
HETATM    2  N2  UNL     1       4.547   8.575  53.631  1.00  0.00    -0.190 N 
ATOM      3  H2  UNL     1       4.017   8.331  54.468  1.00  0.00     0.184 HD
HETATM    4  C2  UNL     1       5.931   8.560  53.693  1.00  0.00     0.100 A 
HETATM    5  C4  UNL     1       6.574   8.902  52.523  1.00  0.00     0.107 A 
HETATM    6  C5  UNL     1       7.940   8.922  52.513  1.00  0.00     0.265 A 
HETATM    7  O3  UNL     1       8.608   8.640  53.504  1.00  0.00    -0.267 OA
HETATM    8  N3  UNL     1       8.605   9.254  51.403  1.00  0.00    -0.273 N 
ATOM      9  H3  UNL     1       9.625   9.265  51.403  1.00  0.00     0.173 HD
HETATM   10  C6  UNL     1       7.923   9.578  50.276  1.00  0.00     0.350 A 
HETATM   11  O4  UNL     1       8.624   9.881  49.266  1.00  0.00    -0.244 OA
HETATM   12  N4  UNL     1       6.582   9.579  50.222  1.00  0.00    -0.184 N 
HETATM   13  C10 UNL     1       5.870   9.234  51.372  1.00  0.00     0.165 A 
HETATM   14  N8  UNL     1       4.541   9.220  51.408  1.00  0.00    -0.174 N 
ATOM     15  H8  UNL     1       4.010   9.461  50.571  1.00  0.00     0.186 HD
ENDROOT
BRANCH  12  16
HETATM   16  N5  UNL     1       5.832   9.905  49.113  1.00  0.00    -0.256 N 
HETATM   17  C7  UNL     1       5.282  11.102  48.677  1.00  0.00     0.269 C 
HETATM   18  O5  UNL     1       5.356  12.193  49.234  1.00  0.00    -0.269 OA
ATOM     19  H5  UNL     1       5.646   9.116  48.494  1.00  0.00     0.191 HD
BRANCH  17  20
HETATM   20  C8  UNL     1       4.485  11.137  47.369  1.00  0.00     0.301 C 
BRANCH  20  21
HETATM   21  N6  UNL     1       3.768   9.910  47.236  1.00  0.00    -0.065 N 
ATOM     22  H63 UNL     1       4.212   9.143  47.741  1.00  0.00     0.275 HD
ATOM     23  H62 UNL     1       2.882   9.920  47.742  1.00  0.00     0.275 HD
ATOM     24  H61 UNL     1       3.649   9.706  46.244  1.00  0.00     0.275 HD
ENDBRANCH  20  21
BRANCH  20  25
HETATM   25  C9  UNL     1       3.560  12.320  47.369  1.00  0.00     0.272 C 
BRANCH  25  26
HETATM   26  N7  UNL     1       4.207  13.538  46.952  1.00  0.00    -0.077 N 
ATOM     27  H73 UNL     1       4.099  13.684  45.949  1.00  0.00     0.274 HD
ATOM     28  H72 UNL     1       3.702  14.355  47.295  1.00  0.00     0.274 HD
ATOM     29  H71 UNL     1       5.190  13.579  47.222  1.00  0.00     0.274 HD
ENDBRANCH  25  26
ENDBRANCH  20  25
ENDBRANCH  17  20
ENDBRANCH  12  16
BRANCH   4  30
HETATM   30  C3  UNL     1       6.534   8.163  54.949  1.00  0.00     0.306 C 
BRANCH  30  31
HETATM   31  O1  UNL     1       5.565   7.808  55.925  1.00  0.00    -0.366 OA
ATOM     32  H1  UNL     1       4.727   8.225  55.769  1.00  0.00     0.213 HD
ENDBRANCH  30  31
BRANCH  30  33
HETATM   33  O2  UNL     1       6.969   6.796  54.628  1.00  0.00    -0.366 OA
ATOM     34  H2  UNL     1       7.596   6.640  55.324  1.00  0.00     0.213 HD
ENDBRANCH  30  33
ENDBRANCH   4  30
BRANCH   1  35
HETATM   35  N1  UNL     1       2.580   8.876  52.575  1.00  0.00    -0.234 N 
ATOM     36  H12 UNL     1       2.032   9.183  51.771  1.00  0.00     0.174 HD
ATOM     37  H11 UNL     1       2.124   8.549  53.428  1.00  0.00     0.174 HD
ENDBRANCH   1  35
TORSDOF 9
ENDMDL
