MODEL 1
REMARK VINA RESULT: -8.295134042      0.000      0.000
REMARK  5 active torsions:
REMARK  status: ('A' for Active; 'I' for Inactive)
REMARK    1  A    between atoms: C2_2  and  C3_3 
REMARK    2  A    between atoms: C2_2  and  C9_9 
REMARK    3  A    between atoms: C14_14  and  N1_15 
REMARK    4  A    between atoms: N1_15  and  C15_17 
REMARK    5  A    between atoms: C15_17  and  C16_18 
ROOT
HETATM    1  C9  UNL     1       9.864  -1.780  56.393  1.00  0.00    -0.024 A 
HETATM    2  C10 UNL     1       9.662  -0.903  55.328  1.00  0.00     0.010 A 
HETATM    3  C11 UNL     1      10.263  -1.026  54.100  1.00  0.00     0.001 A 
HETATM    4  C12 UNL     1      11.121  -2.068  53.880  1.00  0.00     0.002 A 
HETATM    5  C13 UNL     1      11.353  -2.953  54.889  1.00  0.00     0.029 A 
HETATM    6  C14 UNL     1      10.727  -2.807  56.140  1.00  0.00     0.035 A 
ENDROOT
BRANCH   6   7
HETATM    7  N1  UNL     1      11.000  -3.745  57.173  1.00  0.00    -0.385 N 
ATOM      8  H1  UNL     1      10.247  -4.247  57.645  1.00  0.00     0.160 HD
BRANCH   7   9
HETATM    9  C15 UNL     1      12.366  -3.959  57.527  1.00  0.00     0.158 C 
BRANCH   9  10
HETATM   10  C16 UNL     1      13.053  -2.880  58.225  1.00  0.00    -0.041 A 
HETATM   11  C17 UNL     1      14.251  -2.300  57.888  1.00  0.00     0.009 A 
HETATM   12  C18 UNL     1      14.828  -1.278  58.609  1.00  0.00     0.001 A 
HETATM   13  C19 UNL     1      14.200  -0.780  59.744  1.00  0.00     0.000 A 
HETATM   14  C20 UNL     1      13.000  -1.347  60.101  1.00  0.00     0.001 A 
HETATM   15  C21 UNL     1      12.434  -2.368  59.371  1.00  0.00     0.009 A 
ENDBRANCH   9  10
ENDBRANCH   7   9
ENDBRANCH   6   7
BRANCH   1  16
HETATM   16  C2  UNL     1       9.150  -1.538  57.658  1.00  0.00     0.050 C 
HETATM   17  C1  UNL     1       9.665  -0.416  58.474  1.00  0.00     0.020 C 
BRANCH  16  18
HETATM   18  C3  UNL     1       7.675  -1.498  57.528  1.00  0.00    -0.050 A 
HETATM   19  C4  UNL     1       6.952  -2.599  57.159  1.00  0.00     0.008 A 
HETATM   20  C5  UNL     1       5.562  -2.543  57.048  1.00  0.00     0.001 A 
HETATM   21  C6  UNL     1       4.870  -1.382  57.306  1.00  0.00     0.000 A 
HETATM   22  C7  UNL     1       5.597  -0.270  57.678  1.00  0.00     0.001 A 
HETATM   23  C8  UNL     1       6.968  -0.331  57.786  1.00  0.00     0.008 A 
ENDBRANCH  16  18
ENDBRANCH   1  16
TORSDOF 5
ENDMDL
MODEL 2
REMARK VINA RESULT: -8.077590384      0.940      6.410
REMARK  5 active torsions:
REMARK  status: ('A' for Active; 'I' for Inactive)
REMARK    1  A    between atoms: C2_2  and  C3_3 
REMARK    2  A    between atoms: C2_2  and  C9_9 
REMARK    3  A    between atoms: C14_14  and  N1_15 
REMARK    4  A    between atoms: N1_15  and  C15_17 
REMARK    5  A    between atoms: C15_17  and  C16_18 
ROOT
HETATM    1  C9  UNL     1      11.078  -2.411  56.386  1.00  0.00    -0.024 A 
HETATM    2  C10 UNL     1      11.653  -2.567  55.125  1.00  0.00     0.010 A 
HETATM    3  C11 UNL     1      11.203  -1.946  53.986  1.00  0.00     0.001 A 
HETATM    4  C12 UNL     1      10.120  -1.114  54.066  1.00  0.00     0.002 A 
HETATM    5  C13 UNL     1       9.522  -0.927  55.275  1.00  0.00     0.029 A 
HETATM    6  C14 UNL     1       9.999  -1.575  56.429  1.00  0.00     0.035 A 
ENDROOT
BRANCH   6   7
HETATM    7  N1  UNL     1       9.344  -1.363  57.673  1.00  0.00    -0.385 N 
ATOM      8  H1  UNL     1       9.654  -1.836  58.522  1.00  0.00     0.160 HD
BRANCH   7   9
HETATM    9  C15 UNL     1       8.235  -0.464  57.690  1.00  0.00     0.158 C 
BRANCH   9  10
HETATM   10  C16 UNL     1       6.900  -1.047  57.659  1.00  0.00    -0.041 A 
HETATM   11  C17 UNL     1       6.532  -2.258  57.126  1.00  0.00     0.009 A 
HETATM   12  C18 UNL     1       5.239  -2.732  57.144  1.00  0.00     0.001 A 
HETATM   13  C19 UNL     1       4.224  -1.978  57.720  1.00  0.00     0.000 A 
HETATM   14  C20 UNL     1       4.570  -0.762  58.259  1.00  0.00     0.001 A 
HETATM   15  C21 UNL     1       5.866  -0.300  58.235  1.00  0.00     0.009 A 
ENDBRANCH   9  10
ENDBRANCH   7   9
ENDBRANCH   6   7
BRANCH   1  16
HETATM   16  C2  UNL     1      11.665  -3.130  57.529  1.00  0.00     0.050 C 
HETATM   17  C1  UNL     1      12.072  -4.527  57.260  1.00  0.00     0.020 C 
BRANCH  16  18
HETATM   18  C3  UNL     1      12.715  -2.375  58.251  1.00  0.00    -0.050 A 
HETATM   19  C4  UNL     1      12.454  -1.710  59.417  1.00  0.00     0.008 A 
HETATM   20  C5  UNL     1      13.459  -1.009  60.086  1.00  0.00     0.001 A 
HETATM   21  C6  UNL     1      14.745  -0.962  59.599  1.00  0.00     0.000 A 
HETATM   22  C7  UNL     1      15.010  -1.633  58.422  1.00  0.00     0.001 A 
HETATM   23  C8  UNL     1      14.015  -2.322  57.766  1.00  0.00     0.008 A 
ENDBRANCH  16  18
ENDBRANCH   1  16
TORSDOF 5
ENDMDL
MODEL 3
REMARK VINA RESULT: -8.051372502      1.836      4.698
REMARK  5 active torsions:
REMARK  status: ('A' for Active; 'I' for Inactive)
REMARK    1  A    between atoms: C2_2  and  C3_3 
REMARK    2  A    between atoms: C2_2  and  C9_9 
REMARK    3  A    between atoms: C14_14  and  N1_15 
REMARK    4  A    between atoms: N1_15  and  C15_17 
REMARK    5  A    between atoms: C15_17  and  C16_18 
ROOT
HETATM    1  C9  UNL     1       9.449  -1.351  55.631  1.00  0.00    -0.024 A 
HETATM    2  C10 UNL     1       9.336  -0.619  54.450  1.00  0.00     0.010 A 
HETATM    3  C11 UNL     1       8.585   0.523  54.314  1.00  0.00     0.001 A 
HETATM    4  C12 UNL     1       7.891   0.995  55.395  1.00  0.00     0.002 A 
HETATM    5  C13 UNL     1       7.967   0.316  56.573  1.00  0.00     0.029 A 
HETATM    6  C14 UNL     1       8.742  -0.853  56.689  1.00  0.00     0.035 A 
ENDROOT
BRANCH   6   7
HETATM    7  N1  UNL     1       8.792  -1.541  57.932  1.00  0.00    -0.385 N 
ATOM      8  H1  UNL     1       8.672  -2.552  57.982  1.00  0.00     0.160 HD
BRANCH   7   9
HETATM    9  C15 UNL     1       9.015  -0.762  59.108  1.00  0.00     0.158 C 
BRANCH   9  10
HETATM   10  C16 UNL     1      10.392  -0.607  59.557  1.00  0.00    -0.041 A 
HETATM   11  C17 UNL     1      11.289   0.360  59.174  1.00  0.00     0.009 A 
HETATM   12  C18 UNL     1      12.578   0.431  59.655  1.00  0.00     0.001 A 
HETATM   13  C19 UNL     1      13.035  -0.504  60.575  1.00  0.00     0.000 A 
HETATM   14  C20 UNL     1      12.154  -1.481  60.972  1.00  0.00     0.001 A 
HETATM   15  C21 UNL     1      10.868  -1.541  60.484  1.00  0.00     0.009 A 
ENDBRANCH   9  10
ENDBRANCH   7   9
ENDBRANCH   6   7
BRANCH   1  16
HETATM   16  C2  UNL     1      10.295  -2.555  55.643  1.00  0.00     0.050 C 
HETATM   17  C1  UNL     1      10.375  -3.289  54.360  1.00  0.00     0.020 C 
BRANCH  16  18
HETATM   18  C3  UNL     1      11.631  -2.356  56.252  1.00  0.00    -0.050 A 
HETATM   19  C4  UNL     1      12.497  -1.400  55.798  1.00  0.00     0.008 A 
HETATM   20  C5  UNL     1      13.750  -1.224  56.388  1.00  0.00     0.001 A 
HETATM   21  C6  UNL     1      14.157  -2.002  57.446  1.00  0.00     0.000 A 
HETATM   22  C7  UNL     1      13.284  -2.968  57.907  1.00  0.00     0.001 A 
HETATM   23  C8  UNL     1      12.051  -3.137  57.320  1.00  0.00     0.008 A 
ENDBRANCH  16  18
ENDBRANCH   1  16
TORSDOF 5
ENDMDL
MODEL 4
REMARK VINA RESULT: -7.924754603      2.085      4.975
REMARK  5 active torsions:
REMARK  status: ('A' for Active; 'I' for Inactive)
REMARK    1  A    between atoms: C2_2  and  C3_3 
REMARK    2  A    between atoms: C2_2  and  C9_9 
REMARK    3  A    between atoms: C14_14  and  N1_15 
REMARK    4  A    between atoms: N1_15  and  C15_17 
REMARK    5  A    between atoms: C15_17  and  C16_18 
ROOT
HETATM    1  C9  UNL     1      10.771  -2.315  55.931  1.00  0.00    -0.024 A 
HETATM    2  C10 UNL     1      11.129  -2.036  54.613  1.00  0.00     0.010 A 
HETATM    3  C11 UNL     1      10.470  -1.142  53.804  1.00  0.00     0.001 A 
HETATM    4  C12 UNL     1       9.387  -0.469  54.301  1.00  0.00     0.002 A 
HETATM    5  C13 UNL     1       8.997  -0.707  55.583  1.00  0.00     0.029 A 
HETATM    6  C14 UNL     1       9.686  -1.627  56.394  1.00  0.00     0.035 A 
ENDROOT
BRANCH   6   7
HETATM    7  N1  UNL     1       9.245  -1.857  57.726  1.00  0.00    -0.385 N 
ATOM      8  H1  UNL     1       8.868  -2.761  58.010  1.00  0.00     0.160 HD
BRANCH   7   9
HETATM    9  C15 UNL     1       9.349  -0.774  58.651  1.00  0.00     0.158 C 
BRANCH   9  10
HETATM   10  C16 UNL     1      10.539  -0.721  59.489  1.00  0.00    -0.041 A 
HETATM   11  C17 UNL     1      10.840  -1.527  60.560  1.00  0.00     0.009 A 
HETATM   12  C18 UNL     1      11.997  -1.406  61.297  1.00  0.00     0.001 A 
HETATM   13  C19 UNL     1      12.934  -0.432  60.976  1.00  0.00     0.000 A 
HETATM   14  C20 UNL     1      12.653   0.386  59.908  1.00  0.00     0.001 A 
HETATM   15  C21 UNL     1      11.493   0.255  59.179  1.00  0.00     0.009 A 
ENDBRANCH   9  10
ENDBRANCH   7   9
ENDBRANCH   6   7
BRANCH   1  16
HETATM   16  C2  UNL     1      11.569  -3.291  56.692  1.00  0.00     0.050 C 
HETATM   17  C1  UNL     1      11.790  -4.593  56.022  1.00  0.00     0.020 C 
BRANCH  16  18
HETATM   18  C3  UNL     1      12.821  -2.743  57.264  1.00  0.00    -0.050 A 
HETATM   19  C4  UNL     1      13.347  -3.215  58.435  1.00  0.00     0.008 A 
HETATM   20  C5  UNL     1      14.531  -2.689  58.956  1.00  0.00     0.001 A 
HETATM   21  C6  UNL     1      15.211  -1.682  58.311  1.00  0.00     0.000 A 
HETATM   22  C7  UNL     1      14.682  -1.205  57.128  1.00  0.00     0.001 A 
HETATM   23  C8  UNL     1      13.513  -1.726  56.620  1.00  0.00     0.008 A 
ENDBRANCH  16  18
ENDBRANCH   1  16
TORSDOF 5
ENDMDL
MODEL 5
REMARK VINA RESULT: -7.648442132      1.370      6.019
REMARK  5 active torsions:
REMARK  status: ('A' for Active; 'I' for Inactive)
REMARK    1  A    between atoms: C2_2  and  C3_3 
REMARK    2  A    between atoms: C2_2  and  C9_9 
REMARK    3  A    between atoms: C14_14  and  N1_15 
REMARK    4  A    between atoms: N1_15  and  C15_17 
REMARK    5  A    between atoms: C15_17  and  C16_18 
ROOT
HETATM    1  C9  UNL     1      12.863  -1.034  58.349  1.00  0.00    -0.024 A 
HETATM    2  C10 UNL     1      13.837  -1.191  59.334  1.00  0.00     0.010 A 
HETATM    3  C11 UNL     1      13.592  -1.121  60.684  1.00  0.00     0.001 A 
HETATM    4  C12 UNL     1      12.317  -0.883  61.117  1.00  0.00     0.002 A 
HETATM    5  C13 UNL     1      11.328  -0.722  60.195  1.00  0.00     0.029 A 
HETATM    6  C14 UNL     1      11.602  -0.797  58.817  1.00  0.00     0.035 A 
ENDROOT
BRANCH   6   7
HETATM    7  N1  UNL     1      10.546  -0.616  57.882  1.00  0.00    -0.385 N 
ATOM      8  H1  UNL     1      10.682  -0.800  56.888  1.00  0.00     0.160 HD
BRANCH   7   9
HETATM    9  C15 UNL     1       9.288  -0.166  58.386  1.00  0.00     0.158 C 
BRANCH   9  10
HETATM   10  C16 UNL     1       8.095  -0.869  57.935  1.00  0.00    -0.041 A 
HETATM   11  C17 UNL     1       8.039  -2.046  57.229  1.00  0.00     0.009 A 
HETATM   12  C18 UNL     1       6.859  -2.644  56.845  1.00  0.00     0.001 A 
HETATM   13  C19 UNL     1       5.641  -2.059  57.166  1.00  0.00     0.000 A 
HETATM   14  C20 UNL     1       5.673  -0.880  57.871  1.00  0.00     0.001 A 
HETATM   15  C21 UNL     1       6.859  -0.293  58.250  1.00  0.00     0.009 A 
ENDBRANCH   9  10
ENDBRANCH   7   9
ENDBRANCH   6   7
BRANCH   1  16
HETATM   16  C2  UNL     1      13.258  -1.141  56.935  1.00  0.00     0.050 C 
HETATM   17  C1  UNL     1      14.658  -1.558  56.696  1.00  0.00     0.020 C 
BRANCH  16  18
HETATM   18  C3  UNL     1      12.304  -1.894  56.089  1.00  0.00    -0.050 A 
HETATM   19  C4  UNL     1      12.075  -3.230  56.272  1.00  0.00     0.008 A 
HETATM   20  C5  UNL     1      11.167  -3.921  55.468  1.00  0.00     0.001 A 
HETATM   21  C6  UNL     1      10.470  -3.286  54.466  1.00  0.00     0.000 A 
HETATM   22  C7  UNL     1      10.699  -1.937  54.281  1.00  0.00     0.001 A 
HETATM   23  C8  UNL     1      11.597  -1.261  55.076  1.00  0.00     0.008 A 
ENDBRANCH  16  18
ENDBRANCH   1  16
TORSDOF 5
ENDMDL
