MODEL 1
REMARK VINA RESULT: -7.989931428      0.000      0.000
REMARK  6 active torsions:
REMARK  status: ('A' for Active; 'I' for Inactive)
REMARK    1  A    between atoms: O1_1  and  C1_3 
REMARK    2  A    between atoms: C3_5  and  C4_6 
REMARK    3  A    between atoms: C4_6  and  C5_7 
REMARK    4  A    between atoms: C5_7  and  C6_8 
REMARK    5  A    between atoms: C6_8  and  C7_9 
REMARK    6  A    between atoms: C7_9  and  C8_10 
ROOT
HETATM    1  C1  UNL     1      12.414  -0.921  61.491  1.00  0.00     0.067 A 
HETATM    2  C2  UNL     1      11.413  -0.497  60.641  1.00  0.00     0.044 A 
HETATM    3  C3  UNL     1      11.564  -0.456  59.284  1.00  0.00    -0.044 A 
HETATM    4  C14 UNL     1      12.749  -0.849  58.726  1.00  0.00    -0.019 A 
HETATM    5  C15 UNL     1      12.979  -0.828  57.365  1.00  0.00     0.013 A 
HETATM    6  C16 UNL     1      14.199  -1.227  56.820  1.00  0.00     0.001 A 
HETATM    7  C17 UNL     1      15.225  -1.658  57.625  1.00  0.00     0.001 A 
HETATM    8  C18 UNL     1      15.000  -1.679  58.984  1.00  0.00     0.012 A 
HETATM    9  C19 UNL     1      13.801  -1.289  59.542  1.00  0.00    -0.023 A 
HETATM   10  C20 UNL     1      13.605  -1.313  60.908  1.00  0.00     0.048 A 
ENDROOT
BRANCH   3  11
HETATM   11  C4  UNL     1      10.448  -0.019  58.440  1.00  0.00     0.039 C 
BRANCH  11  12
HETATM   12  C5  UNL     1       9.203  -0.754  58.833  1.00  0.00     0.005 C 
BRANCH  12  13
HETATM   13  C6  UNL     1       8.251  -0.827  57.656  1.00  0.00     0.005 C 
BRANCH  13  14
HETATM   14  C7  UNL     1       8.313  -2.225  57.049  1.00  0.00     0.038 C 
BRANCH  14  15
HETATM   15  C8  UNL     1       9.477  -2.253  56.134  1.00  0.00    -0.058 A 
HETATM   16  C9  UNL     1      10.394  -3.273  56.243  1.00  0.00     0.007 A 
HETATM   17  C10 UNL     1      11.487  -3.296  55.379  1.00  0.00     0.001 A 
HETATM   18  C11 UNL     1      11.640  -2.290  54.418  1.00  0.00     0.000 A 
HETATM   19  C12 UNL     1      10.721  -1.274  54.316  1.00  0.00     0.001 A 
HETATM   20  C13 UNL     1       9.647  -1.271  55.179  1.00  0.00     0.007 A 
ENDBRANCH  14  15
ENDBRANCH  13  14
ENDBRANCH  12  13
ENDBRANCH  11  12
ENDBRANCH   3  11
BRANCH   1  21
HETATM   21  O1  UNL     1      12.247  -0.956  62.864  1.00  0.00    -0.361 OA
ATOM     22  H1  UNL     1      12.730  -0.381  63.446  1.00  0.00     0.217 HD
ENDBRANCH   1  21
TORSDOF 6
ENDMDL
MODEL 2
REMARK VINA RESULT: -7.759864615      2.208      3.219
REMARK  6 active torsions:
REMARK  status: ('A' for Active; 'I' for Inactive)
REMARK    1  A    between atoms: O1_1  and  C1_3 
REMARK    2  A    between atoms: C3_5  and  C4_6 
REMARK    3  A    between atoms: C4_6  and  C5_7 
REMARK    4  A    between atoms: C5_7  and  C6_8 
REMARK    5  A    between atoms: C6_8  and  C7_9 
REMARK    6  A    between atoms: C7_9  and  C8_10 
ROOT
HETATM    1  C1  UNL     1      12.019  -0.916  60.661  1.00  0.00     0.067 A 
HETATM    2  C2  UNL     1      10.954  -0.936  59.784  1.00  0.00     0.044 A 
HETATM    3  C3  UNL     1      11.111  -1.101  58.437  1.00  0.00    -0.044 A 
HETATM    4  C14 UNL     1      12.367  -1.255  57.918  1.00  0.00    -0.019 A 
HETATM    5  C15 UNL     1      12.604  -1.419  56.568  1.00  0.00     0.013 A 
HETATM    6  C16 UNL     1      13.895  -1.568  56.063  1.00  0.00     0.001 A 
HETATM    7  C17 UNL     1      14.986  -1.556  56.897  1.00  0.00     0.001 A 
HETATM    8  C18 UNL     1      14.754  -1.392  58.244  1.00  0.00     0.012 A 
HETATM    9  C19 UNL     1      13.485  -1.244  58.764  1.00  0.00    -0.023 A 
HETATM   10  C20 UNL     1      13.281  -1.073  60.118  1.00  0.00     0.048 A 
ENDROOT
BRANCH   3  11
HETATM   11  C4  UNL     1       9.932  -1.138  57.566  1.00  0.00     0.039 C 
BRANCH  11  12
HETATM   12  C5  UNL     1       8.725  -0.694  58.336  1.00  0.00     0.005 C 
BRANCH  12  13
HETATM   13  C6  UNL     1       7.470  -0.956  57.527  1.00  0.00     0.005 C 
BRANCH  13  14
HETATM   14  C7  UNL     1       6.562   0.267  57.603  1.00  0.00     0.038 C 
BRANCH  14  15
HETATM   15  C8  UNL     1       6.936   1.158  56.481  1.00  0.00    -0.058 A 
HETATM   16  C9  UNL     1       6.743   2.515  56.606  1.00  0.00     0.007 A 
HETATM   17  C10 UNL     1       7.097   3.350  55.548  1.00  0.00     0.001 A 
HETATM   18  C11 UNL     1       7.642   2.805  54.380  1.00  0.00     0.000 A 
HETATM   19  C12 UNL     1       7.832   1.450  54.262  1.00  0.00     0.001 A 
HETATM   20  C13 UNL     1       7.475   0.642  55.320  1.00  0.00     0.007 A 
ENDBRANCH  14  15
ENDBRANCH  13  14
ENDBRANCH  12  13
ENDBRANCH  11  12
ENDBRANCH   3  11
BRANCH   1  21
HETATM   21  O1  UNL     1      11.846  -0.747  62.024  1.00  0.00    -0.361 OA
ATOM     22  H1  UNL     1      10.995  -0.822  62.438  1.00  0.00     0.217 HD
ENDBRANCH   1  21
TORSDOF 6
ENDMDL
MODEL 3
REMARK VINA RESULT: -7.751088864      2.214      3.128
REMARK  6 active torsions:
REMARK  status: ('A' for Active; 'I' for Inactive)
REMARK    1  A    between atoms: O1_1  and  C1_3 
REMARK    2  A    between atoms: C3_5  and  C4_6 
REMARK    3  A    between atoms: C4_6  and  C5_7 
REMARK    4  A    between atoms: C5_7  and  C6_8 
REMARK    5  A    between atoms: C6_8  and  C7_9 
REMARK    6  A    between atoms: C7_9  and  C8_10 
ROOT
HETATM    1  C1  UNL     1      12.020  -0.926  60.656  1.00  0.00     0.067 A 
HETATM    2  C2  UNL     1      10.955  -0.949  59.779  1.00  0.00     0.044 A 
HETATM    3  C3  UNL     1      11.111  -1.115  58.432  1.00  0.00    -0.044 A 
HETATM    4  C14 UNL     1      12.367  -1.266  57.913  1.00  0.00    -0.019 A 
HETATM    5  C15 UNL     1      12.603  -1.430  56.563  1.00  0.00     0.013 A 
HETATM    6  C16 UNL     1      13.895  -1.577  56.057  1.00  0.00     0.001 A 
HETATM    7  C17 UNL     1      14.986  -1.562  56.890  1.00  0.00     0.001 A 
HETATM    8  C18 UNL     1      14.754  -1.397  58.237  1.00  0.00     0.012 A 
HETATM    9  C19 UNL     1      13.486  -1.252  58.757  1.00  0.00    -0.023 A 
HETATM   10  C20 UNL     1      13.283  -1.081  60.112  1.00  0.00     0.048 A 
ENDROOT
BRANCH   3  11
HETATM   11  C4  UNL     1       9.932  -1.155  57.562  1.00  0.00     0.039 C 
BRANCH  11  12
HETATM   12  C5  UNL     1       8.730  -0.681  58.323  1.00  0.00     0.005 C 
BRANCH  12  13
HETATM   13  C6  UNL     1       7.472  -0.946  57.520  1.00  0.00     0.005 C 
BRANCH  13  14
HETATM   14  C7  UNL     1       6.569   0.282  57.588  1.00  0.00     0.038 C 
BRANCH  14  15
HETATM   15  C8  UNL     1       6.952   1.167  56.464  1.00  0.00    -0.058 A 
HETATM   16  C9  UNL     1       7.480   0.613  55.321  1.00  0.00     0.007 A 
HETATM   17  C10 UNL     1       7.839   1.449  54.265  1.00  0.00     0.001 A 
HETATM   18  C11 UNL     1       7.659   2.832  54.378  1.00  0.00     0.000 A 
HETATM   19  C12 UNL     1       7.132   3.379  55.522  1.00  0.00     0.001 A 
HETATM   20  C13 UNL     1       6.784   2.534  56.554  1.00  0.00     0.007 A 
ENDBRANCH  14  15
ENDBRANCH  13  14
ENDBRANCH  12  13
ENDBRANCH  11  12
ENDBRANCH   3  11
BRANCH   1  21
HETATM   21  O1  UNL     1      11.848  -0.757  62.019  1.00  0.00    -0.361 OA
ATOM     22  H1  UNL     1      11.509  -1.448  62.574  1.00  0.00     0.217 HD
ENDBRANCH   1  21
TORSDOF 6
ENDMDL
MODEL 4
REMARK VINA RESULT: -7.691178953      2.444      4.124
REMARK  6 active torsions:
REMARK  status: ('A' for Active; 'I' for Inactive)
REMARK    1  A    between atoms: O1_1  and  C1_3 
REMARK    2  A    between atoms: C3_5  and  C4_6 
REMARK    3  A    between atoms: C4_6  and  C5_7 
REMARK    4  A    between atoms: C5_7  and  C6_8 
REMARK    5  A    between atoms: C6_8  and  C7_9 
REMARK    6  A    between atoms: C7_9  and  C8_10 
ROOT
HETATM    1  C1  UNL     1      12.126  -0.975  60.732  1.00  0.00     0.067 A 
HETATM    2  C2  UNL     1      11.043  -0.981  59.878  1.00  0.00     0.044 A 
HETATM    3  C3  UNL     1      11.170  -1.125  58.525  1.00  0.00    -0.044 A 
HETATM    4  C14 UNL     1      12.415  -1.270  57.978  1.00  0.00    -0.019 A 
HETATM    5  C15 UNL     1      12.623  -1.412  56.620  1.00  0.00     0.013 A 
HETATM    6  C16 UNL     1      13.903  -1.552  56.085  1.00  0.00     0.001 A 
HETATM    7  C17 UNL     1      15.011  -1.553  56.895  1.00  0.00     0.001 A 
HETATM    8  C18 UNL     1      14.808  -1.411  58.250  1.00  0.00     0.012 A 
HETATM    9  C19 UNL     1      13.551  -1.272  58.799  1.00  0.00    -0.023 A 
HETATM   10  C20 UNL     1      13.376  -1.123  60.160  1.00  0.00     0.048 A 
ENDROOT
BRANCH   3  11
HETATM   11  C4  UNL     1       9.973  -1.148  57.680  1.00  0.00     0.039 C 
BRANCH  11  12
HETATM   12  C5  UNL     1       8.835  -0.494  58.403  1.00  0.00     0.005 C 
BRANCH  12  13
HETATM   13  C6  UNL     1       7.703  -0.209  57.436  1.00  0.00     0.005 C 
BRANCH  13  14
HETATM   14  C7  UNL     1       6.848  -1.463  57.283  1.00  0.00     0.038 C 
BRANCH  14  15
HETATM   15  C8  UNL     1       5.467  -1.099  57.674  1.00  0.00    -0.058 A 
HETATM   16  C9  UNL     1       5.236   0.116  58.276  1.00  0.00     0.007 A 
HETATM   17  C10 UNL     1       3.935   0.455  58.641  1.00  0.00     0.001 A 
HETATM   18  C11 UNL     1       2.885  -0.437  58.394  1.00  0.00     0.000 A 
HETATM   19  C12 UNL     1       3.123  -1.649  57.792  1.00  0.00     0.001 A 
HETATM   20  C13 UNL     1       4.417  -1.964  57.439  1.00  0.00     0.007 A 
ENDBRANCH  14  15
ENDBRANCH  13  14
ENDBRANCH  12  13
ENDBRANCH  11  12
ENDBRANCH   3  11
BRANCH   1  21
HETATM   21  O1  UNL     1      11.983  -0.828  62.101  1.00  0.00    -0.361 OA
ATOM     22  H1  UNL     1      12.395  -0.118  62.578  1.00  0.00     0.217 HD
ENDBRANCH   1  21
TORSDOF 6
ENDMDL
MODEL 5
REMARK VINA RESULT: -7.690902105      2.433      4.040
REMARK  6 active torsions:
REMARK  status: ('A' for Active; 'I' for Inactive)
REMARK    1  A    between atoms: O1_1  and  C1_3 
REMARK    2  A    between atoms: C3_5  and  C4_6 
REMARK    3  A    between atoms: C4_6  and  C5_7 
REMARK    4  A    between atoms: C5_7  and  C6_8 
REMARK    5  A    between atoms: C6_8  and  C7_9 
REMARK    6  A    between atoms: C7_9  and  C8_10 
ROOT
HETATM    1  C1  UNL     1      12.143  -1.011  60.715  1.00  0.00     0.067 A 
HETATM    2  C2  UNL     1      11.058  -1.025  59.863  1.00  0.00     0.044 A 
HETATM    3  C3  UNL     1      11.183  -1.162  58.510  1.00  0.00    -0.044 A 
HETATM    4  C14 UNL     1      12.428  -1.293  57.958  1.00  0.00    -0.019 A 
HETATM    5  C15 UNL     1      12.633  -1.428  56.600  1.00  0.00     0.013 A 
HETATM    6  C16 UNL     1      13.914  -1.554  56.061  1.00  0.00     0.001 A 
HETATM    7  C17 UNL     1      15.024  -1.548  56.868  1.00  0.00     0.001 A 
HETATM    8  C18 UNL     1      14.823  -1.412  58.224  1.00  0.00     0.012 A 
HETATM    9  C19 UNL     1      13.566  -1.287  58.777  1.00  0.00    -0.023 A 
HETATM   10  C20 UNL     1      13.393  -1.145  60.139  1.00  0.00     0.048 A 
ENDROOT
BRANCH   3  11
HETATM   11  C4  UNL     1       9.984  -1.194  57.667  1.00  0.00     0.039 C 
BRANCH  11  12
HETATM   12  C5  UNL     1       8.851  -0.520  58.380  1.00  0.00     0.005 C 
BRANCH  12  13
HETATM   13  C6  UNL     1       7.717  -0.251  57.412  1.00  0.00     0.005 C 
BRANCH  13  14
HETATM   14  C7  UNL     1       6.875  -1.515  57.264  1.00  0.00     0.038 C 
BRANCH  14  15
HETATM   15  C8  UNL     1       5.488  -1.161  57.642  1.00  0.00    -0.058 A 
HETATM   16  C9  UNL     1       4.470  -2.044  57.364  1.00  0.00     0.007 A 
HETATM   17  C10 UNL     1       3.165  -1.709  57.723  1.00  0.00     0.001 A 
HETATM   18  C11 UNL     1       2.907  -0.488  58.357  1.00  0.00     0.000 A 
HETATM   19  C12 UNL     1       3.929   0.389  58.631  1.00  0.00     0.001 A 
HETATM   20  C13 UNL     1       5.211   0.037  58.268  1.00  0.00     0.007 A 
ENDBRANCH  14  15
ENDBRANCH  13  14
ENDBRANCH  12  13
ENDBRANCH  11  12
ENDBRANCH   3  11
BRANCH   1  21
HETATM   21  O1  UNL     1      12.001  -0.870  62.085  1.00  0.00    -0.361 OA
ATOM     22  H1  UNL     1      12.693  -1.109  62.690  1.00  0.00     0.217 HD
ENDBRANCH   1  21
TORSDOF 6
ENDMDL
