MODEL 1
REMARK VINA RESULT: -8.277093709      0.000      0.000
REMARK  5 active torsions:
REMARK  status: ('A' for Active; 'I' for Inactive)
REMARK    1  A    between atoms: C2_2  and  C3_3 
REMARK    2  A    between atoms: C6_6  and  C7_7 
REMARK    3  A    between atoms: C7_7  and  N1_8 
REMARK    4  A    between atoms: N1_8  and  C8_10 
REMARK    5  A    between atoms: C11_13  and  C12_14 
ROOT
HETATM    1  C8  UNL     1       8.152  -1.306  57.551  1.00  0.00     0.028 A 
HETATM    2  C9  UNL     1       8.885  -0.630  58.514  1.00  0.00     0.030 A 
HETATM    3  C10 UNL     1      10.259  -0.699  58.492  1.00  0.00     0.014 A 
HETATM    4  C11 UNL     1      10.947  -1.420  57.544  1.00  0.00    -0.026 A 
HETATM    5  C18 UNL     1      10.187  -2.081  56.600  1.00  0.00     0.014 A 
HETATM    6  C19 UNL     1       8.812  -2.034  56.591  1.00  0.00     0.030 A 
ENDROOT
BRANCH   1   7
HETATM    7  N1  UNL     1       6.738  -1.268  57.529  1.00  0.00    -0.386 N 
ATOM      8  H1  UNL     1       6.228  -2.139  57.377  1.00  0.00     0.160 HD
BRANCH   7   9
HETATM    9  C7  UNL     1       5.983  -0.043  57.714  1.00  0.00     0.158 C 
BRANCH   9  10
HETATM   10  C6  UNL     1       6.234   0.909  56.589  1.00  0.00    -0.041 A 
HETATM   11  C5  UNL     1       5.787   0.644  55.312  1.00  0.00     0.009 A 
HETATM   12  C4  UNL     1       6.033   1.534  54.307  1.00  0.00     0.007 A 
HETATM   13  C3  UNL     1       6.729   2.714  54.544  1.00  0.00    -0.059 A 
HETATM   14  C21 UNL     1       7.186   3.005  55.811  1.00  0.00     0.007 A 
HETATM   15  C20 UNL     1       6.932   2.097  56.818  1.00  0.00     0.009 A 
BRANCH  13  16
HETATM   16  C2  UNL     1       7.012   3.700  53.476  1.00  0.00     0.034 C 
HETATM   17  C1  UNL     1       6.302   5.007  53.700  1.00  0.00     0.010 C 
ENDBRANCH  13  16
ENDBRANCH   9  10
ENDBRANCH   7   9
ENDBRANCH   1   7
BRANCH   4  18
HETATM   18  C12 UNL     1      12.407  -1.472  57.552  1.00  0.00    -0.026 A 
HETATM   19  C13 UNL     1      13.100  -1.550  58.742  1.00  0.00     0.012 A 
HETATM   20  C14 UNL     1      14.486  -1.601  58.789  1.00  0.00     0.001 A 
HETATM   21  C15 UNL     1      15.154  -1.572  57.577  1.00  0.00     0.000 A 
HETATM   22  C16 UNL     1      14.491  -1.495  56.382  1.00  0.00     0.001 A 
HETATM   23  C17 UNL     1      13.115  -1.445  56.369  1.00  0.00     0.012 A 
ENDBRANCH   4  18
TORSDOF 5
ENDMDL
MODEL 2
REMARK VINA RESULT: -8.197866353      1.287      2.228
REMARK  5 active torsions:
REMARK  status: ('A' for Active; 'I' for Inactive)
REMARK    1  A    between atoms: C2_2  and  C3_3 
REMARK    2  A    between atoms: C6_6  and  C7_7 
REMARK    3  A    between atoms: C7_7  and  N1_8 
REMARK    4  A    between atoms: N1_8  and  C8_10 
REMARK    5  A    between atoms: C11_13  and  C12_14 
ROOT
HETATM    1  C8  UNL     1       8.168  -1.157  57.451  1.00  0.00     0.028 A 
HETATM    2  C9  UNL     1       8.896  -1.861  56.504  1.00  0.00     0.030 A 
HETATM    3  C10 UNL     1      10.266  -1.925  56.613  1.00  0.00     0.014 A 
HETATM    4  C11 UNL     1      10.955  -1.312  57.634  1.00  0.00    -0.026 A 
HETATM    5  C18 UNL     1      10.200  -0.620  58.559  1.00  0.00     0.014 A 
HETATM    6  C19 UNL     1       8.828  -0.535  58.482  1.00  0.00     0.030 A 
ENDROOT
BRANCH   1   7
HETATM    7  N1  UNL     1       6.758  -1.060  57.384  1.00  0.00    -0.386 N 
ATOM      8  H1  UNL     1       6.271  -1.530  56.621  1.00  0.00     0.160 HD
BRANCH   7   9
HETATM    9  C7  UNL     1       5.976  -0.319  58.356  1.00  0.00     0.158 C 
BRANCH   9  10
HETATM   10  C6  UNL     1       5.616   1.032  57.828  1.00  0.00    -0.041 A 
HETATM   11  C5  UNL     1       4.858   1.913  58.570  1.00  0.00     0.009 A 
HETATM   12  C4  UNL     1       4.546   3.139  58.059  1.00  0.00     0.007 A 
HETATM   13  C3  UNL     1       4.980   3.525  56.795  1.00  0.00    -0.059 A 
HETATM   14  C21 UNL     1       5.739   2.665  56.033  1.00  0.00     0.007 A 
HETATM   15  C20 UNL     1       6.047   1.428  56.560  1.00  0.00     0.009 A 
BRANCH  13  16
HETATM   16  C2  UNL     1       4.659   4.847  56.213  1.00  0.00     0.034 C 
HETATM   17  C1  UNL     1       5.586   5.219  55.088  1.00  0.00     0.010 C 
ENDBRANCH  13  16
ENDBRANCH   9  10
ENDBRANCH   7   9
ENDBRANCH   1   7
BRANCH   4  18
HETATM   18  C12 UNL     1      12.411  -1.400  57.718  1.00  0.00    -0.026 A 
HETATM   19  C13 UNL     1      13.176  -1.473  56.573  1.00  0.00     0.012 A 
HETATM   20  C14 UNL     1      14.561  -1.558  56.613  1.00  0.00     0.001 A 
HETATM   21  C15 UNL     1      15.151  -1.564  57.865  1.00  0.00     0.000 A 
HETATM   22  C16 UNL     1      14.415  -1.491  59.017  1.00  0.00     0.001 A 
HETATM   23  C17 UNL     1      13.042  -1.409  58.943  1.00  0.00     0.012 A 
ENDBRANCH   4  18
TORSDOF 5
ENDMDL
MODEL 3
REMARK VINA RESULT: -8.186730798      1.253      1.683
REMARK  5 active torsions:
REMARK  status: ('A' for Active; 'I' for Inactive)
REMARK    1  A    between atoms: C2_2  and  C3_3 
REMARK    2  A    between atoms: C6_6  and  C7_7 
REMARK    3  A    between atoms: C7_7  and  N1_8 
REMARK    4  A    between atoms: N1_8  and  C8_10 
REMARK    5  A    between atoms: C11_13  and  C12_14 
ROOT
HETATM    1  C8  UNL     1       8.158  -1.180  57.502  1.00  0.00     0.028 A 
HETATM    2  C9  UNL     1       8.843  -0.548  58.527  1.00  0.00     0.030 A 
HETATM    3  C10 UNL     1      10.216  -0.637  58.580  1.00  0.00     0.014 A 
HETATM    4  C11 UNL     1      10.947  -1.336  57.648  1.00  0.00    -0.026 A 
HETATM    5  C18 UNL     1      10.233  -1.954  56.642  1.00  0.00     0.014 A 
HETATM    6  C19 UNL     1       8.861  -1.886  56.557  1.00  0.00     0.030 A 
ENDROOT
BRANCH   1   7
HETATM    7  N1  UNL     1       6.748  -1.121  57.402  1.00  0.00    -0.386 N 
ATOM      8  H1  UNL     1       6.291  -1.622  56.641  1.00  0.00     0.160 HD
BRANCH   7   9
HETATM    9  C7  UNL     1       5.926  -0.377  58.338  1.00  0.00     0.158 C 
BRANCH   9  10
HETATM   10  C6  UNL     1       5.603   0.979  57.798  1.00  0.00    -0.041 A 
HETATM   11  C5  UNL     1       4.941   1.916  58.563  1.00  0.00     0.009 A 
HETATM   12  C4  UNL     1       4.661   3.146  58.040  1.00  0.00     0.007 A 
HETATM   13  C3  UNL     1       5.034   3.479  56.742  1.00  0.00    -0.059 A 
HETATM   14  C21 UNL     1       5.697   2.562  55.956  1.00  0.00     0.007 A 
HETATM   15  C20 UNL     1       5.974   1.323  56.495  1.00  0.00     0.009 A 
BRANCH  13  16
HETATM   16  C2  UNL     1       4.745   4.803  56.146  1.00  0.00     0.034 C 
HETATM   17  C1  UNL     1       5.699   5.153  55.037  1.00  0.00     0.010 C 
ENDBRANCH  13  16
ENDBRANCH   9  10
ENDBRANCH   7   9
ENDBRANCH   1   7
BRANCH   4  18
HETATM   18  C12 UNL     1      12.404  -1.410  57.737  1.00  0.00    -0.026 A 
HETATM   19  C13 UNL     1      13.033  -1.410  58.964  1.00  0.00     0.012 A 
HETATM   20  C14 UNL     1      14.414  -1.479  59.087  1.00  0.00     0.001 A 
HETATM   21  C15 UNL     1      15.143  -1.551  57.913  1.00  0.00     0.000 A 
HETATM   22  C16 UNL     1      14.544  -1.554  56.682  1.00  0.00     0.001 A 
HETATM   23  C17 UNL     1      13.171  -1.483  56.594  1.00  0.00     0.012 A 
ENDBRANCH   4  18
TORSDOF 5
ENDMDL
MODEL 4
REMARK VINA RESULT: -8.096788308      2.223      3.892
REMARK  5 active torsions:
REMARK  status: ('A' for Active; 'I' for Inactive)
REMARK    1  A    between atoms: C2_2  and  C3_3 
REMARK    2  A    between atoms: C6_6  and  C7_7 
REMARK    3  A    between atoms: C7_7  and  N1_8 
REMARK    4  A    between atoms: N1_8  and  C8_10 
REMARK    5  A    between atoms: C11_13  and  C12_14 
ROOT
HETATM    1  C8  UNL     1       8.132  -1.317  57.546  1.00  0.00     0.028 A 
HETATM    2  C9  UNL     1       8.836  -2.104  56.649  1.00  0.00     0.030 A 
HETATM    3  C10 UNL     1      10.211  -2.133  56.708  1.00  0.00     0.014 A 
HETATM    4  C11 UNL     1      10.926  -1.404  57.629  1.00  0.00    -0.026 A 
HETATM    5  C18 UNL     1      10.194  -0.631  58.507  1.00  0.00     0.014 A 
HETATM    6  C19 UNL     1       8.819  -0.578  58.478  1.00  0.00     0.030 A 
ENDROOT
BRANCH   1   7
HETATM    7  N1  UNL     1       6.719  -1.251  57.528  1.00  0.00    -0.386 N 
ATOM      8  H1  UNL     1       6.189  -1.986  57.998  1.00  0.00     0.160 HD
BRANCH   7   9
HETATM    9  C7  UNL     1       5.991  -0.183  56.870  1.00  0.00     0.158 C 
BRANCH   9  10
HETATM   10  C6  UNL     1       4.953   0.391  57.780  1.00  0.00    -0.041 A 
HETATM   11  C5  UNL     1       5.017   1.701  58.205  1.00  0.00     0.009 A 
HETATM   12  C4  UNL     1       4.053   2.194  59.036  1.00  0.00     0.007 A 
HETATM   13  C3  UNL     1       2.998   1.398  59.469  1.00  0.00    -0.059 A 
HETATM   14  C21 UNL     1       2.909   0.086  59.060  1.00  0.00     0.007 A 
HETATM   15  C20 UNL     1       3.889  -0.401  58.220  1.00  0.00     0.009 A 
BRANCH  13  16
HETATM   16  C2  UNL     1       1.938   1.903  60.370  1.00  0.00     0.034 C 
HETATM   17  C1  UNL     1       1.325   0.810  61.203  1.00  0.00     0.010 C 
ENDBRANCH  13  16
ENDBRANCH   9  10
ENDBRANCH   7   9
ENDBRANCH   1   7
BRANCH   4  18
HETATM   18  C12 UNL     1      12.386  -1.458  57.661  1.00  0.00    -0.026 A 
HETATM   19  C13 UNL     1      13.060  -1.512  58.863  1.00  0.00     0.012 A 
HETATM   20  C14 UNL     1      14.445  -1.565  58.933  1.00  0.00     0.001 A 
HETATM   21  C15 UNL     1      15.132  -1.561  57.731  1.00  0.00     0.000 A 
HETATM   22  C16 UNL     1      14.488  -1.509  56.524  1.00  0.00     0.001 A 
HETATM   23  C17 UNL     1      13.112  -1.457  56.489  1.00  0.00     0.012 A 
ENDBRANCH   4  18
TORSDOF 5
ENDMDL
MODEL 5
REMARK VINA RESULT: -8.095156966      2.231      4.027
REMARK  5 active torsions:
REMARK  status: ('A' for Active; 'I' for Inactive)
REMARK    1  A    between atoms: C2_2  and  C3_3 
REMARK    2  A    between atoms: C6_6  and  C7_7 
REMARK    3  A    between atoms: C7_7  and  N1_8 
REMARK    4  A    between atoms: N1_8  and  C8_10 
REMARK    5  A    between atoms: C11_13  and  C12_14 
ROOT
HETATM    1  C8  UNL     1       8.142  -1.287  57.575  1.00  0.00     0.028 A 
HETATM    2  C9  UNL     1       8.853  -2.055  56.667  1.00  0.00     0.030 A 
HETATM    3  C10 UNL     1      10.227  -2.088  56.737  1.00  0.00     0.014 A 
HETATM    4  C11 UNL     1      10.935  -1.381  57.680  1.00  0.00    -0.026 A 
HETATM    5  C18 UNL     1      10.197  -0.627  58.568  1.00  0.00     0.014 A 
HETATM    6  C19 UNL     1       8.822  -0.570  58.529  1.00  0.00     0.030 A 
ENDROOT
BRANCH   1   7
HETATM    7  N1  UNL     1       6.729  -1.218  57.546  1.00  0.00    -0.386 N 
ATOM      8  H1  UNL     1       6.195  -1.955  58.007  1.00  0.00     0.160 HD
BRANCH   7   9
HETATM    9  C7  UNL     1       6.009  -0.143  56.889  1.00  0.00     0.158 C 
BRANCH   9  10
HETATM   10  C6  UNL     1       4.958   0.419  57.791  1.00  0.00    -0.041 A 
HETATM   11  C5  UNL     1       5.007   1.729  58.220  1.00  0.00     0.009 A 
HETATM   12  C4  UNL     1       4.032   2.212  59.044  1.00  0.00     0.007 A 
HETATM   13  C3  UNL     1       2.979   1.406  59.464  1.00  0.00    -0.059 A 
HETATM   14  C21 UNL     1       2.905   0.094  59.050  1.00  0.00     0.007 A 
HETATM   15  C20 UNL     1       3.897  -0.383  58.219  1.00  0.00     0.009 A 
BRANCH  13  16
HETATM   16  C2  UNL     1       1.906   1.900  60.356  1.00  0.00     0.034 C 
HETATM   17  C1  UNL     1       1.339   0.812  61.227  1.00  0.00     0.010 C 
ENDBRANCH  13  16
ENDBRANCH   9  10
ENDBRANCH   7   9
ENDBRANCH   1   7
BRANCH   4  18
HETATM   18  C12 UNL     1      12.395  -1.439  57.724  1.00  0.00    -0.026 A 
HETATM   19  C13 UNL     1      13.131  -1.466  56.558  1.00  0.00     0.012 A 
HETATM   20  C14 UNL     1      14.518  -1.520  56.561  1.00  0.00     0.001 A 
HETATM   21  C15 UNL     1      15.140  -1.545  57.796  1.00  0.00     0.000 A 
HETATM   22  C16 UNL     1      14.434  -1.519  58.969  1.00  0.00     0.001 A 
HETATM   23  C17 UNL     1      13.058  -1.465  58.932  1.00  0.00     0.012 A 
ENDBRANCH   4  18
TORSDOF 5
ENDMDL
