MODEL 1
REMARK VINA RESULT: -8.206005656      0.000      0.000
REMARK  5 active torsions:
REMARK  status: ('A' for Active; 'I' for Inactive)
REMARK    1  A    between atoms: C2_2  and  C3_3 
REMARK    2  A    between atoms: C3_3  and  C4_4 
REMARK    3  A    between atoms: C4_4  and  C5_5 
REMARK    4  A    between atoms: C5_5  and  C6_6 
REMARK    5  A    between atoms: C8_8  and  C9_9 
ROOT
HETATM    1  C6  UNL     1      10.641  -1.338  56.506  1.00  0.00    -0.030 A 
HETATM    2  C7  UNL     1       9.256  -1.388  56.348  1.00  0.00     0.021 A 
HETATM    3  C8  UNL     1       8.432  -1.117  57.407  1.00  0.00    -0.023 A 
HETATM    4  C15 UNL     1       8.965  -0.797  58.626  1.00  0.00     0.026 A 
HETATM    5  C16 UNL     1      10.338  -0.739  58.815  1.00  0.00    -0.008 A 
HETATM    6  C17 UNL     1      10.857  -0.414  60.055  1.00  0.00     0.015 A 
HETATM    7  C18 UNL     1      12.227  -0.371  60.194  1.00  0.00     0.018 A 
HETATM    8  C19 UNL     1      12.993  -0.654  59.088  1.00  0.00     0.088 A 
HETATM    9  N2  UNL     1      12.495  -0.970  57.883  1.00  0.00    -0.365 N 
ATOM     10  H2  UNL     1      13.113  -1.171  57.098  1.00  0.00     0.165 HD
HETATM   11  C20 UNL     1      11.141  -1.015  57.738  1.00  0.00     0.048 A 
ENDROOT
BRANCH   3  12
HETATM   12  C9  UNL     1       6.987  -1.179  57.247  1.00  0.00    -0.002 A 
HETATM   13  C10 UNL     1       6.323  -2.413  57.327  1.00  0.00     0.014 A 
HETATM   14  C11 UNL     1       4.957  -2.421  57.181  1.00  0.00     0.001 A 
HETATM   15  C12 UNL     1       4.243  -1.260  56.961  1.00  0.00     0.002 A 
HETATM   16  C13 UNL     1       4.907  -0.061  56.885  1.00  0.00     0.027 A 
HETATM   17  C14 UNL     1       6.283  -0.007  57.026  1.00  0.00     0.057 A 
HETATM   18  N1  UNL     1       6.976   1.242  56.935  1.00  0.00    -0.102 NA
ENDBRANCH   3  12
BRANCH   1  19
HETATM   19  C5  UNL     1      11.541  -1.625  55.377  1.00  0.00     0.041 C 
BRANCH  19  20
HETATM   20  C4  UNL     1      11.472  -3.073  55.003  1.00  0.00     0.005 C 
BRANCH  20  21
HETATM   21  C3  UNL     1      12.582  -3.866  55.689  1.00  0.00    -0.000 C 
BRANCH  21  22
HETATM   22  C2  UNL     1      11.981  -4.534  56.886  1.00  0.00    -0.005 C 
HETATM   23  C1  UNL     1      12.742  -4.294  58.151  1.00  0.00     0.005 C 
ENDBRANCH  21  22
ENDBRANCH  20  21
ENDBRANCH  19  20
ENDBRANCH   1  19
TORSDOF 5
ENDMDL
MODEL 2
REMARK VINA RESULT: -7.768424219      1.362      3.599
REMARK  5 active torsions:
REMARK  status: ('A' for Active; 'I' for Inactive)
REMARK    1  A    between atoms: C2_2  and  C3_3 
REMARK    2  A    between atoms: C3_3  and  C4_4 
REMARK    3  A    between atoms: C4_4  and  C5_5 
REMARK    4  A    between atoms: C5_5  and  C6_6 
REMARK    5  A    between atoms: C8_8  and  C9_9 
ROOT
HETATM    1  C6  UNL     1      10.826  -0.838  58.358  1.00  0.00    -0.030 A 
HETATM    2  C7  UNL     1       9.434  -0.833  58.294  1.00  0.00     0.021 A 
HETATM    3  C8  UNL     1       8.792  -1.361  57.206  1.00  0.00    -0.023 A 
HETATM    4  C15 UNL     1       9.518  -1.894  56.175  1.00  0.00     0.026 A 
HETATM    5  C16 UNL     1      10.905  -1.913  56.209  1.00  0.00    -0.008 A 
HETATM    6  C17 UNL     1      11.619  -2.456  55.157  1.00  0.00     0.015 A 
HETATM    7  C18 UNL     1      12.995  -2.451  55.236  1.00  0.00     0.018 A 
HETATM    8  C19 UNL     1      13.570  -1.905  56.359  1.00  0.00     0.088 A 
HETATM    9  N2  UNL     1      12.882  -1.377  57.382  1.00  0.00    -0.365 N 
ATOM     10  H2  UNL     1      13.364  -0.985  58.191  1.00  0.00     0.165 HD
HETATM   11  C20 UNL     1      11.522  -1.378  57.311  1.00  0.00     0.048 A 
ENDROOT
BRANCH   3  12
HETATM   12  C9  UNL     1       7.339  -1.347  57.132  1.00  0.00    -0.002 A 
HETATM   13  C10 UNL     1       6.616  -2.540  57.282  1.00  0.00     0.014 A 
HETATM   14  C11 UNL     1       5.245  -2.476  57.216  1.00  0.00     0.001 A 
HETATM   15  C12 UNL     1       4.583  -1.282  57.009  1.00  0.00     0.002 A 
HETATM   16  C13 UNL     1       5.305  -0.124  56.864  1.00  0.00     0.027 A 
HETATM   17  C14 UNL     1       6.688  -0.143  56.924  1.00  0.00     0.057 A 
HETATM   18  N1  UNL     1       7.440   1.064  56.761  1.00  0.00    -0.102 NA
ENDBRANCH   3  12
BRANCH   1  19
HETATM   19  C5  UNL     1      11.531  -0.276  59.522  1.00  0.00     0.041 C 
BRANCH  19  20
HETATM   20  C4  UNL     1      11.638  -1.295  60.615  1.00  0.00     0.005 C 
BRANCH  20  21
HETATM   21  C3  UNL     1      12.784  -0.955  61.566  1.00  0.00    -0.000 C 
BRANCH  21  22
HETATM   22  C2  UNL     1      12.375  -1.399  62.936  1.00  0.00    -0.005 C 
HETATM   23  C1  UNL     1      13.083  -0.674  64.037  1.00  0.00     0.005 C 
ENDBRANCH  21  22
ENDBRANCH  20  21
ENDBRANCH  19  20
ENDBRANCH   1  19
TORSDOF 5
ENDMDL
MODEL 3
REMARK VINA RESULT: -7.740249518      1.141      3.214
REMARK  5 active torsions:
REMARK  status: ('A' for Active; 'I' for Inactive)
REMARK    1  A    between atoms: C2_2  and  C3_3 
REMARK    2  A    between atoms: C3_3  and  C4_4 
REMARK    3  A    between atoms: C4_4  and  C5_5 
REMARK    4  A    between atoms: C5_5  and  C6_6 
REMARK    5  A    between atoms: C8_8  and  C9_9 
ROOT
HETATM    1  C6  UNL     1      10.434  -0.779  58.057  1.00  0.00    -0.030 A 
HETATM    2  C7  UNL     1       9.041  -0.770  58.120  1.00  0.00     0.021 A 
HETATM    3  C8  UNL     1       8.303  -1.394  57.151  1.00  0.00    -0.023 A 
HETATM    4  C15 UNL     1       8.932  -2.030  56.115  1.00  0.00     0.026 A 
HETATM    5  C16 UNL     1      10.315  -2.056  56.023  1.00  0.00    -0.008 A 
HETATM    6  C17 UNL     1      10.931  -2.703  54.967  1.00  0.00     0.015 A 
HETATM    7  C18 UNL     1      12.308  -2.701  54.919  1.00  0.00     0.018 A 
HETATM    8  C19 UNL     1      12.983  -2.055  55.926  1.00  0.00     0.088 A 
HETATM    9  N2  UNL     1      12.392  -1.425  56.952  1.00  0.00    -0.365 N 
ATOM     10  H2  UNL     1      12.946  -0.962  57.672  1.00  0.00     0.165 HD
HETATM   11  C20 UNL     1      11.031  -1.423  57.007  1.00  0.00     0.048 A 
ENDROOT
BRANCH   3  12
HETATM   12  C9  UNL     1       6.850  -1.376  57.210  1.00  0.00    -0.002 A 
HETATM   13  C10 UNL     1       6.137  -2.575  57.370  1.00  0.00     0.014 A 
HETATM   14  C11 UNL     1       4.767  -2.507  57.432  1.00  0.00     0.001 A 
HETATM   15  C12 UNL     1       4.094  -1.305  57.341  1.00  0.00     0.002 A 
HETATM   16  C13 UNL     1       4.805  -0.142  57.184  1.00  0.00     0.027 A 
HETATM   17  C14 UNL     1       6.187  -0.164  57.117  1.00  0.00     0.057 A 
HETATM   18  N1  UNL     1       6.927   1.049  56.943  1.00  0.00    -0.102 NA
ENDBRANCH   3  12
BRANCH   1  19
HETATM   19  C5  UNL     1      11.242  -0.114  59.092  1.00  0.00     0.041 C 
BRANCH  19  20
HETATM   20  C4  UNL     1      11.235  -0.911  60.360  1.00  0.00     0.005 C 
BRANCH  20  21
HETATM   21  C3  UNL     1      12.655  -1.306  60.763  1.00  0.00    -0.000 C 
BRANCH  21  22
HETATM   22  C2  UNL     1      13.598  -0.526  59.900  1.00  0.00    -0.005 C 
HETATM   23  C1  UNL     1      14.811  -1.299  59.489  1.00  0.00     0.005 C 
ENDBRANCH  21  22
ENDBRANCH  20  21
ENDBRANCH  19  20
ENDBRANCH   1  19
TORSDOF 5
ENDMDL
MODEL 4
REMARK VINA RESULT: -7.684336059      1.044      1.425
REMARK  5 active torsions:
REMARK  status: ('A' for Active; 'I' for Inactive)
REMARK    1  A    between atoms: C2_2  and  C3_3 
REMARK    2  A    between atoms: C3_3  and  C4_4 
REMARK    3  A    between atoms: C4_4  and  C5_5 
REMARK    4  A    between atoms: C5_5  and  C6_6 
REMARK    5  A    between atoms: C8_8  and  C9_9 
ROOT
HETATM    1  C6  UNL     1      10.339  -2.453  57.047  1.00  0.00    -0.030 A 
HETATM    2  C7  UNL     1       9.009  -2.181  56.730  1.00  0.00     0.021 A 
HETATM    3  C8  UNL     1       8.296  -1.275  57.469  1.00  0.00    -0.023 A 
HETATM    4  C15 UNL     1       8.889  -0.633  58.522  1.00  0.00     0.026 A 
HETATM    5  C16 UNL     1      10.210  -0.882  58.863  1.00  0.00    -0.008 A 
HETATM    6  C17 UNL     1      10.790  -0.223  59.931  1.00  0.00     0.015 A 
HETATM    7  C18 UNL     1      12.105  -0.504  60.231  1.00  0.00     0.018 A 
HETATM    8  C19 UNL     1      12.758  -1.425  59.447  1.00  0.00     0.088 A 
HETATM    9  N2  UNL     1      12.201  -2.067  58.409  1.00  0.00    -0.365 N 
ATOM     10  H2  UNL     1      12.736  -2.741  57.862  1.00  0.00     0.165 HD
HETATM   11  C20 UNL     1      10.901  -1.794  58.107  1.00  0.00     0.048 A 
ENDROOT
BRANCH   3  12
HETATM   12  C9  UNL     1       6.905  -0.998  57.147  1.00  0.00    -0.002 A 
HETATM   13  C10 UNL     1       5.912  -1.945  57.444  1.00  0.00     0.014 A 
HETATM   14  C11 UNL     1       4.611  -1.634  57.132  1.00  0.00     0.001 A 
HETATM   15  C12 UNL     1       4.272  -0.431  56.544  1.00  0.00     0.002 A 
HETATM   16  C13 UNL     1       5.254   0.484  56.260  1.00  0.00     0.027 A 
HETATM   17  C14 UNL     1       6.578   0.212  56.557  1.00  0.00     0.057 A 
HETATM   18  N1  UNL     1       7.603   1.163  56.250  1.00  0.00    -0.102 NA
ENDBRANCH   3  12
BRANCH   1  19
HETATM   19  C5  UNL     1      11.120  -3.423  56.262  1.00  0.00     0.041 C 
BRANCH  19  20
HETATM   20  C4  UNL     1      11.228  -2.981  54.834  1.00  0.00     0.005 C 
BRANCH  20  21
HETATM   21  C3  UNL     1      12.269  -1.874  54.684  1.00  0.00    -0.000 C 
BRANCH  21  22
HETATM   22  C2  UNL     1      13.574  -2.418  55.175  1.00  0.00    -0.005 C 
HETATM   23  C1  UNL     1      14.364  -1.441  55.986  1.00  0.00     0.005 C 
ENDBRANCH  21  22
ENDBRANCH  20  21
ENDBRANCH  19  20
ENDBRANCH   1  19
TORSDOF 5
ENDMDL
MODEL 5
REMARK VINA RESULT: -7.459774708      1.432      2.104
REMARK  5 active torsions:
REMARK  status: ('A' for Active; 'I' for Inactive)
REMARK    1  A    between atoms: C2_2  and  C3_3 
REMARK    2  A    between atoms: C3_3  and  C4_4 
REMARK    3  A    between atoms: C4_4  and  C5_5 
REMARK    4  A    between atoms: C5_5  and  C6_6 
REMARK    5  A    between atoms: C8_8  and  C9_9 
ROOT
HETATM    1  C6  UNL     1      10.348  -2.281  57.046  1.00  0.00    -0.030 A 
HETATM    2  C7  UNL     1       9.138  -1.691  56.681  1.00  0.00     0.021 A 
HETATM    3  C8  UNL     1       8.616  -0.671  57.430  1.00  0.00    -0.023 A 
HETATM    4  C15 UNL     1       9.281  -0.228  58.542  1.00  0.00     0.026 A 
HETATM    5  C16 UNL     1      10.485  -0.795  58.932  1.00  0.00    -0.008 A 
HETATM    6  C17 UNL     1      11.140  -0.333  60.058  1.00  0.00     0.015 A 
HETATM    7  C18 UNL     1      12.333  -0.929  60.405  1.00  0.00     0.018 A 
HETATM    8  C19 UNL     1      12.797  -1.947  59.606  1.00  0.00     0.088 A 
HETATM    9  N2  UNL     1      12.166  -2.399  58.513  1.00  0.00    -0.365 N 
ATOM     10  H2  UNL     1      12.559  -3.159  57.958  1.00  0.00     0.165 HD
HETATM   11  C20 UNL     1      10.986  -1.815  58.164  1.00  0.00     0.048 A 
ENDROOT
BRANCH   3  12
HETATM   12  C9  UNL     1       7.349  -0.061  57.058  1.00  0.00    -0.002 A 
HETATM   13  C10 UNL     1       7.297   1.300  56.715  1.00  0.00     0.014 A 
HETATM   14  C11 UNL     1       6.080   1.828  56.359  1.00  0.00     0.001 A 
HETATM   15  C12 UNL     1       4.933   1.060  56.334  1.00  0.00     0.002 A 
HETATM   16  C13 UNL     1       5.001  -0.268  56.671  1.00  0.00     0.027 A 
HETATM   17  C14 UNL     1       6.206  -0.842  57.036  1.00  0.00     0.057 A 
HETATM   18  N1  UNL     1       6.274  -2.226  57.399  1.00  0.00    -0.102 NA
ENDBRANCH   3  12
BRANCH   1  19
HETATM   19  C5  UNL     1      10.924  -3.378  56.250  1.00  0.00     0.041 C 
BRANCH  19  20
HETATM   20  C4  UNL     1      11.041  -2.979  54.811  1.00  0.00     0.005 C 
BRANCH  20  21
HETATM   21  C3  UNL     1      12.134  -1.929  54.624  1.00  0.00    -0.000 C 
BRANCH  21  22
HETATM   22  C2  UNL     1      13.406  -2.506  55.164  1.00  0.00    -0.005 C 
HETATM   23  C1  UNL     1      14.203  -1.539  55.982  1.00  0.00     0.005 C 
ENDBRANCH  21  22
ENDBRANCH  20  21
ENDBRANCH  19  20
ENDBRANCH   1  19
TORSDOF 5
ENDMDL
