MODEL 1
REMARK VINA RESULT: -7.179829119      0.000      0.000
REMARK  6 active torsions:
REMARK  status: ('A' for Active; 'I' for Inactive)
REMARK    1  A    between atoms: N1_2  and  N2_3 
REMARK    2  A    between atoms: N2_3  and  C2_4 
REMARK    3  A    between atoms: C2_4  and  C3_5 
REMARK    4  A    between atoms: C3_5  and  N3_6 
REMARK    5  A    between atoms: C10_23  and  O3_24 
REMARK    6  A    between atoms: C11_29  and  O5_30 
ROOT
HETATM    1  C3  UNL     1      17.785  27.576 101.996  1.00  0.00     0.186 A 
HETATM    2  C4  UNL     1      19.070  27.115 102.571  1.00  0.00     0.097 A 
HETATM    3  C5  UNL     1      20.373  27.362 101.848  1.00  0.00     0.181 C 
HETATM    4  O1  UNL     1      21.387  26.769 102.600  1.00  0.00    -0.356 OA
HETATM    5  C6  UNL     1      22.347  26.157 101.852  1.00  0.00     0.224 C 
HETATM    6  C7  UNL     1      22.011  24.719 101.502  1.00  0.00     0.297 C 
HETATM    7  N4  UNL     1      20.763  24.409 102.171  1.00  0.00    -0.055 N 
ATOM      8  H41 UNL     1      20.264  25.263 102.421  1.00  0.00     0.279 HD
ATOM      9  H42 UNL     1      20.934  24.035 103.104  1.00  0.00     0.279 HD
HETATM   10  C8  UNL     1      19.918  23.527 101.416  1.00  0.00     0.357 C 
HETATM   11  N5  UNL     1      18.995  24.200 100.525  1.00  0.00    -0.335 N 
ATOM     12  H5  UNL     1      18.667  23.689  99.706  1.00  0.00     0.164 HD
HETATM   13  C9  UNL     1      18.515  25.527 100.715  1.00  0.00     0.256 C 
HETATM   14  O2  UNL     1      18.392  26.217  99.655  1.00  0.00    -0.270 OA
HETATM   15  C10 UNL     1      18.163  26.138 101.994  1.00  0.00     0.181 A 
HETATM   16  N6  UNL     1      23.610  26.191 102.561  1.00  0.00    -0.073 NA
HETATM   17  N7  UNL     1      24.586  26.511 101.634  1.00  0.00     0.018 NA
HETATM   18  O4  UNL     1      24.048  26.509 100.418  1.00  0.00    -0.233 OA
HETATM   19  C11 UNL     1      22.688  26.861 100.566  1.00  0.00     0.337 C 
ENDROOT
BRANCH   1  20
HETATM   20  C2  UNL     1      16.756  28.078 103.005  1.00  0.00     0.173 C 
BRANCH  20  21
HETATM   21  N2  UNL     1      17.469  28.257 104.275  1.00  0.00    -0.146 NA
BRANCH  21  22
HETATM   22  N1  UNL     1      16.797  29.238 105.011  1.00  0.00    -0.153 NA
HETATM   23  C1  UNL     1      17.739  30.264 105.468  1.00  0.00     0.154 C 
ENDBRANCH  21  22
ENDBRANCH  20  21
ENDBRANCH   1  20
BRANCH   1  24
HETATM   24  N3  UNL     1      17.835  28.372 100.800  1.00  0.00    -0.065 N 
ATOM     25  H33 UNL     1      16.901  28.676 100.526  1.00  0.00     0.275 HD
ATOM     26  H32 UNL     1      18.259  29.282 100.986  1.00  0.00     0.275 HD
ATOM     27  H31 UNL     1      18.307  27.903 100.026  1.00  0.00     0.275 HD
ENDBRANCH   1  24
BRANCH  15  28
HETATM   28  O3  UNL     1      17.432  25.372 102.936  1.00  0.00    -0.377 OA
ATOM     29  H3  UNL     1      17.599  25.632 103.834  1.00  0.00     0.211 HD
ENDBRANCH  15  28
BRANCH  19  30
HETATM   30  O5  UNL     1      22.628  28.224 100.638  1.00  0.00    -0.366 OA
ATOM     31  H5  UNL     1      21.815  28.561 100.997  1.00  0.00     0.212 HD
ENDBRANCH  19  30
TORSDOF 6
ENDMDL
MODEL 2
REMARK VINA RESULT: -7.105193953      1.184      1.500
REMARK  6 active torsions:
REMARK  status: ('A' for Active; 'I' for Inactive)
REMARK    1  A    between atoms: N1_2  and  N2_3 
REMARK    2  A    between atoms: N2_3  and  C2_4 
REMARK    3  A    between atoms: C2_4  and  C3_5 
REMARK    4  A    between atoms: C3_5  and  N3_6 
REMARK    5  A    between atoms: C10_23  and  O3_24 
REMARK    6  A    between atoms: C11_29  and  O5_30 
ROOT
HETATM    1  C3  UNL     1      17.715  27.548 102.103  1.00  0.00     0.186 A 
HETATM    2  C4  UNL     1      19.014  27.091 102.651  1.00  0.00     0.097 A 
HETATM    3  C5  UNL     1      20.301  27.352 101.905  1.00  0.00     0.181 C 
HETATM    4  O1  UNL     1      21.333  26.760 102.633  1.00  0.00    -0.356 OA
HETATM    5  C6  UNL     1      22.283  26.159 101.863  1.00  0.00     0.224 C 
HETATM    6  C7  UNL     1      21.949  24.722 101.508  1.00  0.00     0.297 C 
HETATM    7  N4  UNL     1      20.716  24.399 102.198  1.00  0.00    -0.055 N 
ATOM      8  H41 UNL     1      20.216  25.247 102.464  1.00  0.00     0.279 HD
ATOM      9  H42 UNL     1      20.907  24.019 103.124  1.00  0.00     0.279 HD
HETATM   10  C8  UNL     1      19.862  23.517 101.452  1.00  0.00     0.357 C 
HETATM   11  N5  UNL     1      18.919  24.191 100.583  1.00  0.00    -0.335 N 
ATOM     12  H5  UNL     1      18.579  23.684  99.766  1.00  0.00     0.164 HD
HETATM   13  C9  UNL     1      18.434  25.514 100.793  1.00  0.00     0.256 C 
HETATM   14  O2  UNL     1      18.286  26.211  99.741  1.00  0.00    -0.270 OA
HETATM   15  C10 UNL     1      18.103  26.112 102.083  1.00  0.00     0.181 A 
HETATM   16  N6  UNL     1      23.558  26.196 102.547  1.00  0.00    -0.073 NA
HETATM   17  N7  UNL     1      24.515  26.530 101.605  1.00  0.00     0.018 NA
HETATM   18  O4  UNL     1      23.954  26.534 100.400  1.00  0.00    -0.233 OA
HETATM   19  C11 UNL     1      22.595  26.876 100.576  1.00  0.00     0.337 C 
ENDROOT
BRANCH   1  20
HETATM   20  C2  UNL     1      16.702  28.035 103.135  1.00  0.00     0.173 C 
BRANCH  20  21
HETATM   21  N2  UNL     1      15.373  27.711 102.602  1.00  0.00    -0.146 NA
BRANCH  21  22
HETATM   22  N1  UNL     1      14.692  28.913 102.383  1.00  0.00    -0.153 NA
HETATM   23  C1  UNL     1      13.248  28.674 102.323  1.00  0.00     0.154 C 
ENDBRANCH  21  22
ENDBRANCH  20  21
ENDBRANCH   1  20
BRANCH   1  24
HETATM   24  N3  UNL     1      17.738  28.354 100.913  1.00  0.00    -0.065 N 
ATOM     25  H33 UNL     1      16.979  29.036 100.921  1.00  0.00     0.275 HD
ATOM     26  H32 UNL     1      18.535  28.991 100.920  1.00  0.00     0.275 HD
ATOM     27  H31 UNL     1      17.722  27.801 100.055  1.00  0.00     0.275 HD
ENDBRANCH   1  24
BRANCH  15  28
HETATM   28  O3  UNL     1      17.394  25.335 103.032  1.00  0.00    -0.377 OA
ATOM     29  H3  UNL     1      17.963  24.919 103.669  1.00  0.00     0.211 HD
ENDBRANCH  15  28
BRANCH  19  30
HETATM   30  O5  UNL     1      22.527  28.238 100.660  1.00  0.00    -0.366 OA
ATOM     31  H5  UNL     1      23.277  28.690 100.292  1.00  0.00     0.212 HD
ENDBRANCH  19  30
TORSDOF 6
ENDMDL
MODEL 3
REMARK VINA RESULT: -6.713279368      2.841      5.852
REMARK  6 active torsions:
REMARK  status: ('A' for Active; 'I' for Inactive)
REMARK    1  A    between atoms: N1_2  and  N2_3 
REMARK    2  A    between atoms: N2_3  and  C2_4 
REMARK    3  A    between atoms: C2_4  and  C3_5 
REMARK    4  A    between atoms: C3_5  and  N3_6 
REMARK    5  A    between atoms: C10_23  and  O3_24 
REMARK    6  A    between atoms: C11_29  and  O5_30 
ROOT
HETATM    1  C3  UNL     1      20.833  23.308  99.263  1.00  0.00     0.186 A 
HETATM    2  C4  UNL     1      20.132  24.589  99.515  1.00  0.00     0.097 A 
HETATM    3  C5  UNL     1      20.778  25.672 100.347  1.00  0.00     0.181 C 
HETATM    4  O1  UNL     1      19.863  26.719 100.452  1.00  0.00    -0.356 OA
HETATM    5  C6  UNL     1      19.832  27.309 101.680  1.00  0.00     0.224 C 
HETATM    6  C7  UNL     1      18.890  26.625 102.653  1.00  0.00     0.297 C 
HETATM    7  N4  UNL     1      18.227  25.567 101.915  1.00  0.00    -0.055 N 
ATOM      8  H41 UNL     1      18.754  25.325 101.076  1.00  0.00     0.279 HD
ATOM      9  H42 UNL     1      17.370  25.909 101.482  1.00  0.00     0.279 HD
HETATM   10  C8  UNL     1      17.966  24.399 102.709  1.00  0.00     0.357 C 
HETATM   11  N5  UNL     1      19.030  23.416 102.693  1.00  0.00    -0.335 N 
ATOM     12  H5  UNL     1      19.110  22.789 103.494  1.00  0.00     0.164 HD
HETATM   13  C9  UNL     1      19.972  23.265 101.635  1.00  0.00     0.256 C 
HETATM   14  O2  UNL     1      21.159  22.994 102.000  1.00  0.00    -0.270 OA
HETATM   15  C10 UNL     1      19.688  23.392 100.209  1.00  0.00     0.181 A 
HETATM   16  N6  UNL     1      19.448  28.698 101.542  1.00  0.00    -0.073 NA
HETATM   17  N7  UNL     1      20.271  29.432 102.378  1.00  0.00     0.018 NA
HETATM   18  O4  UNL     1      20.994  28.597 103.118  1.00  0.00    -0.233 OA
HETATM   19  C11 UNL     1      21.172  27.419 102.359  1.00  0.00     0.337 C 
ENDROOT
BRANCH   1  20
HETATM   20  C2  UNL     1      20.617  22.702  97.879  1.00  0.00     0.173 C 
BRANCH  20  21
HETATM   21  N2  UNL     1      21.418  23.501  96.944  1.00  0.00    -0.146 NA
BRANCH  21  22
HETATM   22  N1  UNL     1      22.560  22.763  96.617  1.00  0.00    -0.153 NA
HETATM   23  C1  UNL     1      22.191  21.400  96.226  1.00  0.00     0.154 C 
ENDBRANCH  21  22
ENDBRANCH  20  21
ENDBRANCH   1  20
BRANCH   1  24
HETATM   24  N3  UNL     1      22.189  23.185  99.726  1.00  0.00    -0.065 N 
ATOM     25  H33 UNL     1      22.432  23.958 100.345  1.00  0.00     0.275 HD
ATOM     26  H32 UNL     1      22.280  22.410 100.383  1.00  0.00     0.275 HD
ATOM     27  H31 UNL     1      22.865  23.100  98.966  1.00  0.00     0.275 HD
ENDBRANCH   1  24
BRANCH  15  28
HETATM   28  O3  UNL     1      18.503  22.810  99.696  1.00  0.00    -0.377 OA
ATOM     29  H3  UNL     1      18.484  22.784  98.746  1.00  0.00     0.211 HD
ENDBRANCH  15  28
BRANCH  19  30
HETATM   30  O5  UNL     1      22.218  27.640 101.507  1.00  0.00    -0.366 OA
ATOM     31  H5  UNL     1      23.003  27.148 101.718  1.00  0.00     0.212 HD
ENDBRANCH  19  30
TORSDOF 6
ENDMDL
MODEL 4
REMARK VINA RESULT: -6.708906104      2.565      6.127
REMARK  6 active torsions:
REMARK  status: ('A' for Active; 'I' for Inactive)
REMARK    1  A    between atoms: N1_2  and  N2_3 
REMARK    2  A    between atoms: N2_3  and  C2_4 
REMARK    3  A    between atoms: C2_4  and  C3_5 
REMARK    4  A    between atoms: C3_5  and  N3_6 
REMARK    5  A    between atoms: C10_23  and  O3_24 
REMARK    6  A    between atoms: C11_29  and  O5_30 
ROOT
HETATM    1  C3  UNL     1      20.119  25.825 100.543  1.00  0.00     0.186 A 
HETATM    2  C4  UNL     1      19.283  25.354 101.672  1.00  0.00     0.097 A 
HETATM    3  C5  UNL     1      18.036  24.539 101.421  1.00  0.00     0.181 C 
HETATM    4  O1  UNL     1      17.440  24.297 102.659  1.00  0.00    -0.356 OA
HETATM    5  C6  UNL     1      16.080  24.370 102.644  1.00  0.00     0.224 C 
HETATM    6  C7  UNL     1      15.551  25.774 102.865  1.00  0.00     0.297 C 
HETATM    7  N4  UNL     1      16.703  26.618 103.117  1.00  0.00    -0.055 N 
ATOM      8  H41 UNL     1      17.557  26.177 102.776  1.00  0.00     0.279 HD
ATOM      9  H42 UNL     1      16.917  26.651 104.114  1.00  0.00     0.279 HD
HETATM   10  C8  UNL     1      16.564  27.943 102.582  1.00  0.00     0.357 C 
HETATM   11  N5  UNL     1      17.051  28.094 101.226  1.00  0.00    -0.335 N 
ATOM     12  H5  UNL     1      16.648  28.838 100.656  1.00  0.00     0.164 HD
HETATM   13  C9  UNL     1      18.055  27.275 100.635  1.00  0.00     0.256 C 
HETATM   14  O2  UNL     1      17.867  26.984  99.412  1.00  0.00    -0.270 OA
HETATM   15  C10 UNL     1      19.245  26.759 101.303  1.00  0.00     0.181 A 
HETATM   16  N6  UNL     1      15.535  23.491 103.658  1.00  0.00    -0.073 NA
HETATM   17  N7  UNL     1      14.452  22.842 103.093  1.00  0.00     0.018 NA
HETATM   18  O4  UNL     1      14.204  23.370 101.898  1.00  0.00    -0.233 OA
HETATM   19  C11 UNL     1      15.435  23.842 101.390  1.00  0.00     0.337 C 
ENDROOT
BRANCH   1  20
HETATM   20  C2  UNL     1      21.624  25.834 100.799  1.00  0.00     0.173 C 
BRANCH  20  21
HETATM   21  N2  UNL     1      22.194  26.847  99.903  1.00  0.00    -0.146 NA
BRANCH  21  22
HETATM   22  N1  UNL     1      22.623  27.923 100.687  1.00  0.00    -0.153 NA
HETATM   23  C1  UNL     1      23.246  27.436 101.920  1.00  0.00     0.154 C 
ENDBRANCH  21  22
ENDBRANCH  20  21
ENDBRANCH   1  20
BRANCH   1  24
HETATM   24  N3  UNL     1      19.775  25.375  99.222  1.00  0.00    -0.065 N 
ATOM     25  H33 UNL     1      18.788  25.542  99.027  1.00  0.00     0.275 HD
ATOM     26  H32 UNL     1      20.190  25.978  98.512  1.00  0.00     0.275 HD
ATOM     27  H31 UNL     1      20.019  24.397  99.057  1.00  0.00     0.275 HD
ENDBRANCH   1  24
BRANCH  15  28
HETATM   28  O3  UNL     1      19.972  27.621 102.162  1.00  0.00    -0.377 OA
ATOM     29  H3  UNL     1      20.900  27.644 101.965  1.00  0.00     0.211 HD
ENDBRANCH  15  28
BRANCH  19  30
HETATM   30  O5  UNL     1      16.079  22.774 100.833  1.00  0.00    -0.366 OA
ATOM     31  H5  UNL     1      16.412  22.932  99.957  1.00  0.00     0.212 HD
ENDBRANCH  19  30
TORSDOF 6
ENDMDL
MODEL 5
REMARK VINA RESULT: -6.676021334      2.297      5.937
REMARK  6 active torsions:
REMARK  status: ('A' for Active; 'I' for Inactive)
REMARK    1  A    between atoms: N1_2  and  N2_3 
REMARK    2  A    between atoms: N2_3  and  C2_4 
REMARK    3  A    between atoms: C2_4  and  C3_5 
REMARK    4  A    between atoms: C3_5  and  N3_6 
REMARK    5  A    between atoms: C10_23  and  O3_24 
REMARK    6  A    between atoms: C11_29  and  O5_30 
ROOT
HETATM    1  C3  UNL     1      20.586  26.858 101.666  1.00  0.00     0.186 A 
HETATM    2  C4  UNL     1      19.625  26.385 102.691  1.00  0.00     0.097 A 
HETATM    3  C5  UNL     1      18.712  25.215 102.411  1.00  0.00     0.181 C 
HETATM    4  O1  UNL     1      17.896  25.046 103.530  1.00  0.00    -0.356 OA
HETATM    5  C6  UNL     1      16.607  24.721 103.232  1.00  0.00     0.224 C 
HETATM    6  C7  UNL     1      15.722  25.930 102.991  1.00  0.00     0.297 C 
HETATM    7  N4  UNL     1      16.539  27.100 103.246  1.00  0.00    -0.055 N 
ATOM      8  H41 UNL     1      17.531  26.868 103.198  1.00  0.00     0.279 HD
ATOM      9  H42 UNL     1      16.479  27.378 104.226  1.00  0.00     0.279 HD
HETATM   10  C8  UNL     1      16.232  28.206 102.383  1.00  0.00     0.357 C 
HETATM   11  N5  UNL     1      16.998  28.236 101.154  1.00  0.00    -0.335 N 
ATOM     12  H5  UNL     1      16.589  28.713 100.351  1.00  0.00     0.164 HD
HETATM   13  C9  UNL     1      18.283  27.644 100.991  1.00  0.00     0.256 C 
HETATM   14  O2  UNL     1      18.487  27.090  99.866  1.00  0.00    -0.270 OA
HETATM   15  C10 UNL     1      19.352  27.626 101.986  1.00  0.00     0.181 A 
HETATM   16  N6  UNL     1      16.046  23.927 104.305  1.00  0.00    -0.073 NA
HETATM   17  N7  UNL     1      15.327  22.901 103.718  1.00  0.00     0.018 NA
HETATM   18  O4  UNL     1      15.274  23.104 102.405  1.00  0.00    -0.233 OA
HETATM   19  C11 UNL     1      16.445  23.807 102.046  1.00  0.00     0.337 C 
ENDROOT
BRANCH   1  20
HETATM   20  C2  UNL     1      21.929  27.346 102.200  1.00  0.00     0.173 C 
BRANCH  20  21
HETATM   21  N2  UNL     1      22.780  27.592 101.029  1.00  0.00    -0.146 NA
BRANCH  21  22
HETATM   22  N1  UNL     1      23.738  26.575 100.971  1.00  0.00    -0.153 NA
HETATM   23  C1  UNL     1      24.202  26.237 102.319  1.00  0.00     0.154 C 
ENDBRANCH  21  22
ENDBRANCH  20  21
ENDBRANCH   1  20
BRANCH   1  24
HETATM   24  N3  UNL     1      20.705  26.090 100.456  1.00  0.00    -0.065 N 
ATOM     25  H33 UNL     1      21.544  25.510 100.476  1.00  0.00     0.275 HD
ATOM     26  H32 UNL     1      19.996  25.358 100.419  1.00  0.00     0.275 HD
ATOM     27  H31 UNL     1      20.679  26.665  99.613  1.00  0.00     0.275 HD
ENDBRANCH   1  24
BRANCH  15  28
HETATM   28  O3  UNL     1      19.611  28.804 102.729  1.00  0.00    -0.377 OA
ATOM     29  H3  UNL     1      19.066  29.536 102.465  1.00  0.00     0.211 HD
ENDBRANCH  15  28
BRANCH  19  30
HETATM   30  O5  UNL     1      17.444  22.885 101.907  1.00  0.00    -0.366 OA
ATOM     31  H5  UNL     1      17.454  22.443 101.066  1.00  0.00     0.212 HD
ENDBRANCH  19  30
TORSDOF 6
ENDMDL
