MODEL 1
REMARK VINA RESULT: -6.804024253      0.000      0.000
REMARK  6 active torsions:
REMARK  status: ('A' for Active; 'I' for Inactive)
REMARK       I    between atoms: C1_2  and  N2_4 
REMARK    1  A    between atoms: N2_4  and  N3_6 
REMARK    2  A    between atoms: N3_6  and  C2_7 
REMARK    3  A    between atoms: C8_23  and  C9_24 
REMARK    4  A    between atoms: C9_24  and  O3_25 
REMARK    5  A    between atoms: C9_24  and  C10_27 
REMARK    6  A    between atoms: C10_27  and  O4_28 
ROOT
HETATM    1  C2  UNL     1      21.893  27.264 101.348  1.00  0.00     0.369 C 
HETATM    2  N4  UNL     1      21.229  27.533 102.621  1.00  0.00    -0.047 N 
ATOM      3  H41 UNL     1      21.436  28.461 102.991  1.00  0.00     0.279 HD
ATOM      4  H42 UNL     1      21.616  26.994 103.395  1.00  0.00     0.279 HD
HETATM    5  C3  UNL     1      19.841  27.309 102.426  1.00  0.00     0.254 C 
HETATM    6  C4  UNL     1      18.876  28.161 103.177  1.00  0.00     0.151 C 
HETATM    7  N5  UNL     1      17.539  27.676 102.883  1.00  0.00    -0.351 N 
ATOM      8  H5  UNL     1      16.777  28.342 103.007  1.00  0.00     0.163 HD
HETATM    9  C5  UNL     1      17.170  26.366 102.437  1.00  0.00     0.262 C 
HETATM   10  N6  UNL     1      16.095  25.826 103.275  1.00  0.00    -0.049 NA
HETATM   11  N7  UNL     1      17.595  25.705 101.528  1.00  0.00    -0.381 NA
HETATM   12  C6  UNL     1      18.044  24.932 100.520  1.00  0.00     0.260 C 
HETATM   13  C7  UNL     1      18.990  23.824 100.828  1.00  0.00     0.271 C 
HETATM   14  O2  UNL     1      18.392  22.762 101.261  1.00  0.00    -0.266 OA
HETATM   15  N8  UNL     1      20.396  23.827 100.696  1.00  0.00    -0.341 N 
ATOM     16  H8  UNL     1      20.767  23.100 100.084  1.00  0.00     0.163 HD
HETATM   17  C8  UNL     1      21.380  24.672 101.275  1.00  0.00     0.189 C 
HETATM   18  C11 UNL     1      21.517  26.024 100.679  1.00  0.00     0.200 C 
HETATM   19  O5  UNL     1      21.276  26.060  99.480  1.00  0.00    -0.292 OA
ENDROOT
BRANCH   1  20
HETATM   20  N3  UNL     1      23.321  27.490 101.415  1.00  0.00    -0.096 NA
BRANCH  20  21
HETATM   21  N2  UNL     1      23.818  27.153 102.677  1.00  0.00    -0.256 N 
HETATM   22  C1  UNL     1      25.079  26.525 102.854  1.00  0.00     0.344 C 
HETATM   23  N1  UNL     1      25.585  26.182 104.132  1.00  0.00    -0.039 NA
HETATM   24  O1  UNL     1      25.756  26.273 101.824  1.00  0.00    -0.250 OA
ATOM     25  H2  UNL     1      23.255  27.366 103.499  1.00  0.00     0.186 HD
ENDBRANCH  20  21
ENDBRANCH   1  20
BRANCH  17  26
HETATM   26  C9  UNL     1      22.760  24.015 101.046  1.00  0.00     0.171 C 
BRANCH  26  27
HETATM   27  O3  UNL     1      23.645  24.857 100.410  1.00  0.00    -0.391 OA
ATOM     28  H3  UNL     1      24.547  24.572 100.503  1.00  0.00     0.210 HD
ENDBRANCH  26  27
BRANCH  26  29
HETATM   29  C10 UNL     1      22.565  22.761 100.180  1.00  0.00     0.198 C 
BRANCH  29  30
HETATM   30  O4  UNL     1      22.426  23.109  98.844  1.00  0.00    -0.398 OA
ATOM     31  H4  UNL     1      22.617  22.366  98.284  1.00  0.00     0.209 HD
ENDBRANCH  29  30
ENDBRANCH  26  29
ENDBRANCH  17  26
TORSDOF 6
ENDMDL
MODEL 2
REMARK VINA RESULT: -6.623896687      2.379      4.271
REMARK  6 active torsions:
REMARK  status: ('A' for Active; 'I' for Inactive)
REMARK       I    between atoms: C1_2  and  N2_4 
REMARK    1  A    between atoms: N2_4  and  N3_6 
REMARK    2  A    between atoms: N3_6  and  C2_7 
REMARK    3  A    between atoms: C8_23  and  C9_24 
REMARK    4  A    between atoms: C9_24  and  O3_25 
REMARK    5  A    between atoms: C9_24  and  C10_27 
REMARK    6  A    between atoms: C10_27  and  O4_28 
ROOT
HETATM    1  C2  UNL     1      21.933  27.341 101.868  1.00  0.00     0.369 C 
HETATM    2  N4  UNL     1      20.850  26.731 102.635  1.00  0.00    -0.047 N 
ATOM      3  H41 UNL     1      20.063  27.362 102.785  1.00  0.00     0.279 HD
ATOM      4  H42 UNL     1      21.089  26.583 103.615  1.00  0.00     0.279 HD
HETATM    5  C3  UNL     1      20.483  25.534 101.966  1.00  0.00     0.254 C 
HETATM    6  C4  UNL     1      19.052  25.118 101.996  1.00  0.00     0.151 C 
HETATM    7  N5  UNL     1      18.955  23.829 101.333  1.00  0.00    -0.351 N 
ATOM      8  H5  UNL     1      18.043  23.584 100.949  1.00  0.00     0.163 HD
HETATM    9  C5  UNL     1      19.997  22.863 101.157  1.00  0.00     0.262 C 
HETATM   10  N6  UNL     1      19.548  21.541 101.602  1.00  0.00    -0.049 NA
HETATM   11  N7  UNL     1      21.109  22.989 100.718  1.00  0.00    -0.381 NA
HETATM   12  C6  UNL     1      22.363  23.088 100.235  1.00  0.00     0.260 C 
HETATM   13  C7  UNL     1      23.503  23.144 101.191  1.00  0.00     0.271 C 
HETATM   14  O2  UNL     1      23.852  21.975 101.621  1.00  0.00    -0.266 OA
HETATM   15  N8  UNL     1      24.195  24.289 101.644  1.00  0.00    -0.341 N 
ATOM     16  H8  UNL     1      25.198  24.279 101.461  1.00  0.00     0.163 HD
HETATM   17  C8  UNL     1      23.727  25.452 102.313  1.00  0.00     0.189 C 
HETATM   18  C11 UNL     1      23.019  26.451 101.475  1.00  0.00     0.200 C 
HETATM   19  O5  UNL     1      23.426  26.503 100.323  1.00  0.00    -0.292 OA
ENDROOT
BRANCH   1  20
HETATM   20  N3  UNL     1      22.374  28.595 102.441  1.00  0.00    -0.096 NA
BRANCH  20  21
HETATM   21  N2  UNL     1      21.478  29.036 103.418  1.00  0.00    -0.256 N 
HETATM   22  C1  UNL     1      20.933  30.347 103.412  1.00  0.00     0.344 C 
HETATM   23  N1  UNL     1      20.025  30.798 104.401  1.00  0.00    -0.039 NA
HETATM   24  O1  UNL     1      21.283  31.121 102.484  1.00  0.00    -0.250 OA
ATOM     25  H2  UNL     1      21.206  28.393 104.161  1.00  0.00     0.186 HD
ENDBRANCH  20  21
ENDBRANCH   1  20
BRANCH  17  26
HETATM   26  C9  UNL     1      24.959  26.213 102.852  1.00  0.00     0.171 C 
BRANCH  26  27
HETATM   27  O3  UNL     1      24.971  27.535 102.467  1.00  0.00    -0.391 OA
ATOM     28  H3  UNL     1      25.741  27.997 102.779  1.00  0.00     0.210 HD
ENDBRANCH  26  27
BRANCH  26  29
HETATM   29  C10 UNL     1      26.227  25.532 102.314  1.00  0.00     0.198 C 
BRANCH  29  30
HETATM   30  O4  UNL     1      26.523  25.992 101.039  1.00  0.00    -0.398 OA
ATOM     31  H4  UNL     1      25.952  25.586 100.397  1.00  0.00     0.209 HD
ENDBRANCH  29  30
ENDBRANCH  26  29
ENDBRANCH  17  26
TORSDOF 6
ENDMDL
MODEL 3
REMARK VINA RESULT: -6.509366070      2.183      5.547
REMARK  6 active torsions:
REMARK  status: ('A' for Active; 'I' for Inactive)
REMARK       I    between atoms: C1_2  and  N2_4 
REMARK    1  A    between atoms: N2_4  and  N3_6 
REMARK    2  A    between atoms: N3_6  and  C2_7 
REMARK    3  A    between atoms: C8_23  and  C9_24 
REMARK    4  A    between atoms: C9_24  and  O3_25 
REMARK    5  A    between atoms: C9_24  and  C10_27 
REMARK    6  A    between atoms: C10_27  and  O4_28 
ROOT
HETATM    1  C2  UNL     1      18.305  24.928 102.561  1.00  0.00     0.369 C 
HETATM    2  N4  UNL     1      17.781  26.290 102.516  1.00  0.00    -0.047 N 
ATOM      3  H41 UNL     1      16.963  26.424 103.110  1.00  0.00     0.279 HD
ATOM      4  H42 UNL     1      17.336  26.517 101.627  1.00  0.00     0.279 HD
HETATM    5  C3  UNL     1      18.852  27.164 102.839  1.00  0.00     0.254 C 
HETATM    6  C4  UNL     1      18.543  28.411 103.596  1.00  0.00     0.151 C 
HETATM    7  N5  UNL     1      19.775  29.170 103.715  1.00  0.00    -0.351 N 
ATOM      8  H5  UNL     1      19.825  29.834 104.488  1.00  0.00     0.163 HD
HETATM    9  C5  UNL     1      20.929  29.091 102.871  1.00  0.00     0.262 C 
HETATM   10  N6  UNL     1      21.326  30.429 102.423  1.00  0.00    -0.049 NA
HETATM   11  N7  UNL     1      21.567  28.137 102.513  1.00  0.00    -0.381 NA
HETATM   12  C6  UNL     1      22.308  27.095 102.089  1.00  0.00     0.260 C 
HETATM   13  C7  UNL     1      22.099  26.576 100.709  1.00  0.00     0.271 C 
HETATM   14  O2  UNL     1      22.721  27.272  99.814  1.00  0.00    -0.266 OA
HETATM   15  N8  UNL     1      21.330  25.459 100.313  1.00  0.00    -0.341 N 
ATOM     16  H8  UNL     1      21.849  24.745  99.802  1.00  0.00     0.163 HD
HETATM   17  C8  UNL     1      19.954  25.164 100.509  1.00  0.00     0.189 C 
HETATM   18  C11 UNL     1      19.567  24.704 101.866  1.00  0.00     0.200 C 
HETATM   19  O5  UNL     1      20.440  24.064 102.435  1.00  0.00    -0.292 OA
ENDROOT
BRANCH   1  20
HETATM   20  N3  UNL     1      17.289  23.938 102.275  1.00  0.00    -0.096 NA
BRANCH  20  21
HETATM   21  N2  UNL     1      16.784  23.391 103.457  1.00  0.00    -0.256 N 
HETATM   22  C1  UNL     1      15.699  23.976 104.162  1.00  0.00     0.344 C 
HETATM   23  N1  UNL     1      15.184  23.424 105.360  1.00  0.00    -0.039 NA
HETATM   24  O1  UNL     1      15.190  25.023 103.685  1.00  0.00    -0.250 OA
ATOM     25  H2  UNL     1      17.209  22.541 103.826  1.00  0.00     0.186 HD
ENDBRANCH  20  21
ENDBRANCH   1  20
BRANCH  17  26
HETATM   26  C9  UNL     1      19.591  23.977  99.588  1.00  0.00     0.171 C 
BRANCH  26  27
HETATM   27  O3  UNL     1      19.160  22.876 100.293  1.00  0.00    -0.391 OA
ATOM     28  H3  UNL     1      19.869  22.283 100.510  1.00  0.00     0.210 HD
ENDBRANCH  26  27
BRANCH  26  29
HETATM   29  C10 UNL     1      20.840  23.587  98.782  1.00  0.00     0.198 C 
BRANCH  29  30
HETATM   30  O4  UNL     1      20.877  24.275  97.577  1.00  0.00    -0.398 OA
ATOM     31  H4  UNL     1      20.902  23.668  96.847  1.00  0.00     0.209 HD
ENDBRANCH  29  30
ENDBRANCH  26  29
ENDBRANCH  17  26
TORSDOF 6
ENDMDL
MODEL 4
REMARK VINA RESULT: -6.507695714      2.986      6.258
REMARK  6 active torsions:
REMARK  status: ('A' for Active; 'I' for Inactive)
REMARK       I    between atoms: C1_2  and  N2_4 
REMARK    1  A    between atoms: N2_4  and  N3_6 
REMARK    2  A    between atoms: N3_6  and  C2_7 
REMARK    3  A    between atoms: C8_23  and  C9_24 
REMARK    4  A    between atoms: C9_24  and  O3_25 
REMARK    5  A    between atoms: C9_24  and  C10_27 
REMARK    6  A    between atoms: C10_27  and  O4_28 
ROOT
HETATM    1  C2  UNL     1      17.361  26.830 102.498  1.00  0.00     0.369 C 
HETATM    2  N4  UNL     1      17.168  25.856 103.569  1.00  0.00    -0.047 N 
ATOM      3  H41 UNL     1      16.193  25.758 103.848  1.00  0.00     0.279 HD
ATOM      4  H42 UNL     1      17.532  26.173 104.467  1.00  0.00     0.279 HD
HETATM    5  C3  UNL     1      17.748  24.634 103.136  1.00  0.00     0.254 C 
HETATM    6  C4  UNL     1      17.109  23.358 103.565  1.00  0.00     0.151 C 
HETATM    7  N5  UNL     1      17.936  22.267 103.079  1.00  0.00    -0.351 N 
ATOM      8  H5  UNL     1      17.474  21.365 102.963  1.00  0.00     0.163 HD
HETATM    9  C5  UNL     1      19.327  22.315 102.743  1.00  0.00     0.262 C 
HETATM   10  N6  UNL     1      20.051  21.233 103.417  1.00  0.00    -0.049 NA
HETATM   11  N7  UNL     1      19.930  23.072 102.030  1.00  0.00    -0.381 NA
HETATM   12  C6  UNL     1      20.642  23.898 101.239  1.00  0.00     0.260 C 
HETATM   13  C7  UNL     1      21.450  24.979 101.869  1.00  0.00     0.271 C 
HETATM   14  O2  UNL     1      22.590  24.558 102.311  1.00  0.00    -0.266 OA
HETATM   15  N8  UNL     1      21.105  26.341 102.018  1.00  0.00    -0.341 N 
ATOM     16  H8  UNL     1      21.761  26.994 101.590  1.00  0.00     0.163 HD
HETATM   17  C8  UNL     1      19.997  26.951 102.663  1.00  0.00     0.189 C 
HETATM   18  C11 UNL     1      18.705  26.905 101.935  1.00  0.00     0.200 C 
HETATM   19  O5  UNL     1      18.825  26.936 100.718  1.00  0.00    -0.292 OA
ENDROOT
BRANCH   1  20
HETATM   20  N3  UNL     1      16.781  28.117 102.815  1.00  0.00    -0.096 NA
BRANCH  20  21
HETATM   21  N2  UNL     1      15.549  28.276 102.175  1.00  0.00    -0.256 N 
HETATM   22  C1  UNL     1      14.476  28.999 102.761  1.00  0.00     0.344 C 
HETATM   23  N1  UNL     1      13.226  29.162 102.115  1.00  0.00    -0.039 NA
HETATM   24  O1  UNL     1      14.665  29.507 103.896  1.00  0.00    -0.250 OA
ATOM     25  H2  UNL     1      15.416  27.858 101.255  1.00  0.00     0.186 HD
ENDBRANCH  20  21
ENDBRANCH   1  20
BRANCH  17  26
HETATM   26  C9  UNL     1      20.303  28.460 102.798  1.00  0.00     0.171 C 
BRANCH  26  27
HETATM   27  O3  UNL     1      19.705  29.209 101.809  1.00  0.00    -0.391 OA
ATOM     28  H3  UNL     1      20.240  29.947 101.539  1.00  0.00     0.210 HD
ENDBRANCH  26  27
BRANCH  26  29
HETATM   29  C10 UNL     1      21.824  28.658 102.714  1.00  0.00     0.198 C 
BRANCH  29  30
HETATM   30  O4  UNL     1      22.211  28.910 101.406  1.00  0.00    -0.398 OA
ATOM     31  H4  UNL     1      23.033  29.386 101.387  1.00  0.00     0.209 HD
ENDBRANCH  29  30
ENDBRANCH  26  29
ENDBRANCH  17  26
TORSDOF 6
ENDMDL
MODEL 5
REMARK VINA RESULT: -6.493586571      1.970      2.809
REMARK  6 active torsions:
REMARK  status: ('A' for Active; 'I' for Inactive)
REMARK       I    between atoms: C1_2  and  N2_4 
REMARK    1  A    between atoms: N2_4  and  N3_6 
REMARK    2  A    between atoms: N3_6  and  C2_7 
REMARK    3  A    between atoms: C8_23  and  C9_24 
REMARK    4  A    between atoms: C9_24  and  O3_25 
REMARK    5  A    between atoms: C9_24  and  C10_27 
REMARK    6  A    between atoms: C10_27  and  O4_28 
ROOT
HETATM    1  C2  UNL     1      21.806  28.180 101.878  1.00  0.00     0.369 C 
HETATM    2  N4  UNL     1      21.872  28.755 103.219  1.00  0.00    -0.047 N 
ATOM      3  H41 UNL     1      22.560  29.503 103.299  1.00  0.00     0.279 HD
ATOM      4  H42 UNL     1      22.283  28.122 103.904  1.00  0.00     0.279 HD
HETATM    5  C3  UNL     1      20.558  29.168 103.563  1.00  0.00     0.254 C 
HETATM    6  C4  UNL     1      20.400  30.384 104.412  1.00  0.00     0.151 C 
HETATM    7  N5  UNL     1      18.985  30.537 104.700  1.00  0.00    -0.351 N 
ATOM      8  H5  UNL     1      18.671  31.478 104.941  1.00  0.00     0.163 HD
HETATM    9  C5  UNL     1      17.980  29.518 104.683  1.00  0.00     0.262 C 
HETATM   10  N6  UNL     1      17.210  29.540 105.931  1.00  0.00    -0.049 NA
HETATM   11  N7  UNL     1      17.705  28.710 103.837  1.00  0.00    -0.381 NA
HETATM   12  C6  UNL     1      17.366  27.788 102.915  1.00  0.00     0.260 C 
HETATM   13  C7  UNL     1      17.828  26.384 103.095  1.00  0.00     0.271 C 
HETATM   14  O2  UNL     1      17.083  25.714 103.914  1.00  0.00    -0.266 OA
HETATM   15  N8  UNL     1      18.938  25.754 102.491  1.00  0.00    -0.341 N 
ATOM     16  H8  UNL     1      18.711  24.921 101.948  1.00  0.00     0.163 HD
HETATM   17  C8  UNL     1      20.319  26.089 102.511  1.00  0.00     0.189 C 
HETATM   18  C11 UNL     1      20.734  27.219 101.644  1.00  0.00     0.200 C 
HETATM   19  O5  UNL     1      20.072  27.323 100.621  1.00  0.00    -0.292 OA
ENDROOT
BRANCH   1  20
HETATM   20  N3  UNL     1      23.102  27.746 101.402  1.00  0.00    -0.096 NA
BRANCH  20  21
HETATM   21  N2  UNL     1      23.980  27.542 102.470  1.00  0.00    -0.256 N 
HETATM   22  C1  UNL     1      24.722  26.341 102.624  1.00  0.00     0.344 C 
HETATM   23  N1  UNL     1      25.612  26.131 103.706  1.00  0.00    -0.039 NA
HETATM   24  O1  UNL     1      24.569  25.444 101.756  1.00  0.00    -0.250 OA
ATOM     25  H2  UNL     1      24.091  28.281 103.163  1.00  0.00     0.186 HD
ENDBRANCH  20  21
ENDBRANCH   1  20
BRANCH  17  26
HETATM   26  C9  UNL     1      21.105  24.878 101.960  1.00  0.00     0.171 C 
BRANCH  26  27
HETATM   27  O3  UNL     1      21.823  25.189 100.826  1.00  0.00    -0.391 OA
ATOM     28  H3  UNL     1      22.570  24.616 100.701  1.00  0.00     0.210 HD
ENDBRANCH  26  27
BRANCH  26  29
HETATM   29  C10 UNL     1      20.105  23.762 101.618  1.00  0.00     0.198 C 
BRANCH  29  30
HETATM   30  O4  UNL     1      20.019  22.850 102.660  1.00  0.00    -0.398 OA
ATOM     31  H4  UNL     1      19.139  22.501 102.726  1.00  0.00     0.209 HD
ENDBRANCH  29  30
ENDBRANCH  26  29
ENDBRANCH  17  26
TORSDOF 6
ENDMDL
