MODEL 1
REMARK VINA RESULT: -6.881752958      0.000      0.000
REMARK  9 active torsions:
REMARK  status: ('A' for Active; 'I' for Inactive)
REMARK    1  A    between atoms: N1_1  and  C1_4 
REMARK    2  A    between atoms: N3_9  and  C3_10 
REMARK    3  A    between atoms: C4_11  and  O2_12 
REMARK    4  A    between atoms: C5_14  and  O3_15 
REMARK    5  A    between atoms: C6_17  and  N4_18 
REMARK       I    between atoms: N5_22  and  C7_23 
REMARK       I    between atoms: C7_23  and  N6_25 
REMARK    6  A    between atoms: N6_25  and  N7_26 
REMARK    7  A    between atoms: C8_31  and  C9_32 
REMARK    8  A    between atoms: C9_32  and  O5_33 
REMARK    9  A    between atoms: C9_32  and  O6_35 
ROOT
HETATM    1  C3  UNL     1      18.520  26.804 101.204  1.00  0.00     0.252 C 
HETATM    2  C4  UNL     1      18.329  26.361  99.767  1.00  0.00     0.195 C 
HETATM    3  C5  UNL     1      17.480  25.132  99.874  1.00  0.00     0.201 C 
HETATM    4  C6  UNL     1      17.737  24.635 101.277  1.00  0.00     0.322 C 
HETATM    5  N5  UNL     1      17.807  25.869 102.009  1.00  0.00    -0.264 N 
HETATM    6  C7  UNL     1      17.252  26.123 103.295  1.00  0.00     0.417 C 
HETATM    7  O4  UNL     1      16.678  25.126 103.825  1.00  0.00    -0.228 OA
HETATM    8  N6  UNL     1      17.360  27.352 103.852  1.00  0.00    -0.272 NA
ENDROOT
BRANCH   1   9
HETATM    9  N3  UNL     1      19.962  26.847 101.510  1.00  0.00    -0.215 N 
HETATM   10  C2  UNL     1      20.507  27.941 102.049  1.00  0.00     0.344 A 
HETATM   11  N2  UNL     1      21.797  28.070 102.336  1.00  0.00    -0.292 N 
HETATM   12  O1  UNL     1      19.747  28.942 102.308  1.00  0.00    -0.245 OA
HETATM   13  C1  UNL     1      22.670  27.018 102.077  1.00  0.00     0.132 A 
ATOM     14  H2  UNL     1      22.147  28.937 102.746  1.00  0.00     0.172 HD
HETATM   15  C8  UNL     1      22.099  25.900 101.525  1.00  0.00     0.124 A 
HETATM   16  N8  UNL     1      20.747  25.842 101.254  1.00  0.00    -0.288 N 
ATOM     17  H8  UNL     1      20.356  24.994 100.844  1.00  0.00     0.187 HD
BRANCH  13  18
HETATM   18  N1  UNL     1      23.861  27.214 102.357  1.00  0.00    -0.384 N 
ATOM     19  H12 UNL     1      24.407  28.067 102.237  1.00  0.00     0.157 HD
ATOM     20  H11 UNL     1      24.361  26.428 102.774  1.00  0.00     0.157 HD
ENDBRANCH  13  18
BRANCH  15  21
HETATM   21  C9  UNL     1      22.917  24.708 101.211  1.00  0.00     0.310 C 
BRANCH  21  22
HETATM   22  O5  UNL     1      23.334  24.075 102.407  1.00  0.00    -0.366 OA
ATOM     23  H5  UNL     1      23.766  23.253 102.208  1.00  0.00     0.213 HD
ENDBRANCH  21  22
BRANCH  21  24
HETATM   24  O6  UNL     1      24.038  25.028 100.501  1.00  0.00    -0.366 OA
ATOM     25  H6  UNL     1      24.825  24.957 101.027  1.00  0.00     0.213 HD
ENDBRANCH  21  24
ENDBRANCH  15  21
ENDBRANCH   1   9
BRANCH   2  26
HETATM   26  O2  UNL     1      19.548  25.995  99.193  1.00  0.00    -0.389 OA
ATOM     27  H2  UNL     1      19.645  25.051  99.179  1.00  0.00     0.210 HD
ENDBRANCH   2  26
BRANCH   3  28
HETATM   28  O3  UNL     1      17.962  24.193  98.961  1.00  0.00    -0.389 OA
ATOM     29  H3  UNL     1      17.410  23.422  99.013  1.00  0.00     0.210 HD
ENDBRANCH   3  28
BRANCH   4  30
HETATM   30  N4  UNL     1      16.675  23.765 101.745  1.00  0.00    -0.055 N 
ATOM     31  H43 UNL     1      16.059  23.489 100.981  1.00  0.00     0.276 HD
ATOM     32  H42 UNL     1      17.035  22.845 102.001  1.00  0.00     0.276 HD
ATOM     33  H41 UNL     1      16.150  24.185 102.513  1.00  0.00     0.276 HD
ENDBRANCH   4  30
BRANCH   8  34
HETATM   34  N7  UNL     1      17.467  28.567 104.403  1.00  0.00    -0.275 N 
ATOM     35  H72 UNL     1      17.365  27.649 103.969  1.00  0.00     0.191 HD
ATOM     36  H71 UNL     1      17.549  29.492 104.823  1.00  0.00     0.191 HD
ENDBRANCH   8  34
TORSDOF 9
ENDMDL
MODEL 2
REMARK VINA RESULT: -6.787306630      2.140      2.773
REMARK  9 active torsions:
REMARK  status: ('A' for Active; 'I' for Inactive)
REMARK    1  A    between atoms: N1_1  and  C1_4 
REMARK    2  A    between atoms: N3_9  and  C3_10 
REMARK    3  A    between atoms: C4_11  and  O2_12 
REMARK    4  A    between atoms: C5_14  and  O3_15 
REMARK    5  A    between atoms: C6_17  and  N4_18 
REMARK       I    between atoms: N5_22  and  C7_23 
REMARK       I    between atoms: C7_23  and  N6_25 
REMARK    6  A    between atoms: N6_25  and  N7_26 
REMARK    7  A    between atoms: C8_31  and  C9_32 
REMARK    8  A    between atoms: C9_32  and  O5_33 
REMARK    9  A    between atoms: C9_32  and  O6_35 
ROOT
HETATM    1  C3  UNL     1      18.265  25.223 101.271  1.00  0.00     0.252 C 
HETATM    2  C4  UNL     1      18.365  25.253  99.758  1.00  0.00     0.195 C 
HETATM    3  C5  UNL     1      18.903  23.902  99.402  1.00  0.00     0.201 C 
HETATM    4  C6  UNL     1      19.605  23.448 100.659  1.00  0.00     0.322 C 
HETATM    5  N5  UNL     1      18.714  23.933 101.676  1.00  0.00    -0.264 N 
HETATM    6  C7  UNL     1      18.331  23.248 102.863  1.00  0.00     0.417 C 
HETATM    7  O4  UNL     1      18.879  22.116 103.017  1.00  0.00    -0.228 OA
HETATM    8  N6  UNL     1      17.447  23.812 103.719  1.00  0.00    -0.272 NA
ENDROOT
BRANCH   1   9
HETATM    9  N3  UNL     1      19.077  26.319 101.831  1.00  0.00    -0.215 N 
HETATM   10  C2  UNL     1      18.538  27.190 102.689  1.00  0.00     0.344 A 
HETATM   11  N2  UNL     1      19.193  28.215 103.224  1.00  0.00    -0.292 N 
HETATM   12  O1  UNL     1      17.310  27.041 103.025  1.00  0.00    -0.245 OA
HETATM   13  C1  UNL     1      20.528  28.428 102.896  1.00  0.00     0.132 A 
ATOM     14  H2  UNL     1      18.718  28.844 103.872  1.00  0.00     0.172 HD
HETATM   15  C8  UNL     1      21.070  27.527 102.016  1.00  0.00     0.124 A 
HETATM   16  N8  UNL     1      20.325  26.485 101.501  1.00  0.00    -0.288 N 
ATOM     17  H8  UNL     1      20.760  25.833 100.849  1.00  0.00     0.187 HD
BRANCH  13  18
HETATM   18  N1  UNL     1      21.070  29.410 103.421  1.00  0.00    -0.384 N 
ATOM     19  H12 UNL     1      20.765  29.940 104.238  1.00  0.00     0.157 HD
ATOM     20  H11 UNL     1      21.940  29.727 102.993  1.00  0.00     0.157 HD
ENDBRANCH  13  18
BRANCH  15  21
HETATM   21  C9  UNL     1      22.484  27.635 101.595  1.00  0.00     0.310 C 
BRANCH  21  22
HETATM   22  O5  UNL     1      23.338  27.485 102.715  1.00  0.00    -0.366 OA
ATOM     23  H5  UNL     1      23.017  28.003 103.443  1.00  0.00     0.213 HD
ENDBRANCH  21  22
BRANCH  21  24
HETATM   24  O6  UNL     1      22.758  28.846 101.028  1.00  0.00    -0.366 OA
ATOM     25  H6  UNL     1      22.941  28.771 100.099  1.00  0.00     0.213 HD
ENDBRANCH  21  24
ENDBRANCH  15  21
ENDBRANCH   1   9
BRANCH   2  26
HETATM   26  O2  UNL     1      19.291  26.210  99.339  1.00  0.00    -0.389 OA
ATOM     27  H2  UNL     1      19.617  26.711 100.077  1.00  0.00     0.210 HD
ENDBRANCH   2  26
BRANCH   3  28
HETATM   28  O3  UNL     1      19.845  24.065  98.385  1.00  0.00    -0.389 OA
ATOM     29  H3  UNL     1      20.648  23.636  98.655  1.00  0.00     0.210 HD
ENDBRANCH   3  28
BRANCH   4  30
HETATM   30  N4  UNL     1      19.768  22.007 100.698  1.00  0.00    -0.055 N 
ATOM     31  H43 UNL     1      19.577  21.588  99.788  1.00  0.00     0.276 HD
ATOM     32  H42 UNL     1      20.750  21.746 100.790  1.00  0.00     0.276 HD
ATOM     33  H41 UNL     1      19.200  21.580 101.430  1.00  0.00     0.276 HD
ENDBRANCH   4  30
BRANCH   8  34
HETATM   34  N7  UNL     1      16.573  24.370 104.565  1.00  0.00    -0.275 N 
ATOM     35  H72 UNL     1      17.259  23.956 103.933  1.00  0.00     0.191 HD
ATOM     36  H71 UNL     1      15.906  24.795 105.209  1.00  0.00     0.191 HD
ENDBRANCH   8  34
TORSDOF 9
ENDMDL
MODEL 3
REMARK VINA RESULT: -6.346113702      2.702      4.153
REMARK  9 active torsions:
REMARK  status: ('A' for Active; 'I' for Inactive)
REMARK    1  A    between atoms: N1_1  and  C1_4 
REMARK    2  A    between atoms: N3_9  and  C3_10 
REMARK    3  A    between atoms: C4_11  and  O2_12 
REMARK    4  A    between atoms: C5_14  and  O3_15 
REMARK    5  A    between atoms: C6_17  and  N4_18 
REMARK       I    between atoms: N5_22  and  C7_23 
REMARK       I    between atoms: C7_23  and  N6_25 
REMARK    6  A    between atoms: N6_25  and  N7_26 
REMARK    7  A    between atoms: C8_31  and  C9_32 
REMARK    8  A    between atoms: C9_32  and  O5_33 
REMARK    9  A    between atoms: C9_32  and  O6_35 
ROOT
HETATM    1  C3  UNL     1      19.850  23.871 100.542  1.00  0.00     0.252 C 
HETATM    2  C4  UNL     1      19.547  24.177  99.088  1.00  0.00     0.195 C 
HETATM    3  C5  UNL     1      20.518  23.329  98.327  1.00  0.00     0.201 C 
HETATM    4  C6  UNL     1      21.637  23.085  99.312  1.00  0.00     0.322 C 
HETATM    5  N5  UNL     1      20.907  22.915 100.538  1.00  0.00    -0.264 N 
HETATM    6  C7  UNL     1      21.173  21.956 101.555  1.00  0.00     0.417 C 
HETATM    7  O4  UNL     1      22.183  21.223 101.336  1.00  0.00    -0.228 OA
HETATM    8  N6  UNL     1      20.374  21.882 102.646  1.00  0.00    -0.272 NA
ENDROOT
BRANCH   1   9
HETATM    9  N3  UNL     1      20.207  25.121 101.237  1.00  0.00    -0.215 N 
HETATM   10  C2  UNL     1      19.374  25.660 102.131  1.00  0.00     0.344 A 
HETATM   11  N2  UNL     1      19.609  26.793 102.785  1.00  0.00    -0.292 N 
HETATM   12  O1  UNL     1      18.269  25.059 102.382  1.00  0.00    -0.245 OA
HETATM   13  C1  UNL     1      20.790  27.490 102.554  1.00  0.00     0.132 A 
ATOM     14  H2  UNL     1      18.926  27.149 103.454  1.00  0.00     0.172 HD
HETATM   15  C8  UNL     1      21.638  26.926 101.635  1.00  0.00     0.124 A 
HETATM   16  N8  UNL     1      21.323  25.745 100.995  1.00  0.00    -0.288 N 
ATOM     17  H8  UNL     1      21.978  25.354 100.317  1.00  0.00     0.187 HD
BRANCH  13  18
HETATM   18  N1  UNL     1      20.936  28.544 103.189  1.00  0.00    -0.384 N 
ATOM     19  H12 UNL     1      21.025  28.668 104.197  1.00  0.00     0.157 HD
ATOM     20  H11 UNL     1      20.986  29.400 102.635  1.00  0.00     0.157 HD
ENDBRANCH  13  18
BRANCH  15  21
HETATM   21  C9  UNL     1      22.933  27.564 101.307  1.00  0.00     0.310 C 
BRANCH  21  22
HETATM   22  O5  UNL     1      23.797  27.516 102.428  1.00  0.00    -0.366 OA
ATOM     23  H5  UNL     1      24.625  27.933 102.221  1.00  0.00     0.213 HD
ENDBRANCH  21  22
BRANCH  21  24
HETATM   24  O6  UNL     1      22.784  28.875 100.958  1.00  0.00    -0.366 OA
ATOM     25  H6  UNL     1      23.530  29.201 100.469  1.00  0.00     0.213 HD
ENDBRANCH  21  24
ENDBRANCH  15  21
ENDBRANCH   1   9
BRANCH   2  26
HETATM   26  O2  UNL     1      19.820  25.515  98.795  1.00  0.00    -0.389 OA
ATOM     27  H2  UNL     1      19.315  25.807  98.046  1.00  0.00     0.210 HD
ENDBRANCH   2  26
BRANCH   3  28
HETATM   28  O3  UNL     1      21.006  24.083  97.258  1.00  0.00    -0.389 OA
ATOM     29  H3  UNL     1      20.475  24.867  97.185  1.00  0.00     0.210 HD
ENDBRANCH   3  28
BRANCH   4  30
HETATM   30  N4  UNL     1      22.421  21.916  98.960  1.00  0.00    -0.055 N 
ATOM     31  H43 UNL     1      23.408  22.150  98.857  1.00  0.00     0.276 HD
ATOM     32  H42 UNL     1      22.492  21.267  99.743  1.00  0.00     0.276 HD
ATOM     33  H41 UNL     1      22.060  21.454  98.125  1.00  0.00     0.276 HD
ENDBRANCH   4  30
BRANCH   8  34
HETATM   34  N7  UNL     1      19.585  21.809 103.724  1.00  0.00    -0.275 N 
ATOM     35  H72 UNL     1      20.205  21.850 102.915  1.00  0.00     0.191 HD
ATOM     36  H71 UNL     1      18.984  21.753 104.546  1.00  0.00     0.191 HD
ENDBRANCH   8  34
TORSDOF 9
ENDMDL
MODEL 4
REMARK VINA RESULT: -6.165972588      2.128      4.367
REMARK  9 active torsions:
REMARK  status: ('A' for Active; 'I' for Inactive)
REMARK    1  A    between atoms: N1_1  and  C1_4 
REMARK    2  A    between atoms: N3_9  and  C3_10 
REMARK    3  A    between atoms: C4_11  and  O2_12 
REMARK    4  A    between atoms: C5_14  and  O3_15 
REMARK    5  A    between atoms: C6_17  and  N4_18 
REMARK       I    between atoms: N5_22  and  C7_23 
REMARK       I    between atoms: C7_23  and  N6_25 
REMARK    6  A    between atoms: N6_25  and  N7_26 
REMARK    7  A    between atoms: C8_31  and  C9_32 
REMARK    8  A    between atoms: C9_32  and  O5_33 
REMARK    9  A    between atoms: C9_32  and  O6_35 
ROOT
HETATM    1  C3  UNL     1      18.657  24.490 100.980  1.00  0.00     0.252 C 
HETATM    2  C4  UNL     1      18.775  24.945  99.538  1.00  0.00     0.195 C 
HETATM    3  C5  UNL     1      20.111  24.429  99.101  1.00  0.00     0.201 C 
HETATM    4  C6  UNL     1      20.877  24.266 100.393  1.00  0.00     0.322 C 
HETATM    5  N5  UNL     1      19.853  23.773 101.272  1.00  0.00    -0.264 N 
HETATM    6  C7  UNL     1      19.996  22.744 102.245  1.00  0.00     0.417 C 
HETATM    7  O4  UNL     1      21.166  22.267 102.336  1.00  0.00    -0.228 OA
HETATM    8  N6  UNL     1      18.931  22.351 102.981  1.00  0.00    -0.272 NA
ENDROOT
BRANCH   1   9
HETATM    9  N3  UNL     1      18.464  25.668 101.846  1.00  0.00    -0.215 N 
HETATM   10  C2  UNL     1      17.271  25.917 102.393  1.00  0.00     0.344 A 
HETATM   11  N2  UNL     1      17.009  26.964 103.167  1.00  0.00    -0.292 N 
HETATM   12  O1  UNL     1      16.308  25.103 102.163  1.00  0.00    -0.245 OA
HETATM   13  C1  UNL     1      18.014  27.882 103.452  1.00  0.00     0.132 A 
ATOM     14  H2  UNL     1      16.072  27.095 103.551  1.00  0.00     0.172 HD
HETATM   15  C8  UNL     1      19.234  27.614 102.885  1.00  0.00     0.124 A 
HETATM   16  N8  UNL     1      19.431  26.504 102.090  1.00  0.00    -0.288 N 
ATOM     17  H8  UNL     1      20.352  26.335 101.685  1.00  0.00     0.187 HD
BRANCH  13  18
HETATM   18  N1  UNL     1      17.694  28.840 104.168  1.00  0.00    -0.384 N 
ATOM     19  H12 UNL     1      16.828  28.978 104.691  1.00  0.00     0.157 HD
ATOM     20  H11 UNL     1      18.385  29.585 104.261  1.00  0.00     0.157 HD
ENDBRANCH  13  18
BRANCH  15  21
HETATM   21  C9  UNL     1      20.391  28.507 103.119  1.00  0.00     0.310 C 
BRANCH  21  22
HETATM   22  O5  UNL     1      20.251  29.695 102.361  1.00  0.00    -0.366 OA
ATOM     23  H5  UNL     1      20.631  29.578 101.498  1.00  0.00     0.213 HD
ENDBRANCH  21  22
BRANCH  21  24
HETATM   24  O6  UNL     1      21.570  27.923 102.756  1.00  0.00    -0.366 OA
ATOM     25  H6  UNL     1      21.983  27.472 103.483  1.00  0.00     0.213 HD
ENDBRANCH  21  24
ENDBRANCH  15  21
ENDBRANCH   1   9
BRANCH   2  26
HETATM   26  O2  UNL     1      18.803  26.339  99.458  1.00  0.00    -0.389 OA
ATOM     27  H2  UNL     1      18.490  26.636  98.612  1.00  0.00     0.210 HD
ENDBRANCH   2  26
BRANCH   3  28
HETATM   28  O3  UNL     1      20.723  25.416  98.327  1.00  0.00    -0.389 OA
ATOM     29  H3  UNL     1      21.318  24.989  97.722  1.00  0.00     0.210 HD
ENDBRANCH   3  28
BRANCH   4  30
HETATM   30  N4  UNL     1      21.986  23.342 100.249  1.00  0.00    -0.055 N 
ATOM     31  H43 UNL     1      22.495  23.505  99.382  1.00  0.00     0.276 HD
ATOM     32  H42 UNL     1      22.731  23.551 100.914  1.00  0.00     0.276 HD
ATOM     33  H41 UNL     1      21.683  22.370 100.325  1.00  0.00     0.276 HD
ENDBRANCH   4  30
BRANCH   8  34
HETATM   34  N7  UNL     1      17.878  21.962 103.709  1.00  0.00    -0.275 N 
ATOM     35  H72 UNL     1      18.676  22.239 103.137  1.00  0.00     0.191 HD
ATOM     36  H71 UNL     1      17.075  21.666 104.264  1.00  0.00     0.191 HD
ENDBRANCH   8  34
TORSDOF 9
ENDMDL
MODEL 5
REMARK VINA RESULT: -6.066393649      3.122      5.719
REMARK  9 active torsions:
REMARK  status: ('A' for Active; 'I' for Inactive)
REMARK    1  A    between atoms: N1_1  and  C1_4 
REMARK    2  A    between atoms: N3_9  and  C3_10 
REMARK    3  A    between atoms: C4_11  and  O2_12 
REMARK    4  A    between atoms: C5_14  and  O3_15 
REMARK    5  A    between atoms: C6_17  and  N4_18 
REMARK       I    between atoms: N5_22  and  C7_23 
REMARK       I    between atoms: C7_23  and  N6_25 
REMARK    6  A    between atoms: N6_25  and  N7_26 
REMARK    7  A    between atoms: C8_31  and  C9_32 
REMARK    8  A    between atoms: C9_32  and  O5_33 
REMARK    9  A    between atoms: C9_32  and  O6_35 
ROOT
HETATM    1  C3  UNL     1      15.924  23.269 103.143  1.00  0.00     0.252 C 
HETATM    2  C4  UNL     1      15.687  23.128 104.634  1.00  0.00     0.195 C 
HETATM    3  C5  UNL     1      14.230  23.431 104.802  1.00  0.00     0.201 C 
HETATM    4  C6  UNL     1      13.891  24.265 103.589  1.00  0.00     0.322 C 
HETATM    5  N5  UNL     1      14.666  23.615 102.569  1.00  0.00    -0.264 N 
HETATM    6  C7  UNL     1      14.252  23.344 101.234  1.00  0.00     0.417 C 
HETATM    7  O4  UNL     1      13.092  23.766 100.948  1.00  0.00    -0.228 OA
HETATM    8  N6  UNL     1      15.076  22.685 100.387  1.00  0.00    -0.272 NA
ENDROOT
BRANCH   1   9
HETATM    9  N3  UNL     1      16.963  24.290 102.911  1.00  0.00    -0.215 N 
HETATM   10  C2  UNL     1      18.223  23.926 102.657  1.00  0.00     0.344 A 
HETATM   11  N2  UNL     1      19.221  24.780 102.457  1.00  0.00    -0.292 N 
HETATM   12  O1  UNL     1      18.503  22.676 102.603  1.00  0.00    -0.245 OA
HETATM   13  C1  UNL     1      18.979  26.149 102.505  1.00  0.00     0.132 A 
ATOM     14  H2  UNL     1      20.162  24.433 102.269  1.00  0.00     0.172 HD
HETATM   15  C8  UNL     1      17.681  26.509 102.765  1.00  0.00     0.124 A 
HETATM   16  N8  UNL     1      16.697  25.562 102.963  1.00  0.00    -0.288 N 
ATOM     17  H8  UNL     1      15.742  25.866 103.154  1.00  0.00     0.187 HD
BRANCH  13  18
HETATM   18  N1  UNL     1      19.959  26.884 102.323  1.00  0.00    -0.384 N 
ATOM     19  H12 UNL     1      20.927  26.616 102.144  1.00  0.00     0.157 HD
ATOM     20  H11 UNL     1      19.778  27.889 102.341  1.00  0.00     0.157 HD
ENDBRANCH  13  18
BRANCH  15  21
HETATM   21  C9  UNL     1      17.289  27.934 102.832  1.00  0.00     0.310 C 
BRANCH  21  22
HETATM   22  O5  UNL     1      17.472  28.549 101.569  1.00  0.00    -0.366 OA
ATOM     23  H5  UNL     1      16.858  28.192 100.939  1.00  0.00     0.213 HD
ENDBRANCH  21  22
BRANCH  21  24
HETATM   24  O6  UNL     1      18.035  28.629 103.740  1.00  0.00    -0.366 OA
ATOM     25  H6  UNL     1      17.746  28.474 104.631  1.00  0.00     0.213 HD
ENDBRANCH  21  24
ENDBRANCH  15  21
ENDBRANCH   1   9
BRANCH   2  26
HETATM   26  O2  UNL     1      16.412  24.087 105.345  1.00  0.00    -0.389 OA
ATOM     27  H2  UNL     1      17.122  23.683 105.830  1.00  0.00     0.210 HD
ENDBRANCH   2  26
BRANCH   3  28
HETATM   28  O3  UNL     1      14.080  24.211 105.950  1.00  0.00    -0.389 OA
ATOM     29  H3  UNL     1      13.328  24.778 105.824  1.00  0.00     0.210 HD
ENDBRANCH   3  28
BRANCH   4  30
HETATM   30  N4  UNL     1      12.468  24.252 103.306  1.00  0.00    -0.055 N 
ATOM     31  H43 UNL     1      12.289  24.332 102.305  1.00  0.00     0.276 HD
ATOM     32  H42 UNL     1      12.066  23.328 103.466  1.00  0.00     0.276 HD
ATOM     33  H41 UNL     1      11.969  24.970 103.832  1.00  0.00     0.276 HD
ENDBRANCH   4  30
BRANCH   8  34
HETATM   34  N7  UNL     1      15.891  22.034  99.549  1.00  0.00    -0.275 N 
ATOM     35  H72 UNL     1      15.279  22.553 100.178  1.00  0.00     0.191 HD
ATOM     36  H71 UNL     1      16.512  21.537  98.910  1.00  0.00     0.191 HD
ENDBRANCH   8  34
TORSDOF 9
ENDMDL
