MODEL 1
REMARK VINA RESULT: -4.390545318      0.000      0.000
REMARK  1 active torsions:
REMARK  status: ('A' for Active; 'I' for Inactive)
REMARK    1  A    between atoms: N1_2  and  C2_5 
ROOT
HETATM    1  C2  UNL     1      13.036   3.089  24.921  1.00  0.00     0.189 C 
HETATM    2  C3  UNL     1      12.814   2.932  26.407  1.00  0.00     0.038 C 
HETATM    3  C4  UNL     1      13.738   1.816  26.838  1.00  0.00    -0.012 C 
HETATM    4  C5  UNL     1      13.032   0.515  26.532  1.00  0.00     0.005 C 
HETATM    5  C6  UNL     1      12.914   0.597  25.005  1.00  0.00     0.007 C 
HETATM    6  C7  UNL     1      13.705   1.787  24.571  1.00  0.00     0.016 C 
HETATM    7  C8  UNL     1      14.768   1.819  25.691  1.00  0.00     0.011 C 
ENDROOT
BRANCH   1   8
HETATM    8  N1  UNL     1      11.867   3.399  24.175  1.00  0.00    -0.074 N 
HETATM    9  C1  UNL     1      11.739   4.850  24.155  1.00  0.00     0.267 C 
ATOM     10  H12 UNL     1      11.033   2.930  24.528  1.00  0.00     0.277 HD
ATOM     11  H11 UNL     1      11.866   2.986  23.242  1.00  0.00     0.277 HD
ENDBRANCH   1   8
TORSDOF 1
ENDMDL
MODEL 2
REMARK VINA RESULT: -4.182344499      3.342      4.866
REMARK  1 active torsions:
REMARK  status: ('A' for Active; 'I' for Inactive)
REMARK    1  A    between atoms: N1_2  and  C2_5 
ROOT
HETATM    1  C2  UNL     1      13.041   7.190  25.435  1.00  0.00     0.189 C 
HETATM    2  C3  UNL     1      12.792   6.685  24.034  1.00  0.00     0.038 C 
HETATM    3  C4  UNL     1      11.566   5.806  24.133  1.00  0.00    -0.012 C 
HETATM    4  C5  UNL     1      12.034   4.449  24.607  1.00  0.00     0.005 C 
HETATM    5  C6  UNL     1      12.596   4.798  25.990  1.00  0.00     0.007 C 
HETATM    6  C7  UNL     1      12.236   6.222  26.259  1.00  0.00     0.016 C 
HETATM    7  C8  UNL     1      10.931   6.323  25.439  1.00  0.00     0.011 C 
ENDROOT
BRANCH   1   8
HETATM    8  N1  UNL     1      14.412   7.308  25.790  1.00  0.00    -0.074 N 
HETATM    9  C1  UNL     1      14.465   7.853  27.140  1.00  0.00     0.267 C 
ATOM     10  H12 UNL     1      14.952   7.852  25.118  1.00  0.00     0.277 HD
ATOM     11  H11 UNL     1      14.926   6.431  25.693  1.00  0.00     0.277 HD
ENDBRANCH   1   8
TORSDOF 1
ENDMDL
MODEL 3
REMARK VINA RESULT: -4.142047223      1.687      2.540
REMARK  1 active torsions:
REMARK  status: ('A' for Active; 'I' for Inactive)
REMARK    1  A    between atoms: N1_2  and  C2_5 
ROOT
HETATM    1  C2  UNL     1      12.786   0.954  25.394  1.00  0.00     0.189 C 
HETATM    2  C3  UNL     1      13.090  -0.344  26.105  1.00  0.00     0.038 C 
HETATM    3  C4  UNL     1      13.501   0.050  27.505  1.00  0.00    -0.012 C 
HETATM    4  C5  UNL     1      14.962   0.432  27.445  1.00  0.00     0.005 C 
HETATM    5  C6  UNL     1      14.911   1.644  26.506  1.00  0.00     0.007 C 
HETATM    6  C7  UNL     1      13.468   1.959  26.281  1.00  0.00     0.016 C 
HETATM    7  C8  UNL     1      12.878   1.455  27.617  1.00  0.00     0.011 C 
ENDROOT
BRANCH   1   8
HETATM    8  N1  UNL     1      13.167   0.984  24.025  1.00  0.00    -0.074 N 
HETATM    9  C1  UNL     1      12.419   2.062  23.391  1.00  0.00     0.267 C 
ATOM     10  H12 UNL     1      13.046   0.086  23.557  1.00  0.00     0.277 HD
ATOM     11  H11 UNL     1      14.175   1.067  23.893  1.00  0.00     0.277 HD
ENDBRANCH   1   8
TORSDOF 1
ENDMDL
MODEL 4
REMARK VINA RESULT: -4.080922063      1.248      1.373
REMARK  1 active torsions:
REMARK  status: ('A' for Active; 'I' for Inactive)
REMARK    1  A    between atoms: N1_2  and  C2_5 
ROOT
HETATM    1  C2  UNL     1      13.453   2.829  26.335  1.00  0.00     0.189 C 
HETATM    2  C3  UNL     1      12.855   1.975  27.429  1.00  0.00     0.038 C 
HETATM    3  C4  UNL     1      13.565   0.644  27.334  1.00  0.00    -0.012 C 
HETATM    4  C5  UNL     1      12.872  -0.149  26.250  1.00  0.00     0.005 C 
HETATM    5  C6  UNL     1      13.147   0.729  25.023  1.00  0.00     0.007 C 
HETATM    6  C7  UNL     1      14.099   1.795  25.455  1.00  0.00     0.016 C 
HETATM    7  C8  UNL     1      14.847   1.040  26.576  1.00  0.00     0.011 C 
ENDROOT
BRANCH   1   8
HETATM    8  N1  UNL     1      12.531   3.697  25.689  1.00  0.00    -0.074 N 
HETATM    9  C1  UNL     1      12.753   5.036  26.220  1.00  0.00     0.267 C 
ATOM     10  H12 UNL     1      11.564   3.389  25.777  1.00  0.00     0.277 HD
ATOM     11  H11 UNL     1      12.591   3.657  24.671  1.00  0.00     0.277 HD
ENDBRANCH   1   8
TORSDOF 1
ENDMDL
MODEL 5
REMARK VINA RESULT: -4.067511058      1.821      2.236
REMARK  1 active torsions:
REMARK  status: ('A' for Active; 'I' for Inactive)
REMARK    1  A    between atoms: N1_2  and  C2_5 
ROOT
HETATM    1  C2  UNL     1      14.201   2.760  27.301  1.00  0.00     0.189 C 
HETATM    2  C3  UNL     1      12.899   2.009  27.460  1.00  0.00     0.038 C 
HETATM    3  C4  UNL     1      13.162   0.625  26.913  1.00  0.00    -0.012 C 
HETATM    4  C5  UNL     1      13.004   0.706  25.411  1.00  0.00     0.005 C 
HETATM    5  C6  UNL     1      14.130   1.683  25.050  1.00  0.00     0.007 C 
HETATM    6  C7  UNL     1      14.926   1.908  26.294  1.00  0.00     0.016 C 
HETATM    7  C8  UNL     1      14.699   0.553  27.000  1.00  0.00     0.011 C 
ENDROOT
BRANCH   1   8
HETATM    8  N1  UNL     1      14.057   4.131  26.957  1.00  0.00    -0.074 N 
HETATM    9  C1  UNL     1      12.639   4.452  27.044  1.00  0.00     0.267 C 
ATOM     10  H12 UNL     1      14.463   4.360  26.051  1.00  0.00     0.277 HD
ATOM     11  H11 UNL     1      14.641   4.747  27.523  1.00  0.00     0.277 HD
ENDBRANCH   1   8
TORSDOF 1
ENDMDL
