MODEL 1
REMARK VINA RESULT: -4.818852037      0.000      0.000
REMARK  1 active torsions:
REMARK  status: ('A' for Active; 'I' for Inactive)
REMARK    1  A    between atoms: C4_4  and  C5_5 
ROOT
HETATM    1  C5  UNL     1      12.801   3.271  25.656  1.00  0.00     0.190 C 
HETATM    2  C6  UNL     1      12.265   4.677  25.714  1.00  0.00     0.035 C 
HETATM    3  C7  UNL     1      12.339   4.913  27.230  1.00  0.00     0.029 C 
HETATM    4  C8  UNL     1      13.652   4.278  27.565  1.00  0.00     0.233 C 
HETATM    5  N1  UNL     1      14.030   3.439  26.442  1.00  0.00    -0.070 N 
ATOM      6  H11 UNL     1      14.816   3.802  25.904  1.00  0.00     0.277 HD
ATOM      7  H12 UNL     1      14.468   2.559  26.714  1.00  0.00     0.277 HD
ENDROOT
BRANCH   1   8
HETATM    8  C4  UNL     1      13.090   2.795  24.271  1.00  0.00     0.020 A 
HETATM    9  C2  UNL     1      13.213   1.312  24.112  1.00  0.00    -0.012 A 
HETATM   10  C1  UNL     1      12.784   0.376  25.194  1.00  0.00     0.010 C 
HETATM   11  C3  UNL     1      12.083   2.089  23.449  1.00  0.00     0.011 A 
ENDBRANCH   1   8
TORSDOF 1
ENDMDL
MODEL 2
REMARK VINA RESULT: -4.673504674      1.437      1.702
REMARK  1 active torsions:
REMARK  status: ('A' for Active; 'I' for Inactive)
REMARK    1  A    between atoms: C4_4  and  C5_5 
ROOT
HETATM    1  C5  UNL     1      12.317   3.823  24.916  1.00  0.00     0.190 C 
HETATM    2  C6  UNL     1      11.649   4.818  24.004  1.00  0.00     0.035 C 
HETATM    3  C7  UNL     1      11.202   5.854  25.047  1.00  0.00     0.029 C 
HETATM    4  C8  UNL     1      12.394   5.898  25.950  1.00  0.00     0.233 C 
HETATM    5  N1  UNL     1      13.200   4.725  25.665  1.00  0.00    -0.070 N 
ATOM      6  H11 UNL     1      14.077   4.935  25.188  1.00  0.00     0.277 HD
ATOM      7  H12 UNL     1      13.616   4.300  26.494  1.00  0.00     0.277 HD
ENDROOT
BRANCH   1   8
HETATM    8  C4  UNL     1      13.088   2.769  24.192  1.00  0.00     0.020 A 
HETATM    9  C2  UNL     1      13.607   1.652  25.042  1.00  0.00    -0.012 A 
HETATM   10  C1  UNL     1      13.134   1.460  26.445  1.00  0.00     0.010 C 
HETATM   11  C3  UNL     1      12.553   1.408  23.970  1.00  0.00     0.011 A 
ENDBRANCH   1   8
TORSDOF 1
ENDMDL
MODEL 3
REMARK VINA RESULT: -4.671480758      2.167      3.226
REMARK  1 active torsions:
REMARK  status: ('A' for Active; 'I' for Inactive)
REMARK    1  A    between atoms: C4_4  and  C5_5 
ROOT
HETATM    1  C5  UNL     1      13.255   1.010  25.848  1.00  0.00     0.190 C 
HETATM    2  C6  UNL     1      14.676   1.496  25.961  1.00  0.00     0.035 C 
HETATM    3  C7  UNL     1      14.920   1.218  27.452  1.00  0.00     0.029 C 
HETATM    4  C8  UNL     1      14.251  -0.109  27.619  1.00  0.00     0.233 C 
HETATM    5  N1  UNL     1      13.395  -0.315  26.466  1.00  0.00    -0.070 N 
ATOM      6  H11 UNL     1      13.732  -1.034  25.826  1.00  0.00     0.277 HD
ATOM      7  H12 UNL     1      12.504  -0.761  26.687  1.00  0.00     0.277 HD
ENDROOT
BRANCH   1   8
HETATM    8  C4  UNL     1      12.763   0.917  24.442  1.00  0.00     0.020 A 
HETATM    9  C2  UNL     1      12.138   2.162  23.894  1.00  0.00    -0.012 A 
HETATM   10  C1  UNL     1      12.273   3.472  24.598  1.00  0.00     0.010 C 
HETATM   11  C3  UNL     1      13.435   1.606  23.320  1.00  0.00     0.011 A 
ENDBRANCH   1   8
TORSDOF 1
ENDMDL
MODEL 4
REMARK VINA RESULT: -4.603061301      1.427      2.434
REMARK  1 active torsions:
REMARK  status: ('A' for Active; 'I' for Inactive)
REMARK    1  A    between atoms: C4_4  and  C5_5 
ROOT
HETATM    1  C5  UNL     1      12.658   2.544  25.241  1.00  0.00     0.190 C 
HETATM    2  C6  UNL     1      12.243   2.939  23.848  1.00  0.00     0.035 C 
HETATM    3  C7  UNL     1      11.652   4.326  24.146  1.00  0.00     0.029 C 
HETATM    4  C8  UNL     1      12.637   4.862  25.136  1.00  0.00     0.233 C 
HETATM    5  N1  UNL     1      13.419   3.740  25.624  1.00  0.00    -0.070 N 
ATOM      6  H11 UNL     1      14.384   3.737  25.294  1.00  0.00     0.277 HD
ATOM      7  H12 UNL     1      13.634   3.790  26.620  1.00  0.00     0.277 HD
ENDROOT
BRANCH   1   8
HETATM    8  C4  UNL     1      13.500   1.312  25.289  1.00  0.00     0.020 A 
HETATM    9  C2  UNL     1      13.678   0.707  26.646  1.00  0.00    -0.012 A 
HETATM   10  C1  UNL     1      12.835   1.132  27.803  1.00  0.00     0.010 C 
HETATM   11  C3  UNL     1      12.929  -0.028  25.542  1.00  0.00     0.011 A 
ENDBRANCH   1   8
TORSDOF 1
ENDMDL
MODEL 5
REMARK VINA RESULT: -4.571946586      1.127      1.541
REMARK  1 active torsions:
REMARK  status: ('A' for Active; 'I' for Inactive)
REMARK    1  A    between atoms: C4_4  and  C5_5 
ROOT
HETATM    1  C5  UNL     1      12.806   3.189  25.605  1.00  0.00     0.190 C 
HETATM    2  C6  UNL     1      12.248   4.137  24.576  1.00  0.00     0.035 C 
HETATM    3  C7  UNL     1      11.779   5.268  25.504  1.00  0.00     0.029 C 
HETATM    4  C8  UNL     1      12.906   5.333  26.485  1.00  0.00     0.233 C 
HETATM    5  N1  UNL     1      13.676   4.110  26.347  1.00  0.00    -0.070 N 
ATOM      6  H11 UNL     1      14.592   4.247  25.920  1.00  0.00     0.277 HD
ATOM      7  H12 UNL     1      14.013   3.733  27.233  1.00  0.00     0.277 HD
ENDROOT
BRANCH   1   8
HETATM    8  C4  UNL     1      13.575   2.052  25.018  1.00  0.00     0.020 A 
HETATM    9  C2  UNL     1      13.748   0.863  25.910  1.00  0.00    -0.012 A 
HETATM   10  C1  UNL     1      12.958   0.715  27.169  1.00  0.00     0.010 C 
HETATM   11  C3  UNL     1      12.933   0.779  24.626  1.00  0.00     0.011 A 
ENDBRANCH   1   8
TORSDOF 1
ENDMDL
