MODEL 1
REMARK VINA RESULT: -3.869390308      0.000      0.000
REMARK  1 active torsions:
REMARK  status: ('A' for Active; 'I' for Inactive)
REMARK    1  A    between atoms: C2_2  and  C3_3 
ROOT
HETATM    1  C3  UNL     1      11.937   3.099  24.230  1.00  0.00     0.102 C 
HETATM    2  N1  UNL     1      11.476   3.959  23.146  1.00  0.00    -0.173 NA
HETATM    3  S1  UNL     1      11.538   5.459  24.017  1.00  0.00    -0.059 SA
HETATM    4  C4  UNL     1      12.679   4.261  24.793  1.00  0.00     0.080 C 
HETATM    5  C5  UNL     1      12.600   4.435  26.293  1.00  0.00     0.024 C 
ENDROOT
BRANCH   1   6
HETATM    6  C2  UNL     1      12.738   1.980  23.652  1.00  0.00     0.019 C 
HETATM    7  C1  UNL     1      12.945   0.827  24.593  1.00  0.00     0.007 C 
ENDBRANCH   1   6
TORSDOF 1
ENDMDL
MODEL 2
REMARK VINA RESULT: -3.847112076      2.727      3.633
REMARK  1 active torsions:
REMARK  status: ('A' for Active; 'I' for Inactive)
REMARK    1  A    between atoms: C2_2  and  C3_3 
ROOT
HETATM    1  C3  UNL     1      12.802   3.204  25.675  1.00  0.00     0.102 C 
HETATM    2  N1  UNL     1      13.994   3.405  26.491  1.00  0.00    -0.173 NA
HETATM    3  S1  UNL     1      14.700   1.840  26.233  1.00  0.00    -0.059 SA
HETATM    4  C4  UNL     1      13.569   2.230  24.852  1.00  0.00     0.080 C 
HETATM    5  C5  UNL     1      12.836   0.963  24.468  1.00  0.00     0.024 C 
ENDROOT
BRANCH   1   6
HETATM    6  C2  UNL     1      12.426   4.502  25.041  1.00  0.00     0.019 C 
HETATM    7  C1  UNL     1      11.573   4.359  23.813  1.00  0.00     0.007 C 
ENDBRANCH   1   6
TORSDOF 1
ENDMDL
MODEL 3
REMARK VINA RESULT: -3.843122232      1.808      2.013
REMARK  1 active torsions:
REMARK  status: ('A' for Active; 'I' for Inactive)
REMARK    1  A    between atoms: C2_2  and  C3_3 
ROOT
HETATM    1  C3  UNL     1      13.049   2.960  24.180  1.00  0.00     0.102 C 
HETATM    2  N1  UNL     1      13.526   3.042  25.556  1.00  0.00    -0.173 NA
HETATM    3  S1  UNL     1      12.770   4.551  25.958  1.00  0.00    -0.059 SA
HETATM    4  C4  UNL     1      11.865   3.770  24.577  1.00  0.00     0.080 C 
HETATM    5  C5  UNL     1      11.449   4.855  23.608  1.00  0.00     0.024 C 
ENDROOT
BRANCH   1   6
HETATM    6  C2  UNL     1      12.822   1.526  23.832  1.00  0.00     0.019 C 
HETATM    7  C1  UNL     1      12.911   0.591  25.005  1.00  0.00     0.007 C 
ENDBRANCH   1   6
TORSDOF 1
ENDMDL
MODEL 4
REMARK VINA RESULT: -3.769322954      2.067      2.499
REMARK  1 active torsions:
REMARK  status: ('A' for Active; 'I' for Inactive)
REMARK    1  A    between atoms: C2_2  and  C3_3 
ROOT
HETATM    1  C3  UNL     1      11.487   5.725  24.467  1.00  0.00     0.102 C 
HETATM    2  N1  UNL     1      12.073   6.839  23.731  1.00  0.00    -0.173 NA
HETATM    3  S1  UNL     1      13.019   7.487  25.034  1.00  0.00    -0.059 SA
HETATM    4  C4  UNL     1      12.687   5.717  25.348  1.00  0.00     0.080 C 
HETATM    5  C5  UNL     1      12.422   5.540  26.827  1.00  0.00     0.024 C 
ENDROOT
BRANCH   1   6
HETATM    6  C2  UNL     1      11.305   4.573  23.535  1.00  0.00     0.019 C 
HETATM    7  C1  UNL     1      12.014   3.320  23.966  1.00  0.00     0.007 C 
ENDBRANCH   1   6
TORSDOF 1
ENDMDL
MODEL 5
REMARK VINA RESULT: -3.764936786      3.194      3.664
REMARK  1 active torsions:
REMARK  status: ('A' for Active; 'I' for Inactive)
REMARK    1  A    between atoms: C2_2  and  C3_3 
ROOT
HETATM    1  C3  UNL     1      13.300   1.193  24.483  1.00  0.00     0.102 C 
HETATM    2  N1  UNL     1      12.505   0.072  24.970  1.00  0.00    -0.173 NA
HETATM    3  S1  UNL     1      13.326  -0.134  26.485  1.00  0.00    -0.059 SA
HETATM    4  C4  UNL     1      13.564   1.579  25.896  1.00  0.00     0.080 C 
HETATM    5  C5  UNL     1      14.982   1.997  26.216  1.00  0.00     0.024 C 
ENDROOT
BRANCH   1   6
HETATM    6  C2  UNL     1      12.425   2.090  23.672  1.00  0.00     0.019 C 
HETATM    7  C1  UNL     1      12.130   3.410  24.325  1.00  0.00     0.007 C 
ENDBRANCH   1   6
TORSDOF 1
ENDMDL
