MODEL 1
REMARK VINA RESULT: -4.725240518      0.000      0.000
REMARK  1 active torsions:
REMARK  status: ('A' for Active; 'I' for Inactive)
REMARK    1  A    between atoms: C2_2  and  C3_3 
ROOT
HETATM    1  C3  UNL     1      12.842   3.342  24.552  1.00  0.00     0.186 C 
HETATM    2  C4  UNL     1      12.275   2.231  23.737  1.00  0.00     0.035 C 
HETATM    3  C5  UNL     1      12.825   0.969  24.374  1.00  0.00     0.034 C 
HETATM    4  C6  UNL     1      13.823   1.508  25.359  1.00  0.00     0.182 C 
HETATM    5  C7  UNL     1      14.145   0.551  26.471  1.00  0.00     0.040 C 
HETATM    6  N1  UNL     1      13.168   2.716  25.830  1.00  0.00    -0.067 N 
ATOM      7  H11 UNL     1      12.386   2.576  26.470  1.00  0.00     0.278 HD
ATOM      8  H12 UNL     1      13.705   3.288  26.483  1.00  0.00     0.278 HD
ENDROOT
BRANCH   1   9
HETATM    9  C2  UNL     1      11.915   4.514  24.718  1.00  0.00     0.028 C 
HETATM   10  C1  UNL     1      11.229   4.741  23.382  1.00  0.00     0.007 C 
ENDBRANCH   1   9
TORSDOF 1
ENDMDL
MODEL 2
REMARK VINA RESULT: -4.558574302      1.124      1.952
REMARK  1 active torsions:
REMARK  status: ('A' for Active; 'I' for Inactive)
REMARK    1  A    between atoms: C2_2  and  C3_3 
ROOT
HETATM    1  C3  UNL     1      13.329   1.612  24.313  1.00  0.00     0.186 C 
HETATM    2  C4  UNL     1      12.945   0.427  25.133  1.00  0.00     0.035 C 
HETATM    3  C5  UNL     1      13.806   0.528  26.378  1.00  0.00     0.034 C 
HETATM    4  C6  UNL     1      14.746   1.649  26.037  1.00  0.00     0.182 C 
HETATM    5  C7  UNL     1      15.359   2.305  27.240  1.00  0.00     0.040 C 
HETATM    6  N1  UNL     1      13.890   2.549  25.283  1.00  0.00    -0.067 N 
ATOM      7  H11 UNL     1      13.213   3.081  25.829  1.00  0.00     0.278 HD
ATOM      8  H12 UNL     1      14.346   3.374  24.892  1.00  0.00     0.278 HD
ENDROOT
BRANCH   1   9
HETATM    9  C2  UNL     1      12.190   2.214  23.539  1.00  0.00     0.028 C 
HETATM   10  C1  UNL     1      11.962   3.613  24.086  1.00  0.00     0.007 C 
ENDBRANCH   1   9
TORSDOF 1
ENDMDL
MODEL 3
REMARK VINA RESULT: -4.529010193      1.415      3.805
REMARK  1 active torsions:
REMARK  status: ('A' for Active; 'I' for Inactive)
REMARK    1  A    between atoms: C2_2  and  C3_3 
ROOT
HETATM    1  C3  UNL     1      12.943   2.772  24.389  1.00  0.00     0.186 C 
HETATM    2  C4  UNL     1      13.158   2.939  25.855  1.00  0.00     0.035 C 
HETATM    3  C5  UNL     1      12.579   4.304  26.174  1.00  0.00     0.034 C 
HETATM    4  C6  UNL     1      12.286   4.863  24.811  1.00  0.00     0.182 C 
HETATM    5  C7  UNL     1      11.259   5.958  24.820  1.00  0.00     0.040 C 
HETATM    6  N1  UNL     1      11.844   3.685  24.085  1.00  0.00    -0.067 N 
ATOM      7  H11 UNL     1      10.909   3.347  24.313  1.00  0.00     0.278 HD
ATOM      8  H12 UNL     1      11.641   3.823  23.094  1.00  0.00     0.278 HD
ENDROOT
BRANCH   1   9
HETATM    9  C2  UNL     1      12.637   1.361  23.972  1.00  0.00     0.028 C 
HETATM   10  C1  UNL     1      12.909   0.466  25.169  1.00  0.00     0.007 C 
ENDBRANCH   1   9
TORSDOF 1
ENDMDL
MODEL 4
REMARK VINA RESULT: -4.517742881      0.773      3.652
REMARK  1 active torsions:
REMARK  status: ('A' for Active; 'I' for Inactive)
REMARK    1  A    between atoms: C2_2  and  C3_3 
ROOT
HETATM    1  C3  UNL     1      13.253   2.102  25.450  1.00  0.00     0.186 C 
HETATM    2  C4  UNL     1      12.820   1.400  24.209  1.00  0.00     0.035 C 
HETATM    3  C5  UNL     1      12.029   2.440  23.437  1.00  0.00     0.034 C 
HETATM    4  C6  UNL     1      11.915   3.565  24.427  1.00  0.00     0.182 C 
HETATM    5  C7  UNL     1      11.641   4.897  23.790  1.00  0.00     0.040 C 
HETATM    6  N1  UNL     1      13.204   3.518  25.095  1.00  0.00    -0.067 N 
ATOM      7  H11 UNL     1      13.997   3.869  24.558  1.00  0.00     0.278 HD
ATOM      8  H12 UNL     1      13.331   4.175  25.865  1.00  0.00     0.278 HD
ENDROOT
BRANCH   1   9
HETATM    9  C2  UNL     1      14.612   1.690  25.943  1.00  0.00     0.028 C 
HETATM   10  C1  UNL     1      14.419   0.490  26.853  1.00  0.00     0.007 C 
ENDBRANCH   1   9
TORSDOF 1
ENDMDL
MODEL 5
REMARK VINA RESULT: -4.389183181      1.141      1.905
REMARK  1 active torsions:
REMARK  status: ('A' for Active; 'I' for Inactive)
REMARK    1  A    between atoms: C2_2  and  C3_3 
ROOT
HETATM    1  C3  UNL     1      12.553   4.474  25.014  1.00  0.00     0.186 C 
HETATM    2  C4  UNL     1      11.652   4.289  23.841  1.00  0.00     0.035 C 
HETATM    3  C5  UNL     1      11.823   2.832  23.453  1.00  0.00     0.034 C 
HETATM    4  C6  UNL     1      12.969   2.395  24.320  1.00  0.00     0.182 C 
HETATM    5  C7  UNL     1      13.029   0.910  24.531  1.00  0.00     0.040 C 
HETATM    6  N1  UNL     1      12.721   3.126  25.550  1.00  0.00    -0.067 N 
ATOM      7  H11 UNL     1      11.956   2.779  26.127  1.00  0.00     0.278 HD
ATOM      8  H12 UNL     1      13.427   3.022  26.280  1.00  0.00     0.278 HD
ENDROOT
BRANCH   1   9
HETATM    9  C2  UNL     1      12.024   5.431  26.047  1.00  0.00     0.028 C 
HETATM   10  C1  UNL     1      11.175   6.458  25.319  1.00  0.00     0.007 C 
ENDBRANCH   1   9
TORSDOF 1
ENDMDL
