MODEL 1
REMARK VINA RESULT: -5.087553318      0.000      0.000
REMARK  3 active torsions:
REMARK  status: ('A' for Active; 'I' for Inactive)
REMARK    1  A    between atoms: C2_2  and  C3_3 
REMARK    2  A    between atoms: C3_3  and  N1_4 
REMARK    3  A    between atoms: C3_3  and  C4_8 
ROOT
HETATM    1  C4  UNL     1      13.053   3.267  -3.752  1.00  0.00     0.216 C 
HETATM    2  C5  UNL     1      13.780   1.956  -3.414  1.00  0.00     0.036 C 
HETATM    3  C6  UNL     1      15.118   2.405  -2.888  1.00  0.00     0.024 C 
HETATM    4  C7  UNL     1      15.828   3.262  -3.876  1.00  0.00     0.108 C 
HETATM    5 CL1  UNL     1      16.735   2.184  -4.978  1.00  0.00    -0.123 Cl
HETATM    6  C8  UNL     1      14.992   4.208  -4.643  1.00  0.00     0.253 C 
HETATM    7  N2  UNL     1      13.657   3.764  -4.932  1.00  0.00    -0.068 N 
ATOM      8  H21 UNL     1      13.096   4.494  -5.372  1.00  0.00     0.277 HD
ATOM      9  H22 UNL     1      13.634   3.084  -5.691  1.00  0.00     0.277 HD
ENDROOT
BRANCH   1  10
HETATM   10  C3  UNL     1      11.600   2.941  -3.855  1.00  0.00     0.213 C 
BRANCH  10  11
HETATM   11  C2  UNL     1      11.345   1.617  -4.524  1.00  0.00     0.030 C 
HETATM   12  C1  UNL     1      10.194   1.695  -5.497  1.00  0.00     0.007 C 
ENDBRANCH  10  11
BRANCH  10  13
HETATM   13  N1  UNL     1      10.895   3.057  -2.592  1.00  0.00    -0.073 N 
ATOM     14  H13 UNL     1      10.070   2.458  -2.573  1.00  0.00     0.274 HD
ATOM     15  H12 UNL     1      11.424   2.627  -1.833  1.00  0.00     0.274 HD
ATOM     16  H11 UNL     1      10.655   4.024  -2.376  1.00  0.00     0.274 HD
ENDBRANCH  10  13
ENDBRANCH   1  10
TORSDOF 3
ENDMDL
MODEL 2
REMARK VINA RESULT: -4.918695617      3.046      4.490
REMARK  3 active torsions:
REMARK  status: ('A' for Active; 'I' for Inactive)
REMARK    1  A    between atoms: C2_2  and  C3_3 
REMARK    2  A    between atoms: C3_3  and  N1_4 
REMARK    3  A    between atoms: C3_3  and  C4_8 
ROOT
HETATM    1  C4  UNL     1      11.343   2.540  -5.026  1.00  0.00     0.216 C 
HETATM    2  C5  UNL     1      10.381   1.576  -5.737  1.00  0.00     0.036 C 
HETATM    3  C6  UNL     1      10.743   1.708  -7.193  1.00  0.00     0.024 C 
HETATM    4  C7  UNL     1      10.644   3.121  -7.650  1.00  0.00     0.108 C 
HETATM    5 CL1  UNL     1       8.951   3.415  -8.147  1.00  0.00    -0.123 Cl
HETATM    6  C8  UNL     1      11.092   4.152  -6.692  1.00  0.00     0.253 C 
HETATM    7  N2  UNL     1      10.877   3.847  -5.304  1.00  0.00    -0.068 N 
ATOM      8  H21 UNL     1      11.295   4.544  -4.688  1.00  0.00     0.277 HD
ATOM      9  H22 UNL     1       9.903   3.974  -5.030  1.00  0.00     0.277 HD
ENDROOT
BRANCH   1  10
HETATM   10  C3  UNL     1      11.357   2.151  -3.584  1.00  0.00     0.213 C 
BRANCH  10  11
HETATM   11  C2  UNL     1      12.690   1.610  -3.139  1.00  0.00     0.030 C 
HETATM   12  C1  UNL     1      13.834   2.296  -3.845  1.00  0.00     0.007 C 
ENDBRANCH  10  11
BRANCH  10  13
HETATM   13  N1  UNL     1      10.873   3.196  -2.702  1.00  0.00    -0.073 N 
ATOM     14  H13 UNL     1      11.118   3.003  -1.731  1.00  0.00     0.274 HD
ATOM     15  H12 UNL     1      11.398   4.062  -2.832  1.00  0.00     0.274 HD
ATOM     16  H11 UNL     1       9.871   3.351  -2.808  1.00  0.00     0.274 HD
ENDBRANCH  10  13
ENDBRANCH   1  10
TORSDOF 3
ENDMDL
MODEL 3
REMARK VINA RESULT: -4.880127831      2.798      4.287
REMARK  3 active torsions:
REMARK  status: ('A' for Active; 'I' for Inactive)
REMARK    1  A    between atoms: C2_2  and  C3_3 
REMARK    2  A    between atoms: C3_3  and  N1_4 
REMARK    3  A    between atoms: C3_3  and  C4_8 
ROOT
HETATM    1  C4  UNL     1      12.843   2.654  -4.828  1.00  0.00     0.216 C 
HETATM    2  C5  UNL     1      11.448   3.107  -4.368  1.00  0.00     0.036 C 
HETATM    3  C6  UNL     1      10.503   2.251  -5.170  1.00  0.00     0.024 C 
HETATM    4  C7  UNL     1      10.746   2.400  -6.631  1.00  0.00     0.108 C 
HETATM    5 CL1  UNL     1       9.796   3.806  -7.200  1.00  0.00    -0.123 Cl
HETATM    6  C8  UNL     1      12.156   2.519  -7.053  1.00  0.00     0.253 C 
HETATM    7  N2  UNL     1      13.027   3.188  -6.126  1.00  0.00    -0.068 N 
ATOM      8  H21 UNL     1      14.003   3.151  -6.421  1.00  0.00     0.277 HD
ATOM      9  H22 UNL     1      12.905   4.200  -6.146  1.00  0.00     0.277 HD
ENDROOT
BRANCH   1  10
HETATM   10  C3  UNL     1      13.812   3.120  -3.792  1.00  0.00     0.213 C 
BRANCH  10  11
HETATM   11  C2  UNL     1      14.476   1.983  -3.062  1.00  0.00     0.030 C 
HETATM   12  C1  UNL     1      13.484   1.186  -2.249  1.00  0.00     0.007 C 
ENDBRANCH  10  11
BRANCH  10  13
HETATM   13  N1  UNL     1      14.776   4.078  -4.297  1.00  0.00    -0.073 N 
ATOM     14  H13 UNL     1      14.412   5.029  -4.250  1.00  0.00     0.274 HD
ATOM     15  H12 UNL     1      15.568   4.177  -3.661  1.00  0.00     0.274 HD
ATOM     16  H11 UNL     1      15.087   3.846  -5.241  1.00  0.00     0.274 HD
ENDBRANCH  10  13
ENDBRANCH   1  10
TORSDOF 3
ENDMDL
MODEL 4
REMARK VINA RESULT: -4.843684982      2.894      4.435
REMARK  3 active torsions:
REMARK  status: ('A' for Active; 'I' for Inactive)
REMARK    1  A    between atoms: C2_2  and  C3_3 
REMARK    2  A    between atoms: C3_3  and  N1_4 
REMARK    3  A    between atoms: C3_3  and  C4_8 
ROOT
HETATM    1  C4  UNL     1      11.661   2.287  -5.245  1.00  0.00     0.216 C 
HETATM    2  C5  UNL     1      10.148   2.287  -5.519  1.00  0.00     0.036 C 
HETATM    3  C6  UNL     1      10.048   2.079  -7.008  1.00  0.00     0.024 C 
HETATM    4  C7  UNL     1      10.807   3.120  -7.753  1.00  0.00     0.108 C 
HETATM    5 CL1  UNL     1       9.725   4.527  -7.977  1.00  0.00    -0.123 Cl
HETATM    6  C8  UNL     1      12.094   3.542  -7.162  1.00  0.00     0.253 C 
HETATM    7  N2  UNL     1      12.154   3.523  -5.726  1.00  0.00    -0.068 N 
ATOM      8  H21 UNL     1      13.092   3.724  -5.379  1.00  0.00     0.277 HD
ATOM      9  H22 UNL     1      11.670   4.318  -5.311  1.00  0.00     0.277 HD
ENDROOT
BRANCH   1  10
HETATM   10  C3  UNL     1      11.834   2.045  -3.781  1.00  0.00     0.213 C 
BRANCH  10  11
HETATM   11  C2  UNL     1      13.278   2.049  -3.357  1.00  0.00     0.030 C 
HETATM   12  C1  UNL     1      13.513   1.147  -2.170  1.00  0.00     0.007 C 
ENDBRANCH  10  11
BRANCH  10  13
HETATM   13  N1  UNL     1      11.023   2.920  -2.956  1.00  0.00    -0.073 N 
ATOM     14  H13 UNL     1      11.538   3.757  -2.686  1.00  0.00     0.274 HD
ATOM     15  H12 UNL     1      10.278   3.357  -3.500  1.00  0.00     0.274 HD
ATOM     16  H11 UNL     1      10.649   2.436  -2.139  1.00  0.00     0.274 HD
ENDBRANCH  10  13
ENDBRANCH   1  10
TORSDOF 3
ENDMDL
MODEL 5
REMARK VINA RESULT: -4.836045653      2.940      4.682
REMARK  3 active torsions:
REMARK  status: ('A' for Active; 'I' for Inactive)
REMARK    1  A    between atoms: C2_2  and  C3_3 
REMARK    2  A    between atoms: C3_3  and  N1_4 
REMARK    3  A    between atoms: C3_3  and  C4_8 
ROOT
HETATM    1  C4  UNL     1      10.497   2.578  -4.967  1.00  0.00     0.216 C 
HETATM    2  C5  UNL     1      11.403   3.571  -5.711  1.00  0.00     0.036 C 
HETATM    3  C6  UNL     1      10.484   4.226  -6.710  1.00  0.00     0.024 C 
HETATM    4  C7  UNL     1       9.829   3.217  -7.586  1.00  0.00     0.108 C 
HETATM    5 CL1  UNL     1      10.929   2.894  -8.960  1.00  0.00    -0.123 Cl
HETATM    6  C8  UNL     1       9.420   1.953  -6.938  1.00  0.00     0.253 C 
HETATM    7  N2  UNL     1      10.259   1.507  -5.861  1.00  0.00    -0.068 N 
ATOM      8  H21 UNL     1       9.874   0.690  -5.387  1.00  0.00     0.277 HD
ATOM      9  H22 UNL     1      11.126   1.088  -6.197  1.00  0.00     0.277 HD
ENDROOT
BRANCH   1  10
HETATM   10  C3  UNL     1      11.200   2.220  -3.698  1.00  0.00     0.213 C 
BRANCH  10  11
HETATM   11  C2  UNL     1      12.684   2.048  -3.883  1.00  0.00     0.030 C 
HETATM   12  C1  UNL     1      13.329   1.422  -2.670  1.00  0.00     0.007 C 
ENDBRANCH  10  11
BRANCH  10  13
HETATM   13  N1  UNL     1      10.889   3.113  -2.599  1.00  0.00    -0.073 N 
ATOM     14  H13 UNL     1      11.728   3.578  -2.251  1.00  0.00     0.274 HD
ATOM     15  H12 UNL     1      10.374   3.933  -2.921  1.00  0.00     0.274 HD
ATOM     16  H11 UNL     1      10.392   2.636  -1.847  1.00  0.00     0.274 HD
ENDBRANCH  10  13
ENDBRANCH   1  10
TORSDOF 3
ENDMDL
