MODEL 1
REMARK VINA RESULT: -4.680833966      0.000      0.000
REMARK  2 active torsions:
REMARK  status: ('A' for Active; 'I' for Inactive)
REMARK    1  A    between atoms: C2_2  and  C3_3 
REMARK    2  A    between atoms: C3_3  and  N1_4 
ROOT
HETATM    1  C3  UNL     1      11.853   2.716  -4.460  1.00  0.00     0.209 C 
HETATM    2  N2  UNL     1      11.912   3.633  -5.542  1.00  0.00    -0.381 N 
ATOM      3  H2  UNL     1      11.235   4.388  -5.654  1.00  0.00     0.156 HD
HETATM    4  C4  UNL     1      12.985   3.427  -6.467  1.00  0.00     0.191 C 
HETATM    5  S1  UNL     1      14.530   3.901  -5.590  1.00  0.00    -0.148 SA
HETATM    6  C5  UNL     1      14.191   3.368  -3.864  1.00  0.00     0.100 C 
HETATM    7  C6  UNL     1      13.220   2.193  -4.032  1.00  0.00     0.147 C 
HETATM    8 CL1  UNL     1      13.076   1.292  -2.519  1.00  0.00    -0.120 Cl
ENDROOT
BRANCH   1   9
HETATM    9  C2  UNL     1      11.021   1.504  -4.804  1.00  0.00     0.058 C 
HETATM   10  C1  UNL     1       9.890   1.794  -5.729  1.00  0.00     0.009 C 
ENDBRANCH   1   9
BRANCH   1  11
HETATM   11  N1  UNL     1      11.320   3.422  -3.300  1.00  0.00    -0.051 N 
ATOM     12  H13 UNL     1      10.608   2.869  -2.823  1.00  0.00     0.277 HD
ATOM     13  H12 UNL     1      12.009   3.477  -2.549  1.00  0.00     0.277 HD
ATOM     14  H11 UNL     1      10.968   4.346  -3.552  1.00  0.00     0.277 HD
ENDBRANCH   1  11
TORSDOF 2
ENDMDL
MODEL 2
REMARK VINA RESULT: -3.931944875      2.556      3.506
REMARK  2 active torsions:
REMARK  status: ('A' for Active; 'I' for Inactive)
REMARK    1  A    between atoms: C2_2  and  C3_3 
REMARK    2  A    between atoms: C3_3  and  N1_4 
ROOT
HETATM    1  C3  UNL     1      14.673   3.267  -4.077  1.00  0.00     0.209 C 
HETATM    2  N2  UNL     1      13.267   3.464  -4.113  1.00  0.00    -0.381 N 
ATOM      3  H2  UNL     1      12.784   4.071  -3.449  1.00  0.00     0.156 HD
HETATM    4  C4  UNL     1      12.571   2.753  -5.144  1.00  0.00     0.191 C 
HETATM    5  S1  UNL     1      13.026   3.559  -6.732  1.00  0.00    -0.148 SA
HETATM    6  C5  UNL     1      14.778   4.041  -6.450  1.00  0.00     0.100 C 
HETATM    7  C6  UNL     1      15.283   2.997  -5.447  1.00  0.00     0.147 C 
HETATM    8 CL1  UNL     1      17.047   3.047  -5.344  1.00  0.00    -0.120 Cl
ENDROOT
BRANCH   1   9
HETATM    9  C2  UNL     1      15.046   2.093  -3.204  1.00  0.00     0.058 C 
HETATM   10  C1  UNL     1      13.909   1.547  -2.412  1.00  0.00     0.009 C 
ENDBRANCH   1   9
BRANCH   1  11
HETATM   11  N1  UNL     1      15.288   4.504  -3.607  1.00  0.00    -0.051 N 
ATOM     12  H13 UNL     1      15.017   5.298  -4.187  1.00  0.00     0.277 HD
ATOM     13  H12 UNL     1      14.884   4.808  -2.721  1.00  0.00     0.277 HD
ATOM     14  H11 UNL     1      16.303   4.417  -3.544  1.00  0.00     0.277 HD
ENDBRANCH   1  11
TORSDOF 2
ENDMDL
MODEL 3
REMARK VINA RESULT: -3.798094267      3.053      4.156
REMARK  2 active torsions:
REMARK  status: ('A' for Active; 'I' for Inactive)
REMARK    1  A    between atoms: C2_2  and  C3_3 
REMARK    2  A    between atoms: C3_3  and  N1_4 
ROOT
HETATM    1  C3  UNL     1      15.281   3.855  -4.405  1.00  0.00     0.209 C 
HETATM    2  N2  UNL     1      13.861   3.844  -4.368  1.00  0.00    -0.381 N 
ATOM      3  H2  UNL     1      13.334   4.199  -3.570  1.00  0.00     0.156 HD
HETATM    4  C4  UNL     1      13.219   3.301  -5.527  1.00  0.00     0.191 C 
HETATM    5  S1  UNL     1      13.472   4.516  -6.883  1.00  0.00    -0.148 SA
HETATM    6  C5  UNL     1      15.151   5.173  -6.525  1.00  0.00     0.100 C 
HETATM    7  C6  UNL     1      15.850   4.009  -5.811  1.00  0.00     0.147 C 
HETATM    8 CL1  UNL     1      17.592   4.294  -5.730  1.00  0.00    -0.120 Cl
ENDROOT
BRANCH   1   9
HETATM    9  C2  UNL     1      15.860   2.578  -3.847  1.00  0.00     0.058 C 
HETATM   10  C1  UNL     1      15.206   2.119  -2.591  1.00  0.00     0.009 C 
ENDBRANCH   1   9
BRANCH   1  11
HETATM   11  N1  UNL     1      15.741   5.024  -3.663  1.00  0.00    -0.051 N 
ATOM     12  H13 UNL     1      15.116   5.242  -2.888  1.00  0.00     0.277 HD
ATOM     13  H12 UNL     1      16.587   4.817  -3.131  1.00  0.00     0.277 HD
ATOM     14  H11 UNL     1      15.873   5.829  -4.275  1.00  0.00     0.277 HD
ENDBRANCH   1  11
TORSDOF 2
ENDMDL
MODEL 4
REMARK VINA RESULT: -3.757605484      2.260      3.068
REMARK  2 active torsions:
REMARK  status: ('A' for Active; 'I' for Inactive)
REMARK    1  A    between atoms: C2_2  and  C3_3 
REMARK    2  A    between atoms: C3_3  and  N1_4 
ROOT
HETATM    1  C3  UNL     1      11.492   2.466  -4.285  1.00  0.00     0.209 C 
HETATM    2  N2  UNL     1      10.137   2.149  -4.565  1.00  0.00    -0.381 N 
ATOM      3  H2  UNL     1       9.396   2.264  -3.873  1.00  0.00     0.156 HD
HETATM    4  C4  UNL     1       9.880   1.658  -5.886  1.00  0.00     0.191 C 
HETATM    5  S1  UNL     1      10.095   3.085  -7.025  1.00  0.00    -0.148 SA
HETATM    6  C5  UNL     1      11.467   4.023  -6.239  1.00  0.00     0.100 C 
HETATM    7  C6  UNL     1      12.271   2.942  -5.506  1.00  0.00     0.147 C 
HETATM    8 CL1  UNL     1      13.845   3.574  -5.012  1.00  0.00    -0.120 Cl
ENDROOT
BRANCH   1   9
HETATM    9  C2  UNL     1      12.239   1.272  -3.740  1.00  0.00     0.058 C 
HETATM   10  C1  UNL     1      13.034   1.567  -2.516  1.00  0.00     0.009 C 
ENDBRANCH   1   9
BRANCH   1  11
HETATM   11  N1  UNL     1      11.509   3.584  -3.347  1.00  0.00    -0.051 N 
ATOM     12  H13 UNL     1      11.332   3.271  -2.393  1.00  0.00     0.277 HD
ATOM     13  H12 UNL     1      12.452   3.951  -3.222  1.00  0.00     0.277 HD
ATOM     14  H11 UNL     1      10.857   4.317  -3.626  1.00  0.00     0.277 HD
ENDBRANCH   1  11
TORSDOF 2
ENDMDL
MODEL 5
REMARK VINA RESULT: -3.527083771      2.721      3.499
REMARK  2 active torsions:
REMARK  status: ('A' for Active; 'I' for Inactive)
REMARK    1  A    between atoms: C2_2  and  C3_3 
REMARK    2  A    between atoms: C3_3  and  N1_4 
ROOT
HETATM    1  C3  UNL     1      10.859   2.587  -5.736  1.00  0.00     0.209 C 
HETATM    2  N2  UNL     1       9.648   2.075  -6.272  1.00  0.00    -0.381 N 
ATOM      3  H2  UNL     1       8.738   2.474  -6.042  1.00  0.00     0.156 HD
HETATM    4  C4  UNL     1       9.790   0.958  -7.158  1.00  0.00     0.191 C 
HETATM    5  S1  UNL     1      10.548   1.609  -8.702  1.00  0.00    -0.148 SA
HETATM    6  C5  UNL     1      11.682   2.913  -8.073  1.00  0.00     0.100 C 
HETATM    7  C6  UNL     1      12.054   2.422  -6.669  1.00  0.00     0.147 C 
HETATM    8 CL1  UNL     1      13.436   3.329  -6.046  1.00  0.00    -0.120 Cl
ENDROOT
BRANCH   1   9
HETATM    9  C2  UNL     1      11.228   1.899  -4.444  1.00  0.00     0.058 C 
HETATM   10  C1  UNL     1      11.149   2.782  -3.248  1.00  0.00     0.009 C 
ENDBRANCH   1   9
BRANCH   1  11
HETATM   11  N1  UNL     1      10.697   4.025  -5.552  1.00  0.00    -0.051 N 
ATOM     12  H13 UNL     1      11.337   4.550  -6.148  1.00  0.00     0.277 HD
ATOM     13  H12 UNL     1       9.813   4.352  -5.940  1.00  0.00     0.277 HD
ATOM     14  H11 UNL     1      10.797   4.292  -4.572  1.00  0.00     0.277 HD
ENDBRANCH   1  11
TORSDOF 2
ENDMDL
