MODEL 1
REMARK VINA RESULT: -4.015245492      0.000      0.000
REMARK  3 active torsions:
REMARK  status: ('A' for Active; 'I' for Inactive)
REMARK    1  A    between atoms: N1_1  and  C1_5 
REMARK    2  A    between atoms: C1_5  and  C2_6 
REMARK    3  A    between atoms: C2_6  and  C3_7 
ROOT
HETATM    1  C3  UNL     1      15.600   3.220  -4.461  1.00  0.00     0.037 C 
HETATM    2  S1  UNL     1      16.984   3.005  -5.606  1.00  0.00    -0.085 SA
HETATM    3  C4  UNL     1      15.635   2.182  -3.380  1.00  0.00     0.023 C 
HETATM    4  C5  UNL     1      14.231   2.263  -2.804  1.00  0.00     0.003 C 
HETATM    5  C6  UNL     1      13.403   2.265  -4.090  1.00  0.00     0.022 C 
HETATM    6  C7  UNL     1      14.321   2.787  -5.185  1.00  0.00     0.101 C 
HETATM    7 CL1  UNL     1      13.515   4.138  -5.969  1.00  0.00    -0.123 Cl
ENDROOT
BRANCH   1   8
HETATM    8  C2  UNL     1      15.496   4.634  -4.036  1.00  0.00     0.050 C 
BRANCH   8   9
HETATM    9  C1  UNL     1      16.428   5.620  -4.606  1.00  0.00     0.231 C 
BRANCH   9  10
HETATM   10  N1  UNL     1      15.755   6.689  -5.267  1.00  0.00    -0.079 N 
ATOM     11  H13 UNL     1      14.866   6.377  -5.657  1.00  0.00     0.274 HD
ATOM     12  H12 UNL     1      15.407   7.373  -4.595  1.00  0.00     0.274 HD
ATOM     13  H11 UNL     1      16.334   7.134  -5.979  1.00  0.00     0.274 HD
ENDBRANCH   9  10
ENDBRANCH   8   9
ENDBRANCH   1   8
TORSDOF 3
ENDMDL
MODEL 2
REMARK VINA RESULT: -3.917952801      4.070      4.682
REMARK  3 active torsions:
REMARK  status: ('A' for Active; 'I' for Inactive)
REMARK    1  A    between atoms: N1_1  and  C1_5 
REMARK    2  A    between atoms: C1_5  and  C2_6 
REMARK    3  A    between atoms: C2_6  and  C3_7 
ROOT
HETATM    1  C3  UNL     1      11.543   3.524  -6.387  1.00  0.00     0.037 C 
HETATM    2  S1  UNL     1      12.792   3.686  -7.685  1.00  0.00    -0.085 SA
HETATM    3  C4  UNL     1      12.166   3.070  -5.101  1.00  0.00     0.023 C 
HETATM    4  C5  UNL     1      10.961   2.605  -4.300  1.00  0.00     0.003 C 
HETATM    5  C6  UNL     1      10.237   1.763  -5.352  1.00  0.00     0.022 C 
HETATM    6  C7  UNL     1      10.693   2.289  -6.705  1.00  0.00     0.101 C 
HETATM    7 CL1  UNL     1       9.261   2.695  -7.639  1.00  0.00    -0.123 Cl
ENDROOT
BRANCH   1   8
HETATM    8  C2  UNL     1      10.692   4.734  -6.334  1.00  0.00     0.050 C 
BRANCH   8   9
HETATM    9  C1  UNL     1      10.983   5.849  -7.250  1.00  0.00     0.231 C 
BRANCH   9  10
HETATM   10  N1  UNL     1      10.326   7.055  -6.867  1.00  0.00    -0.079 N 
ATOM     11  H13 UNL     1       9.316   6.974  -6.981  1.00  0.00     0.274 HD
ATOM     12  H12 UNL     1      10.366   7.189  -5.856  1.00  0.00     0.274 HD
ATOM     13  H11 UNL     1      10.688   7.870  -7.361  1.00  0.00     0.274 HD
ENDBRANCH   9  10
ENDBRANCH   8   9
ENDBRANCH   1   8
TORSDOF 3
ENDMDL
MODEL 3
REMARK VINA RESULT: -3.902162048      4.427      5.346
REMARK  3 active torsions:
REMARK  status: ('A' for Active; 'I' for Inactive)
REMARK    1  A    between atoms: N1_1  and  C1_5 
REMARK    2  A    between atoms: C1_5  and  C2_6 
REMARK    3  A    between atoms: C2_6  and  C3_7 
ROOT
HETATM    1  C3  UNL     1      11.354   3.131  -6.467  1.00  0.00     0.037 C 
HETATM    2  S1  UNL     1      13.159   3.196  -6.578  1.00  0.00    -0.085 SA
HETATM    3  C4  UNL     1      10.827   1.863  -7.067  1.00  0.00     0.023 C 
HETATM    4  C5  UNL     1       9.352   2.178  -7.255  1.00  0.00     0.003 C 
HETATM    5  C6  UNL     1       9.444   3.565  -7.894  1.00  0.00     0.022 C 
HETATM    6  C7  UNL     1      10.786   4.141  -7.470  1.00  0.00     0.101 C 
HETATM    7 CL1  UNL     1      10.493   5.710  -6.735  1.00  0.00    -0.123 Cl
ENDROOT
BRANCH   1   8
HETATM    8  C2  UNL     1      10.909   3.463  -5.095  1.00  0.00     0.050 C 
BRANCH   8   9
HETATM    9  C1  UNL     1      11.195   2.517  -4.005  1.00  0.00     0.231 C 
BRANCH   9  10
HETATM   10  N1  UNL     1      10.899   3.059  -2.720  1.00  0.00    -0.079 N 
ATOM     11  H13 UNL     1      10.306   2.427  -2.183  1.00  0.00     0.274 HD
ATOM     12  H12 UNL     1      11.725   3.056  -2.122  1.00  0.00     0.274 HD
ATOM     13  H11 UNL     1      10.488   3.991  -2.775  1.00  0.00     0.274 HD
ENDBRANCH   9  10
ENDBRANCH   8   9
ENDBRANCH   1   8
TORSDOF 3
ENDMDL
MODEL 4
REMARK VINA RESULT: -3.826427630      2.605      3.089
REMARK  3 active torsions:
REMARK  status: ('A' for Active; 'I' for Inactive)
REMARK    1  A    between atoms: N1_1  and  C1_5 
REMARK    2  A    between atoms: C1_5  and  C2_6 
REMARK    3  A    between atoms: C2_6  and  C3_7 
ROOT
HETATM    1  C3  UNL     1      15.308   3.886  -5.016  1.00  0.00     0.037 C 
HETATM    2  S1  UNL     1      16.234   5.379  -4.585  1.00  0.00    -0.085 SA
HETATM    3  C4  UNL     1      14.191   4.206  -5.963  1.00  0.00     0.023 C 
HETATM    4  C5  UNL     1      13.317   2.966  -5.868  1.00  0.00     0.003 C 
HETATM    5  C6  UNL     1      13.252   2.787  -4.350  1.00  0.00     0.022 C 
HETATM    6  C7  UNL     1      14.488   3.474  -3.788  1.00  0.00     0.101 C 
HETATM    7 CL1  UNL     1      15.341   2.313  -2.782  1.00  0.00    -0.123 Cl
ENDROOT
BRANCH   1   8
HETATM    8  C2  UNL     1      16.233   2.799  -5.406  1.00  0.00     0.050 C 
BRANCH   8   9
HETATM    9  C1  UNL     1      17.623   3.136  -5.751  1.00  0.00     0.231 C 
BRANCH   9  10
HETATM   10  N1  UNL     1      18.502   2.021  -5.624  1.00  0.00    -0.079 N 
ATOM     11  H13 UNL     1      19.477   2.320  -5.629  1.00  0.00     0.274 HD
ATOM     12  H12 UNL     1      18.457   1.624  -4.685  1.00  0.00     0.274 HD
ATOM     13  H11 UNL     1      18.333   1.308  -6.333  1.00  0.00     0.274 HD
ENDBRANCH   9  10
ENDBRANCH   8   9
ENDBRANCH   1   8
TORSDOF 3
ENDMDL
MODEL 5
REMARK VINA RESULT: -3.762724153      4.213      5.210
REMARK  3 active torsions:
REMARK  status: ('A' for Active; 'I' for Inactive)
REMARK    1  A    between atoms: N1_1  and  C1_5 
REMARK    2  A    between atoms: C1_5  and  C2_6 
REMARK    3  A    between atoms: C2_6  and  C3_7 
ROOT
HETATM    1  C3  UNL     1      11.423   3.187  -5.706  1.00  0.00     0.037 C 
HETATM    2  S1  UNL     1      10.740   4.728  -6.364  1.00  0.00    -0.085 SA
HETATM    3  C4  UNL     1      11.031   2.999  -4.272  1.00  0.00     0.023 C 
HETATM    4  C5  UNL     1      12.005   1.930  -3.804  1.00  0.00     0.003 C 
HETATM    5  C6  UNL     1      13.316   2.484  -4.365  1.00  0.00     0.022 C 
HETATM    6  C7  UNL     1      12.933   3.382  -5.531  1.00  0.00     0.101 C 
HETATM    7 CL1  UNL     1      13.837   2.850  -6.942  1.00  0.00    -0.123 Cl
ENDROOT
BRANCH   1   8
HETATM    8  C2  UNL     1      11.153   2.065  -6.632  1.00  0.00     0.050 C 
BRANCH   8   9
HETATM    9  C1  UNL     1       9.814   1.941  -7.229  1.00  0.00     0.231 C 
BRANCH   9  10
HETATM   10  N1  UNL     1       8.989   1.012  -6.530  1.00  0.00    -0.079 N 
ATOM     11  H13 UNL     1       8.515   0.382  -7.177  1.00  0.00     0.274 HD
ATOM     12  H12 UNL     1       9.553   0.330  -6.023  1.00  0.00     0.274 HD
ATOM     13  H11 UNL     1       8.322   1.471  -5.910  1.00  0.00     0.274 HD
ENDBRANCH   9  10
ENDBRANCH   8   9
ENDBRANCH   1   8
TORSDOF 3
ENDMDL
