MODEL 1
REMARK VINA RESULT: -9.804916682      0.000      0.000
REMARK  8 active torsions:
REMARK  status: ('A' for Active; 'I' for Inactive)
REMARK    1  A    between atoms: C3_4  and  C4_5 
REMARK    2  A    between atoms: C6_7  and  N2_8 
REMARK    3  A    between atoms: N2_8  and  N3_10 
REMARK    4  A    between atoms: C7_12  and  C9_15 
REMARK    5  A    between atoms: C10_18  and  N6_19 
REMARK       I    between atoms: N7_21  and  C11_23 
REMARK    6  A    between atoms: C11_23  and  C12_25 
REMARK    7  A    between atoms: C12_25  and  O3_26 
REMARK    8  A    between atoms: C14_34  and  O4_35 
ROOT
HETATM    1  C1  UNL     1       6.783  34.155  37.977  1.00  0.00     0.124 C 
HETATM    2  C2  UNL     1       6.625  34.042  39.190  1.00  0.00    -0.063 C 
HETATM    3  N1  UNL     1       6.407  33.895  40.561  1.00  0.00    -0.226 N 
HETATM    4  C3  UNL     1       6.584  34.781  41.547  1.00  0.00     0.129 A 
HETATM    5  C14 UNL     1       6.161  34.139  42.701  1.00  0.00     0.177 A 
HETATM    6  N10 UNL     1       5.735  32.875  42.407  1.00  0.00    -0.281 N 
HETATM    7  C15 UNL     1       5.232  31.929  43.379  1.00  0.00     0.163 C 
HETATM    8  C16 UNL     1       5.889  32.733  41.090  1.00  0.00     0.342 A 
HETATM    9  O5  UNL     1       5.608  31.702  40.434  1.00  0.00    -0.245 OA
ENDROOT
BRANCH   4  10
HETATM   10  C4  UNL     1       7.046  36.157  41.447  1.00  0.00     0.068 A 
HETATM   11  C5  UNL     1       8.033  36.595  40.602  1.00  0.00     0.065 A 
HETATM   12  C6  UNL     1       8.519  37.907  40.562  1.00  0.00     0.082 A 
HETATM   13  C10 UNL     1       7.989  38.819  41.412  1.00  0.00     0.120 A 
HETATM   14  C13 UNL     1       6.998  38.402  42.270  1.00  0.00     0.130 A 
HETATM   15  N8  UNL     1       6.441  39.200  43.117  1.00  0.00    -0.384 N 
HETATM   16  N9  UNL     1       6.547  37.112  42.280  1.00  0.00    -0.339 N 
ATOM     17  H82 UNL     1       6.778  40.164  43.109  1.00  0.00     0.157 HD
ATOM     18  H81 UNL     1       5.706  38.892  43.753  1.00  0.00     0.157 HD
ATOM     19  H9  UNL     1       5.809  36.854  42.936  1.00  0.00     0.167 HD
BRANCH  12  20
HETATM   20  N2  UNL     1       9.563  38.260  39.664  1.00  0.00    -0.297 N 
ATOM     21  H2  UNL     1      10.467  38.521  40.058  1.00  0.00     0.187 HD
BRANCH  20  22
HETATM   22  N3  UNL     1       9.423  38.273  38.278  1.00  0.00    -0.286 N 
HETATM   23  C7  UNL     1      10.004  37.320  37.633  1.00  0.00     0.194 C 
HETATM   24  C8  UNL     1      10.754  36.308  38.319  1.00  0.00     0.124 C 
HETATM   25  N4  UNL     1      11.383  35.494  38.892  1.00  0.00    -0.190 NA
ATOM     26  H3  UNL     1       8.889  38.997  37.798  1.00  0.00     0.188 HD
BRANCH  23  27
HETATM   27  C9  UNL     1       9.880  37.271  36.186  1.00  0.00     0.293 C 
HETATM   28  N5  UNL     1       8.585  37.470  35.585  1.00  0.00    -0.055 NA
HETATM   29  O1  UNL     1      10.830  37.066  35.408  1.00  0.00    -0.269 OA
ENDBRANCH  23  27
ENDBRANCH  20  22
ENDBRANCH  12  20
BRANCH  13  30
HETATM   30  N6  UNL     1       8.449  40.185  41.420  1.00  0.00    -0.292 N 
HETATM   31  N7  UNL     1       7.555  41.055  41.715  1.00  0.00    -0.268 N 
HETATM   32  C11 UNL     1       7.886  42.436  41.755  1.00  0.00     0.259 C 
ATOM     33  H7  UNL     1       6.602  40.755  41.923  1.00  0.00     0.190 HD
HETATM   34  O2  UNL     1       7.574  43.154  40.768  1.00  0.00    -0.269 OA
ATOM     35  H6  UNL     1       9.413  40.440  41.207  1.00  0.00     0.187 HD
BRANCH  32  36
HETATM   36  C12 UNL     1       8.581  43.056  42.909  1.00  0.00     0.268 C 
BRANCH  36  37
HETATM   37  O3  UNL     1       8.902  42.069  43.854  1.00  0.00    -0.392 OA
ATOM     38  H3  UNL     1       9.838  41.904  43.839  1.00  0.00     0.210 HD
ENDBRANCH  36  37
ENDBRANCH  32  36
ENDBRANCH  13  30
ENDBRANCH   4  10
BRANCH   5  39
HETATM   39  O4  UNL     1       6.157  34.656  43.976  1.00  0.00    -0.344 OA
ATOM     40  H4  UNL     1       5.398  34.794  44.532  1.00  0.00     0.219 HD
ENDBRANCH   5  39
TORSDOF 8
ENDMDL
MODEL 2
REMARK VINA RESULT: -9.695815067      0.615      1.375
REMARK  8 active torsions:
REMARK  status: ('A' for Active; 'I' for Inactive)
REMARK    1  A    between atoms: C3_4  and  C4_5 
REMARK    2  A    between atoms: C6_7  and  N2_8 
REMARK    3  A    between atoms: N2_8  and  N3_10 
REMARK    4  A    between atoms: C7_12  and  C9_15 
REMARK    5  A    between atoms: C10_18  and  N6_19 
REMARK       I    between atoms: N7_21  and  C11_23 
REMARK    6  A    between atoms: C11_23  and  C12_25 
REMARK    7  A    between atoms: C12_25  and  O3_26 
REMARK    8  A    between atoms: C14_34  and  O4_35 
ROOT
HETATM    1  C1  UNL     1       6.803  34.284  37.957  1.00  0.00     0.124 C 
HETATM    2  C2  UNL     1       6.644  34.127  39.166  1.00  0.00    -0.063 C 
HETATM    3  N1  UNL     1       6.424  33.931  40.530  1.00  0.00    -0.226 N 
HETATM    4  C3  UNL     1       6.581  34.787  41.545  1.00  0.00     0.129 A 
HETATM    5  C14 UNL     1       6.168  34.099  42.676  1.00  0.00     0.177 A 
HETATM    6  N10 UNL     1       5.768  32.837  42.339  1.00  0.00    -0.281 N 
HETATM    7  C15 UNL     1       5.281  31.849  43.278  1.00  0.00     0.163 C 
HETATM    8  C16 UNL     1       5.929  32.742  41.018  1.00  0.00     0.342 A 
HETATM    9  O5  UNL     1       5.670  31.727  40.328  1.00  0.00    -0.245 OA
ENDROOT
BRANCH   4  10
HETATM   10  C4  UNL     1       7.015  36.175  41.493  1.00  0.00     0.068 A 
HETATM   11  C5  UNL     1       7.671  36.753  40.436  1.00  0.00     0.065 A 
HETATM   12  C6  UNL     1       8.146  38.069  40.422  1.00  0.00     0.082 A 
HETATM   13  C10 UNL     1       7.956  38.837  41.521  1.00  0.00     0.120 A 
HETATM   14  C13 UNL     1       7.302  38.278  42.594  1.00  0.00     0.130 A 
HETATM   15  N8  UNL     1       7.082  38.933  43.683  1.00  0.00    -0.384 N 
HETATM   16  N9  UNL     1       6.850  36.988  42.572  1.00  0.00    -0.339 N 
ATOM     17  H82 UNL     1       7.420  39.896  43.700  1.00  0.00     0.157 HD
ATOM     18  H81 UNL     1       6.597  38.519  44.479  1.00  0.00     0.157 HD
ATOM     19  H9  UNL     1       6.370  36.621  43.394  1.00  0.00     0.167 HD
BRANCH  12  20
HETATM   20  N2  UNL     1       8.835  38.573  39.284  1.00  0.00    -0.297 N 
ATOM     21  H2  UNL     1       8.532  39.467  38.897  1.00  0.00     0.187 HD
BRANCH  20  22
HETATM   22  N3  UNL     1       9.898  37.919  38.667  1.00  0.00    -0.286 N 
HETATM   23  C7  UNL     1       9.712  37.541  37.449  1.00  0.00     0.194 C 
HETATM   24  C8  UNL     1       8.469  37.786  36.777  1.00  0.00     0.124 C 
HETATM   25  N4  UNL     1       7.438  37.976  36.243  1.00  0.00    -0.190 NA
ATOM     26  H3  UNL     1      10.779  37.748  39.154  1.00  0.00     0.188 HD
BRANCH  23  27
HETATM   27  C9  UNL     1      10.792  36.867  36.749  1.00  0.00     0.293 C 
HETATM   28  N5  UNL     1      11.720  36.059  37.500  1.00  0.00    -0.055 NA
HETATM   29  O1  UNL     1      10.982  36.936  35.520  1.00  0.00    -0.269 OA
ENDBRANCH  23  27
ENDBRANCH  20  22
ENDBRANCH  12  20
BRANCH  13  30
HETATM   30  N6  UNL     1       8.424  40.200  41.568  1.00  0.00    -0.292 N 
HETATM   31  N7  UNL     1       7.509  41.081  41.732  1.00  0.00    -0.268 N 
HETATM   32  C11 UNL     1       7.846  42.460  41.794  1.00  0.00     0.259 C 
ATOM     33  H7  UNL     1       6.534  40.792  41.819  1.00  0.00     0.190 HD
HETATM   34  O2  UNL     1       7.671  43.165  40.765  1.00  0.00    -0.269 OA
ATOM     35  H6  UNL     1       9.411  40.444  41.478  1.00  0.00     0.187 HD
BRANCH  32  36
HETATM   36  C12 UNL     1       8.392  43.093  43.019  1.00  0.00     0.268 C 
BRANCH  36  37
HETATM   37  O3  UNL     1       8.876  42.103  43.888  1.00  0.00    -0.392 OA
ATOM     38  H3  UNL     1       9.486  42.489  44.506  1.00  0.00     0.210 HD
ENDBRANCH  36  37
ENDBRANCH  32  36
ENDBRANCH  13  30
ENDBRANCH   4  10
BRANCH   5  39
HETATM   39  O4  UNL     1       6.150  34.573  43.968  1.00  0.00    -0.344 OA
ATOM     40  H4  UNL     1       6.611  35.334  44.301  1.00  0.00     0.219 HD
ENDBRANCH   5  39
TORSDOF 8
ENDMDL
MODEL 3
REMARK VINA RESULT: -9.267337905      7.555     12.851
REMARK  8 active torsions:
REMARK  status: ('A' for Active; 'I' for Inactive)
REMARK    1  A    between atoms: C3_4  and  C4_5 
REMARK    2  A    between atoms: C6_7  and  N2_8 
REMARK    3  A    between atoms: N2_8  and  N3_10 
REMARK    4  A    between atoms: C7_12  and  C9_15 
REMARK    5  A    between atoms: C10_18  and  N6_19 
REMARK       I    between atoms: N7_21  and  C11_23 
REMARK    6  A    between atoms: C11_23  and  C12_25 
REMARK    7  A    between atoms: C12_25  and  O3_26 
REMARK    8  A    between atoms: C14_34  and  O4_35 
ROOT
HETATM    1  C1  UNL     1      16.189  41.113  30.479  1.00  0.00     0.124 C 
HETATM    2  C2  UNL     1      16.003  40.193  29.685  1.00  0.00    -0.063 C 
HETATM    3  N1  UNL     1      15.789  39.178  28.751  1.00  0.00    -0.226 N 
HETATM    4  C3  UNL     1      14.940  38.147  28.801  1.00  0.00     0.129 A 
HETATM    5  C14 UNL     1      15.093  37.484  27.592  1.00  0.00     0.177 A 
HETATM    6  N10 UNL     1      16.029  38.115  26.825  1.00  0.00    -0.281 N 
HETATM    7  C15 UNL     1      16.438  37.686  25.505  1.00  0.00     0.163 C 
HETATM    8  C16 UNL     1      16.453  39.156  27.544  1.00  0.00     0.342 A 
HETATM    9  O5  UNL     1      17.321  39.984  27.180  1.00  0.00    -0.245 OA
ENDROOT
BRANCH   4  10
HETATM   10  C4  UNL     1      13.991  37.812  29.852  1.00  0.00     0.068 A 
HETATM   11  C5  UNL     1      14.216  36.901  30.852  1.00  0.00     0.065 A 
HETATM   12  C6  UNL     1      13.272  36.535  31.818  1.00  0.00     0.082 A 
HETATM   13  C10 UNL     1      12.046  37.109  31.775  1.00  0.00     0.120 A 
HETATM   14  C13 UNL     1      11.797  38.025  30.779  1.00  0.00     0.130 A 
HETATM   15  N8  UNL     1      10.657  38.616  30.658  1.00  0.00    -0.384 N 
HETATM   16  N9  UNL     1      12.744  38.360  29.853  1.00  0.00    -0.339 N 
ATOM     17  H82 UNL     1       9.950  38.367  31.350  1.00  0.00     0.157 HD
ATOM     18  H81 UNL     1      10.472  39.296  29.920  1.00  0.00     0.157 HD
ATOM     19  H9  UNL     1      12.509  39.045  29.135  1.00  0.00     0.167 HD
BRANCH  12  20
HETATM   20  N2  UNL     1      13.592  35.562  32.805  1.00  0.00    -0.297 N 
ATOM     21  H2  UNL     1      14.041  35.881  33.664  1.00  0.00     0.187 HD
BRANCH  20  22
HETATM   22  N3  UNL     1      13.330  34.201  32.667  1.00  0.00    -0.286 N 
HETATM   23  C7  UNL     1      12.963  33.576  33.733  1.00  0.00     0.194 C 
HETATM   24  C8  UNL     1      12.837  34.258  34.988  1.00  0.00     0.124 C 
HETATM   25  N4  UNL     1      12.756  34.825  36.016  1.00  0.00    -0.190 NA
ATOM     26  H3  UNL     1      13.424  33.724  31.770  1.00  0.00     0.188 HD
BRANCH  23  27
HETATM   27  C9  UNL     1      12.660  32.158  33.647  1.00  0.00     0.293 C 
HETATM   28  N5  UNL     1      13.712  31.199  33.873  1.00  0.00    -0.055 NA
HETATM   29  O1  UNL     1      11.533  31.696  33.387  1.00  0.00    -0.269 OA
ENDBRANCH  23  27
ENDBRANCH  20  22
ENDBRANCH  12  20
BRANCH  13  30
HETATM   30  N6  UNL     1      11.030  36.772  32.741  1.00  0.00    -0.292 N 
HETATM   31  N7  UNL     1      10.839  37.650  33.654  1.00  0.00    -0.268 N 
HETATM   32  C11 UNL     1       9.865  37.431  34.665  1.00  0.00     0.259 C 
ATOM     33  H7  UNL     1      11.389  38.510  33.656  1.00  0.00     0.190 HD
HETATM   34  O2  UNL     1      10.254  37.036  35.796  1.00  0.00    -0.269 OA
ATOM     35  H6  UNL     1      10.504  35.899  32.700  1.00  0.00     0.187 HD
BRANCH  32  36
HETATM   36  C12 UNL     1       8.416  37.650  34.436  1.00  0.00     0.268 C 
BRANCH  36  37
HETATM   37  O3  UNL     1       7.927  36.684  33.542  1.00  0.00    -0.392 OA
ATOM     38  H3  UNL     1       7.568  37.112  32.773  1.00  0.00     0.210 HD
ENDBRANCH  36  37
ENDBRANCH  32  36
ENDBRANCH  13  30
ENDBRANCH   4  10
BRANCH   5  39
HETATM   39  O4  UNL     1      14.426  36.352  27.184  1.00  0.00    -0.344 OA
ATOM     40  H4  UNL     1      14.251  35.576  27.704  1.00  0.00     0.219 HD
ENDBRANCH   5  39
TORSDOF 8
ENDMDL
MODEL 4
REMARK VINA RESULT: -9.139300345      7.652     12.825
REMARK  8 active torsions:
REMARK  status: ('A' for Active; 'I' for Inactive)
REMARK    1  A    between atoms: C3_4  and  C4_5 
REMARK    2  A    between atoms: C6_7  and  N2_8 
REMARK    3  A    between atoms: N2_8  and  N3_10 
REMARK    4  A    between atoms: C7_12  and  C9_15 
REMARK    5  A    between atoms: C10_18  and  N6_19 
REMARK       I    between atoms: N7_21  and  C11_23 
REMARK    6  A    between atoms: C11_23  and  C12_25 
REMARK    7  A    between atoms: C12_25  and  O3_26 
REMARK    8  A    between atoms: C14_34  and  O4_35 
ROOT
HETATM    1  C1  UNL     1      17.967  35.952  30.873  1.00  0.00     0.124 C 
HETATM    2  C2  UNL     1      17.319  36.517  29.995  1.00  0.00    -0.063 C 
HETATM    3  N1  UNL     1      16.615  37.189  28.995  1.00  0.00    -0.226 N 
HETATM    4  C3  UNL     1      15.326  37.545  28.959  1.00  0.00     0.129 A 
HETATM    5  C14 UNL     1      15.167  38.236  27.768  1.00  0.00     0.177 A 
HETATM    6  N10 UNL     1      16.354  38.292  27.094  1.00  0.00    -0.281 N 
HETATM    7  C15 UNL     1      16.543  38.936  25.812  1.00  0.00     0.163 C 
HETATM    8  C16 UNL     1      17.239  37.646  27.855  1.00  0.00     0.342 A 
HETATM    9  O5  UNL     1      18.450  37.480  27.576  1.00  0.00    -0.245 OA
ENDROOT
BRANCH   4  10
HETATM   10  C4  UNL     1      14.306  37.333  29.975  1.00  0.00     0.068 A 
HETATM   11  C5  UNL     1      14.404  36.442  31.013  1.00  0.00     0.065 A 
HETATM   12  C6  UNL     1      13.389  36.196  31.944  1.00  0.00     0.082 A 
HETATM   13  C10 UNL     1      12.223  36.872  31.825  1.00  0.00     0.120 A 
HETATM   14  C13 UNL     1      12.101  37.770  30.790  1.00  0.00     0.130 A 
HETATM   15  N8  UNL     1      11.024  38.455  30.596  1.00  0.00    -0.384 N 
HETATM   16  N9  UNL     1      13.114  37.987  29.899  1.00  0.00    -0.339 N 
ATOM     17  H82 UNL     1      10.268  38.293  31.262  1.00  0.00     0.157 HD
ATOM     18  H81 UNL     1      10.934  39.121  29.829  1.00  0.00     0.157 HD
ATOM     19  H9  UNL     1      12.973  38.664  29.149  1.00  0.00     0.167 HD
BRANCH  12  20
HETATM   20  N2  UNL     1      13.578  35.235  32.976  1.00  0.00    -0.297 N 
ATOM     21  H2  UNL     1      13.938  35.559  33.874  1.00  0.00     0.187 HD
BRANCH  20  22
HETATM   22  N3  UNL     1      13.301  33.877  32.833  1.00  0.00    -0.286 N 
HETATM   23  C7  UNL     1      12.993  33.237  33.908  1.00  0.00     0.194 C 
HETATM   24  C8  UNL     1      12.944  33.899  35.179  1.00  0.00     0.124 C 
HETATM   25  N4  UNL     1      12.926  34.450  36.219  1.00  0.00    -0.190 NA
ATOM     26  H3  UNL     1      13.340  33.414  31.924  1.00  0.00     0.188 HD
BRANCH  23  27
HETATM   27  C9  UNL     1      12.678  31.821  33.818  1.00  0.00     0.293 C 
HETATM   28  N5  UNL     1      13.679  30.854  34.192  1.00  0.00    -0.055 NA
HETATM   29  O1  UNL     1      11.583  31.370  33.433  1.00  0.00    -0.269 OA
ENDBRANCH  23  27
ENDBRANCH  20  22
ENDBRANCH  12  20
BRANCH  13  30
HETATM   30  N6  UNL     1      11.139  36.661  32.752  1.00  0.00    -0.292 N 
HETATM   31  N7  UNL     1      10.991  37.582  33.631  1.00  0.00    -0.268 N 
HETATM   32  C11 UNL     1       9.957  37.486  34.600  1.00  0.00     0.259 C 
ATOM     33  H7  UNL     1      11.617  38.388  33.633  1.00  0.00     0.190 HD
HETATM   34  O2  UNL     1      10.259  37.095  35.759  1.00  0.00    -0.269 OA
ATOM     35  H6  UNL     1      10.537  35.839  32.712  1.00  0.00     0.187 HD
BRANCH  32  36
HETATM   36  C12 UNL     1       8.546  37.828  34.299  1.00  0.00     0.268 C 
BRANCH  36  37
HETATM   37  O3  UNL     1       7.955  36.790  33.561  1.00  0.00    -0.392 OA
ATOM     38  H3  UNL     1       7.020  36.770  33.729  1.00  0.00     0.210 HD
ENDBRANCH  36  37
ENDBRANCH  32  36
ENDBRANCH  13  30
ENDBRANCH   4  10
BRANCH   5  39
HETATM   39  O4  UNL     1      14.004  38.796  27.290  1.00  0.00    -0.344 OA
ATOM     40  H4  UNL     1      13.894  39.264  26.470  1.00  0.00     0.219 HD
ENDBRANCH   5  39
TORSDOF 8
ENDMDL
MODEL 5
REMARK VINA RESULT: -9.119175123      1.730      6.879
REMARK  8 active torsions:
REMARK  status: ('A' for Active; 'I' for Inactive)
REMARK    1  A    between atoms: C3_4  and  C4_5 
REMARK    2  A    between atoms: C6_7  and  N2_8 
REMARK    3  A    between atoms: N2_8  and  N3_10 
REMARK    4  A    between atoms: C7_12  and  C9_15 
REMARK    5  A    between atoms: C10_18  and  N6_19 
REMARK       I    between atoms: N7_21  and  C11_23 
REMARK    6  A    between atoms: C11_23  and  C12_25 
REMARK    7  A    between atoms: C12_25  and  O3_26 
REMARK    8  A    between atoms: C14_34  and  O4_35 
ROOT
HETATM    1  C1  UNL     1       5.330  40.789  39.263  1.00  0.00     0.124 C 
HETATM    2  C2  UNL     1       6.045  41.155  40.193  1.00  0.00    -0.063 C 
HETATM    3  N1  UNL     1       6.879  41.597  41.221  1.00  0.00    -0.226 N 
HETATM    4  C3  UNL     1       7.540  40.886  42.141  1.00  0.00     0.129 A 
HETATM    5  C14 UNL     1       8.260  41.814  42.878  1.00  0.00     0.177 A 
HETATM    6  N10 UNL     1       8.030  43.073  42.403  1.00  0.00    -0.281 N 
HETATM    7  C15 UNL     1       8.619  44.279  42.945  1.00  0.00     0.163 C 
HETATM    8  C16 UNL     1       7.180  42.932  41.385  1.00  0.00     0.342 A 
HETATM    9  O5  UNL     1       6.724  43.867  40.685  1.00  0.00    -0.245 OA
ENDROOT
BRANCH   4  10
HETATM   10  C4  UNL     1       7.576  39.440  42.306  1.00  0.00     0.068 A 
HETATM   11  C5  UNL     1       8.035  38.554  41.365  1.00  0.00     0.065 A 
HETATM   12  C6  UNL     1       8.001  37.162  41.506  1.00  0.00     0.082 A 
HETATM   13  C10 UNL     1       7.481  36.638  42.641  1.00  0.00     0.120 A 
HETATM   14  C13 UNL     1       7.013  37.509  43.598  1.00  0.00     0.130 A 
HETATM   15  N8  UNL     1       6.496  37.099  44.706  1.00  0.00    -0.384 N 
HETATM   16  N9  UNL     1       7.063  38.864  43.428  1.00  0.00    -0.339 N 
ATOM     17  H82 UNL     1       6.459  36.087  44.834  1.00  0.00     0.157 HD
ATOM     18  H81 UNL     1       6.150  37.744  45.417  1.00  0.00     0.157 HD
ATOM     19  H9  UNL     1       6.703  39.466  44.168  1.00  0.00     0.167 HD
BRANCH  12  20
HETATM   20  N2  UNL     1       8.482  36.322  40.463  1.00  0.00    -0.297 N 
ATOM     21  H2  UNL     1       7.918  35.515  40.199  1.00  0.00     0.187 HD
BRANCH  20  22
HETATM   22  N3  UNL     1       9.678  36.538  39.782  1.00  0.00    -0.286 N 
HETATM   23  C7  UNL     1       9.603  36.606  38.497  1.00  0.00     0.194 C 
HETATM   24  C8  UNL     1       8.349  36.463  37.817  1.00  0.00     0.124 C 
HETATM   25  N4  UNL     1       7.316  36.325  37.269  1.00  0.00    -0.190 NA
ATOM     26  H3  UNL     1      10.566  36.637  40.274  1.00  0.00     0.188 HD
BRANCH  23  27
HETATM   27  C9  UNL     1      10.816  36.846  37.734  1.00  0.00     0.293 C 
HETATM   28  N5  UNL     1      11.433  38.148  37.785  1.00  0.00    -0.055 NA
HETATM   29  O1  UNL     1      11.377  35.992  37.022  1.00  0.00    -0.269 OA
ENDBRANCH  23  27
ENDBRANCH  20  22
ENDBRANCH  12  20
BRANCH  13  30
HETATM   30  N6  UNL     1       7.417  35.212  42.843  1.00  0.00    -0.292 N 
HETATM   31  N7  UNL     1       6.307  34.667  42.508  1.00  0.00    -0.268 N 
HETATM   32  C11 UNL     1       6.122  33.267  42.661  1.00  0.00     0.259 C 
ATOM     33  H7  UNL     1       5.552  35.241  42.129  1.00  0.00     0.190 HD
HETATM   34  O2  UNL     1       5.472  32.856  43.659  1.00  0.00    -0.269 OA
ATOM     35  H6  UNL     1       8.197  34.678  43.224  1.00  0.00     0.187 HD
BRANCH  32  36
HETATM   36  C12 UNL     1       6.664  32.281  41.696  1.00  0.00     0.268 C 
BRANCH  36  37
HETATM   37  O3  UNL     1       5.644  31.861  40.826  1.00  0.00    -0.392 OA
ATOM     38  H3  UNL     1       6.023  31.582  40.001  1.00  0.00     0.210 HD
ENDBRANCH  36  37
ENDBRANCH  32  36
ENDBRANCH  13  30
ENDBRANCH   4  10
BRANCH   5  39
HETATM   39  O4  UNL     1       9.093  41.553  43.942  1.00  0.00    -0.344 OA
ATOM     40  H4  UNL     1       9.182  42.070  44.734  1.00  0.00     0.219 HD
ENDBRANCH   5  39
TORSDOF 8
ENDMDL
