MODEL 1
REMARK VINA RESULT: -8.982341180      0.000      0.000
REMARK  7 active torsions:
REMARK  status: ('A' for Active; 'I' for Inactive)
REMARK    1  A    between atoms: O1_2  and  C2_3 
REMARK    2  A    between atoms: C2_3  and  C3_5 
REMARK    3  A    between atoms: C3_5  and  C5_13 
REMARK    4  A    between atoms: N1_6  and  N2_8 
REMARK    5  A    between atoms: C6_14  and  N5_15 
REMARK    6  A    between atoms: N5_15  and  C7_17 
REMARK       I    between atoms: N7_23  and  C11_24 
REMARK    7  A    between atoms: C12_29  and  N10_30 
ROOT
HETATM    1  C5  UNL     1       7.345  34.986  39.541  1.00  0.00     0.100 A 
HETATM    2  C6  UNL     1       7.279  35.018  40.888  1.00  0.00     0.115 A 
HETATM    3  C12 UNL     1       6.501  33.912  41.299  1.00  0.00     0.173 A 
HETATM    4  C13 UNL     1       6.119  33.247  40.182  1.00  0.00     0.154 A 
HETATM    5  N11 UNL     1       5.304  32.052  40.155  1.00  0.00    -0.080 NA
HETATM    6  N12 UNL     1       6.627  33.895  39.120  1.00  0.00    -0.334 N 
HETATM    7  C14 UNL     1       6.387  33.423  37.761  1.00  0.00     0.158 C 
ENDROOT
BRANCH   2   8
HETATM    8  N5  UNL     1       7.765  35.929  41.878  1.00  0.00    -0.187 N 
ATOM      9  H5  UNL     1       8.550  35.689  42.484  1.00  0.00     0.184 HD
BRANCH   8  10
HETATM   10  C7  UNL     1       7.094  37.202  41.979  1.00  0.00     0.683 C 
HETATM   11  N6  UNL     1       6.356  37.648  41.042  1.00  0.00    -0.226 N 
HETATM   12  C8  UNL     1       5.702  38.925  41.179  1.00  0.00     0.139 C 
ATOM     13  H6  UNL     1       6.228  37.100  40.191  1.00  0.00     0.177 HD
HETATM   14  C9  UNL     1       6.727  39.891  41.740  1.00  0.00     0.041 C 
HETATM   15  C10 UNL     1       7.124  39.400  43.103  1.00  0.00     0.152 C 
HETATM   16  N7  UNL     1       7.277  37.964  43.159  1.00  0.00    -0.155 N 
HETATM   17  C11 UNL     1       7.611  37.380  44.400  1.00  0.00     0.203 C 
HETATM   18  N8  UNL     1       6.688  36.862  45.120  1.00  0.00    -0.373 N 
HETATM   19  N9  UNL     1       8.949  37.360  44.860  1.00  0.00    -0.063 NA
ATOM     20  H82 UNL     1       5.724  36.876  44.788  1.00  0.00     0.158 HD
ATOM     21  H81 UNL     1       6.929  36.440  46.016  1.00  0.00     0.158 HD
ENDBRANCH   8  10
ENDBRANCH   2   8
BRANCH   1  22
HETATM   22  C3  UNL     1       8.058  35.829  38.625  1.00  0.00     0.153 C 
HETATM   23  N1  UNL     1       9.364  35.902  38.803  1.00  0.00    -0.291 N 
ATOM     24  H1  UNL     1       9.771  35.342  39.552  1.00  0.00     0.187 HD
BRANCH  22  25
HETATM   25  C2  UNL     1       7.528  36.635  37.559  1.00  0.00     0.313 C 
HETATM   26  O2  UNL     1       7.788  36.611  36.349  1.00  0.00    -0.257 OA
BRANCH  25  27
HETATM   27  O1  UNL     1       6.549  37.636  37.860  1.00  0.00    -0.321 OA
HETATM   28  C1  UNL     1       6.862  39.001  37.689  1.00  0.00     0.213 C 
ENDBRANCH  25  27
ENDBRANCH  22  25
BRANCH  23  29
HETATM   29  N2  UNL     1      10.200  36.664  38.064  1.00  0.00    -0.275 N 
HETATM   30  C4  UNL     1      10.655  37.822  38.317  1.00  0.00     0.215 C 
HETATM   31  N3  UNL     1      10.323  38.531  39.499  1.00  0.00    -0.065 NA
HETATM   32  N4  UNL     1      11.533  38.435  37.382  1.00  0.00    -0.065 NA
ATOM     33  H2  UNL     1      10.509  36.252  37.183  1.00  0.00     0.189 HD
ENDBRANCH  23  29
ENDBRANCH   1  22
BRANCH   3  34
HETATM   34  N10 UNL     1       6.196  33.576  42.660  1.00  0.00    -0.110 N 
HETATM   35  O3  UNL     1       5.783  34.389  43.490  1.00  0.00    -0.532 OA
HETATM   36  O4  UNL     1       6.370  32.270  43.060  1.00  0.00    -0.532 OA
ENDBRANCH   3  34
TORSDOF 7
ENDMDL
MODEL 2
REMARK VINA RESULT: -8.692499985      1.876      2.670
REMARK  7 active torsions:
REMARK  status: ('A' for Active; 'I' for Inactive)
REMARK    1  A    between atoms: O1_2  and  C2_3 
REMARK    2  A    between atoms: C2_3  and  C3_5 
REMARK    3  A    between atoms: C3_5  and  C5_13 
REMARK    4  A    between atoms: N1_6  and  N2_8 
REMARK    5  A    between atoms: C6_14  and  N5_15 
REMARK    6  A    between atoms: N5_15  and  C7_17 
REMARK       I    between atoms: N7_23  and  C11_24 
REMARK    7  A    between atoms: C12_29  and  N10_30 
ROOT
HETATM    1  C5  UNL     1       7.314  36.072  40.715  1.00  0.00     0.100 A 
HETATM    2  C6  UNL     1       7.282  36.949  41.739  1.00  0.00     0.115 A 
HETATM    3  C12 UNL     1       6.683  36.294  42.839  1.00  0.00     0.173 A 
HETATM    4  C13 UNL     1       6.370  35.037  42.440  1.00  0.00     0.154 A 
HETATM    5  N11 UNL     1       5.735  34.030  43.264  1.00  0.00    -0.080 NA
HETATM    6  N12 UNL     1       6.750  34.902  41.158  1.00  0.00    -0.334 N 
HETATM    7  C14 UNL     1       6.542  33.651  40.437  1.00  0.00     0.158 C 
ENDROOT
BRANCH   2   8
HETATM    8  N5  UNL     1       7.659  38.322  41.873  1.00  0.00    -0.187 N 
ATOM      9  H5  UNL     1       8.583  38.592  42.211  1.00  0.00     0.184 HD
BRANCH   8  10
HETATM   10  C7  UNL     1       6.671  39.310  41.509  1.00  0.00     0.683 C 
HETATM   11  N6  UNL     1       5.756  39.061  40.659  1.00  0.00    -0.226 N 
HETATM   12  C8  UNL     1       4.786  40.073  40.320  1.00  0.00     0.139 C 
ATOM     13  H6  UNL     1       5.709  38.143  40.216  1.00  0.00     0.177 HD
HETATM   14  C9  UNL     1       5.548  41.368  40.122  1.00  0.00     0.041 C 
HETATM   15  C10 UNL     1       6.190  41.729  41.433  1.00  0.00     0.152 C 
HETATM   16  N7  UNL     1       6.740  40.585  42.121  1.00  0.00    -0.155 N 
HETATM   17  C11 UNL     1       7.336  40.794  43.384  1.00  0.00     0.203 C 
HETATM   18  N8  UNL     1       6.664  40.545  44.445  1.00  0.00    -0.373 N 
HETATM   19  N9  UNL     1       8.663  41.273  43.494  1.00  0.00    -0.063 NA
ATOM     20  H82 UNL     1       5.708  40.200  44.365  1.00  0.00     0.158 HD
ATOM     21  H81 UNL     1       7.094  40.696  45.357  1.00  0.00     0.158 HD
ENDBRANCH   8  10
ENDBRANCH   2   8
BRANCH   1  22
HETATM   22  C3  UNL     1       7.872  36.198  39.400  1.00  0.00     0.153 C 
HETATM   23  N1  UNL     1       9.190  36.211  39.329  1.00  0.00    -0.291 N 
ATOM     24  H1  UNL     1       9.711  36.106  40.200  1.00  0.00     0.187 HD
BRANCH  22  25
HETATM   25  C2  UNL     1       7.179  36.350  38.149  1.00  0.00     0.313 C 
HETATM   26  O2  UNL     1       7.055  35.547  37.215  1.00  0.00    -0.257 OA
BRANCH  25  27
HETATM   27  O1  UNL     1       6.507  37.582  37.867  1.00  0.00    -0.321 OA
HETATM   28  C1  UNL     1       7.240  38.693  37.397  1.00  0.00     0.213 C 
ENDBRANCH  25  27
ENDBRANCH  22  25
BRANCH  23  29
HETATM   29  N2  UNL     1       9.899  36.352  38.188  1.00  0.00    -0.275 N 
HETATM   30  C4  UNL     1      11.056  35.910  37.909  1.00  0.00     0.215 C 
HETATM   31  N3  UNL     1      11.823  35.149  38.826  1.00  0.00    -0.065 NA
HETATM   32  N4  UNL     1      11.607  36.186  36.628  1.00  0.00    -0.065 NA
ATOM     33  H2  UNL     1       9.442  36.888  37.449  1.00  0.00     0.189 HD
ENDBRANCH  23  29
ENDBRANCH   1  22
BRANCH   3  34
HETATM   34  N10 UNL     1       6.468  36.877  44.132  1.00  0.00    -0.110 N 
HETATM   35  O3  UNL     1       5.378  36.881  44.709  1.00  0.00    -0.532 OA
HETATM   36  O4  UNL     1       7.542  37.460  44.767  1.00  0.00    -0.532 OA
ENDBRANCH   3  34
TORSDOF 7
ENDMDL
MODEL 3
REMARK VINA RESULT: -8.498348116      1.377      1.797
REMARK  7 active torsions:
REMARK  status: ('A' for Active; 'I' for Inactive)
REMARK    1  A    between atoms: O1_2  and  C2_3 
REMARK    2  A    between atoms: C2_3  and  C3_5 
REMARK    3  A    between atoms: C3_5  and  C5_13 
REMARK    4  A    between atoms: N1_6  and  N2_8 
REMARK    5  A    between atoms: C6_14  and  N5_15 
REMARK    6  A    between atoms: N5_15  and  C7_17 
REMARK       I    between atoms: N7_23  and  C11_24 
REMARK    7  A    between atoms: C12_29  and  N10_30 
ROOT
HETATM    1  C5  UNL     1       6.843  34.698  40.354  1.00  0.00     0.100 A 
HETATM    2  C6  UNL     1       6.583  34.250  41.600  1.00  0.00     0.115 A 
HETATM    3  C12 UNL     1       5.930  33.003  41.474  1.00  0.00     0.173 A 
HETATM    4  C13 UNL     1       5.814  32.739  40.150  1.00  0.00     0.154 A 
HETATM    5  N11 UNL     1       5.200  31.558  39.582  1.00  0.00    -0.080 NA
HETATM    6  N12 UNL     1       6.363  33.762  39.473  1.00  0.00    -0.334 N 
HETATM    7  C14 UNL     1       6.390  33.774  38.014  1.00  0.00     0.158 C 
ENDROOT
BRANCH   2   8
HETATM    8  N5  UNL     1       6.783  34.798  42.906  1.00  0.00    -0.187 N 
ATOM      9  H5  UNL     1       7.235  34.262  43.647  1.00  0.00     0.184 HD
BRANCH   8  10
HETATM   10  C7  UNL     1       6.315  36.146  43.127  1.00  0.00     0.683 C 
HETATM   11  N6  UNL     1       5.075  36.434  43.131  1.00  0.00    -0.226 N 
HETATM   12  C8  UNL     1       4.645  37.791  43.355  1.00  0.00     0.139 C 
ATOM     13  H6  UNL     1       4.383  35.701  42.974  1.00  0.00     0.177 HD
HETATM   14  C9  UNL     1       5.535  38.683  42.512  1.00  0.00     0.041 C 
HETATM   15  C10 UNL     1       6.945  38.530  43.011  1.00  0.00     0.152 C 
HETATM   16  N7  UNL     1       7.278  37.163  43.340  1.00  0.00    -0.155 N 
HETATM   17  C11 UNL     1       8.565  36.900  43.857  1.00  0.00     0.203 C 
HETATM   18  N8  UNL     1       8.719  36.769  45.121  1.00  0.00    -0.373 N 
HETATM   19  N9  UNL     1       9.684  36.777  43.001  1.00  0.00    -0.063 NA
ATOM     20  H82 UNL     1       7.912  36.857  45.739  1.00  0.00     0.158 HD
ATOM     21  H81 UNL     1       9.648  36.580  45.495  1.00  0.00     0.158 HD
ENDBRANCH   8  10
ENDBRANCH   2   8
BRANCH   1  22
HETATM   22  C3  UNL     1       7.542  35.870  39.914  1.00  0.00     0.153 C 
HETATM   23  N1  UNL     1       8.816  35.946  40.253  1.00  0.00    -0.291 N 
ATOM     24  H1  UNL     1       9.213  35.164  40.774  1.00  0.00     0.187 HD
BRANCH  22  25
HETATM   25  C2  UNL     1       7.025  36.994  39.181  1.00  0.00     0.313 C 
HETATM   26  O2  UNL     1       6.490  38.029  39.600  1.00  0.00    -0.257 OA
BRANCH  25  27
HETATM   27  O1  UNL     1       7.104  36.992  37.752  1.00  0.00    -0.321 OA
HETATM   28  C1  UNL     1       7.595  38.127  37.072  1.00  0.00     0.213 C 
ENDBRANCH  25  27
ENDBRANCH  22  25
BRANCH  23  29
HETATM   29  N2  UNL     1       9.631  36.981  39.959  1.00  0.00    -0.275 N 
HETATM   30  C4  UNL     1      10.467  37.093  39.010  1.00  0.00     0.215 C 
HETATM   31  N3  UNL     1      10.676  36.068  38.053  1.00  0.00    -0.065 NA
HETATM   32  N4  UNL     1      11.223  38.292  38.897  1.00  0.00    -0.065 NA
ATOM     33  H2  UNL     1       9.567  37.784  40.586  1.00  0.00     0.189 HD
ENDBRANCH  23  29
ENDBRANCH   1  22
BRANCH   3  34
HETATM   34  N10 UNL     1       5.491  32.185  42.568  1.00  0.00    -0.110 N 
HETATM   35  O3  UNL     1       6.246  31.478  43.239  1.00  0.00    -0.532 OA
HETATM   36  O4  UNL     1       4.153  32.196  42.890  1.00  0.00    -0.532 OA
ENDBRANCH   3  34
TORSDOF 7
ENDMDL
MODEL 4
REMARK VINA RESULT: -8.284201846      1.585      1.960
REMARK  7 active torsions:
REMARK  status: ('A' for Active; 'I' for Inactive)
REMARK    1  A    between atoms: O1_2  and  C2_3 
REMARK    2  A    between atoms: C2_3  and  C3_5 
REMARK    3  A    between atoms: C3_5  and  C5_13 
REMARK    4  A    between atoms: N1_6  and  N2_8 
REMARK    5  A    between atoms: C6_14  and  N5_15 
REMARK    6  A    between atoms: N5_15  and  C7_17 
REMARK       I    between atoms: N7_23  and  C11_24 
REMARK    7  A    between atoms: C12_29  and  N10_30 
ROOT
HETATM    1  C5  UNL     1       7.363  34.994  39.561  1.00  0.00     0.100 A 
HETATM    2  C6  UNL     1       7.284  34.982  40.908  1.00  0.00     0.115 A 
HETATM    3  C12 UNL     1       6.508  33.859  41.275  1.00  0.00     0.173 A 
HETATM    4  C13 UNL     1       6.140  33.229  40.134  1.00  0.00     0.154 A 
HETATM    5  N11 UNL     1       5.331  32.032  40.060  1.00  0.00    -0.080 NA
HETATM    6  N12 UNL     1       6.655  33.914  39.098  1.00  0.00    -0.334 N 
HETATM    7  C14 UNL     1       6.429  33.485  37.722  1.00  0.00     0.158 C 
ENDROOT
BRANCH   2   8
HETATM    8  N5  UNL     1       7.757  35.862  41.931  1.00  0.00    -0.187 N 
ATOM      9  H5  UNL     1       8.477  35.573  42.594  1.00  0.00     0.184 HD
BRANCH   8  10
HETATM   10  C7  UNL     1       7.167  37.178  41.984  1.00  0.00     0.683 C 
HETATM   11  N6  UNL     1       6.482  37.646  41.018  1.00  0.00    -0.226 N 
HETATM   12  C8  UNL     1       5.908  38.965  41.107  1.00  0.00     0.139 C 
ATOM     13  H6  UNL     1       6.339  37.085  40.178  1.00  0.00     0.177 HD
HETATM   14  C9  UNL     1       6.979  39.878  41.669  1.00  0.00     0.041 C 
HETATM   15  C10 UNL     1       7.312  39.397  43.055  1.00  0.00     0.152 C 
HETATM   16  N7  UNL     1       7.370  37.958  43.149  1.00  0.00    -0.155 N 
HETATM   17  C11 UNL     1       7.636  37.386  44.413  1.00  0.00     0.203 C 
HETATM   18  N8  UNL     1       6.664  36.946  45.121  1.00  0.00    -0.373 N 
HETATM   19  N9  UNL     1       8.958  37.292  44.907  1.00  0.00    -0.063 NA
ATOM     20  H82 UNL     1       5.711  37.014  44.764  1.00  0.00     0.158 HD
ATOM     21  H81 UNL     1       6.856  36.534  46.033  1.00  0.00     0.158 HD
ENDBRANCH   8  10
ENDBRANCH   2   8
BRANCH   1  22
HETATM   22  C3  UNL     1       8.080  35.870  38.680  1.00  0.00     0.153 C 
HETATM   23  N1  UNL     1       7.355  36.500  37.775  1.00  0.00    -0.291 N 
ATOM     24  H1  UNL     1       6.347  36.341  37.782  1.00  0.00     0.187 HD
BRANCH  22  25
HETATM   25  C2  UNL     1       9.495  36.124  38.633  1.00  0.00     0.313 C 
HETATM   26  O2  UNL     1      10.293  35.963  37.700  1.00  0.00    -0.257 OA
BRANCH  25  27
HETATM   27  O1  UNL     1      10.151  36.640  39.795  1.00  0.00    -0.321 OA
HETATM   28  C1  UNL     1      10.227  38.034  40.001  1.00  0.00     0.213 C 
ENDBRANCH  25  27
ENDBRANCH  22  25
BRANCH  23  29
HETATM   29  N2  UNL     1       7.850  37.341  36.840  1.00  0.00    -0.275 N 
HETATM   30  C4  UNL     1       7.657  38.589  36.709  1.00  0.00     0.215 C 
HETATM   31  N3  UNL     1       6.832  39.330  37.591  1.00  0.00    -0.065 NA
HETATM   32  N4  UNL     1       8.292  39.273  35.636  1.00  0.00    -0.065 NA
ATOM     33  H2  UNL     1       8.463  36.914  36.145  1.00  0.00     0.189 HD
ENDBRANCH  23  29
ENDBRANCH   1  22
BRANCH   3  34
HETATM   34  N10 UNL     1       6.193  33.477  42.622  1.00  0.00    -0.110 N 
HETATM   35  O3  UNL     1       6.316  32.328  43.054  1.00  0.00    -0.532 OA
HETATM   36  O4  UNL     1       5.733  34.449  43.481  1.00  0.00    -0.532 OA
ENDBRANCH   3  34
TORSDOF 7
ENDMDL
MODEL 5
REMARK VINA RESULT: -8.050937829      2.137      3.083
REMARK  7 active torsions:
REMARK  status: ('A' for Active; 'I' for Inactive)
REMARK    1  A    between atoms: O1_2  and  C2_3 
REMARK    2  A    between atoms: C2_3  and  C3_5 
REMARK    3  A    between atoms: C3_5  and  C5_13 
REMARK    4  A    between atoms: N1_6  and  N2_8 
REMARK    5  A    between atoms: C6_14  and  N5_15 
REMARK    6  A    between atoms: N5_15  and  C7_17 
REMARK       I    between atoms: N7_23  and  C11_24 
REMARK    7  A    between atoms: C12_29  and  N10_30 
ROOT
HETATM    1  C5  UNL     1       7.646  37.202  40.598  1.00  0.00     0.100 A 
HETATM    2  C6  UNL     1       7.616  37.704  41.850  1.00  0.00     0.115 A 
HETATM    3  C12 UNL     1       7.194  36.667  42.712  1.00  0.00     0.173 A 
HETATM    4  C13 UNL     1       6.980  35.568  41.949  1.00  0.00     0.154 A 
HETATM    5  N11 UNL     1       6.534  34.281  42.438  1.00  0.00    -0.080 NA
HETATM    6  N12 UNL     1       7.251  35.890  40.672  1.00  0.00    -0.334 N 
HETATM    7  C14 UNL     1       7.111  34.911  39.600  1.00  0.00     0.158 C 
ENDROOT
BRANCH   2   8
HETATM    8  N5  UNL     1       7.857  39.004  42.397  1.00  0.00    -0.187 N 
ATOM      9  H5  UNL     1       8.795  39.307  42.660  1.00  0.00     0.184 HD
BRANCH   8  10
HETATM   10  C7  UNL     1       6.712  39.867  42.560  1.00  0.00     0.683 C 
HETATM   11  N6  UNL     1       5.530  39.402  42.659  1.00  0.00    -0.226 N 
HETATM   12  C8  UNL     1       4.410  40.295  42.821  1.00  0.00     0.139 C 
ATOM     13  H6  UNL     1       5.376  38.394  42.624  1.00  0.00     0.177 HD
HETATM   14  C9  UNL     1       4.601  41.429  41.833  1.00  0.00     0.041 C 
HETATM   15  C10 UNL     1       5.862  42.157  42.207  1.00  0.00     0.152 C 
HETATM   16  N7  UNL     1       6.927  41.266  42.604  1.00  0.00    -0.155 N 
HETATM   17  C11 UNL     1       8.151  41.837  43.015  1.00  0.00     0.203 C 
HETATM   18  N8  UNL     1       8.396  41.964  44.266  1.00  0.00    -0.373 N 
HETATM   19  N9  UNL     1       9.109  42.270  42.069  1.00  0.00    -0.063 NA
ATOM     20  H82 UNL     1       7.706  41.651  44.948  1.00  0.00     0.158 HD
ATOM     21  H81 UNL     1       9.280  42.376  44.563  1.00  0.00     0.158 HD
ENDBRANCH   8  10
ENDBRANCH   2   8
BRANCH   1  22
HETATM   22  C3  UNL     1       8.064  37.804  39.365  1.00  0.00     0.153 C 
HETATM   23  N1  UNL     1       9.356  38.042  39.246  1.00  0.00    -0.291 N 
ATOM     24  H1  UNL     1       9.962  37.762  40.018  1.00  0.00     0.187 HD
BRANCH  22  25
HETATM   25  C2  UNL     1       7.249  38.216  38.254  1.00  0.00     0.313 C 
HETATM   26  O2  UNL     1       6.811  37.548  37.308  1.00  0.00    -0.257 OA
BRANCH  25  27
HETATM   27  O1  UNL     1       6.841  39.585  38.156  1.00  0.00    -0.321 OA
HETATM   28  C1  UNL     1       5.632  40.004  38.751  1.00  0.00     0.213 C 
ENDBRANCH  25  27
ENDBRANCH  22  25
BRANCH  23  29
HETATM   29  N2  UNL     1       9.936  38.629  38.176  1.00  0.00    -0.275 N 
HETATM   30  C4  UNL     1      10.881  38.198  37.446  1.00  0.00     0.215 C 
HETATM   31  N3  UNL     1      11.507  36.946  37.669  1.00  0.00    -0.065 NA
HETATM   32  N4  UNL     1      11.332  38.998  36.361  1.00  0.00    -0.065 NA
ATOM     33  H2  UNL     1       9.564  39.544  37.920  1.00  0.00     0.189 HD
ENDBRANCH  23  29
ENDBRANCH   1  22
BRANCH   3  34
HETATM   34  N10 UNL     1       7.039  36.784  44.134  1.00  0.00    -0.110 N 
HETATM   35  O3  UNL     1       5.951  36.729  44.711  1.00  0.00    -0.532 OA
HETATM   36  O4  UNL     1       8.171  36.963  44.896  1.00  0.00    -0.532 OA
ENDBRANCH   3  34
TORSDOF 7
ENDMDL
