MODEL 1
REMARK VINA RESULT: -9.848003143      0.000      0.000
REMARK  10 active torsions:
REMARK  status: ('A' for Active; 'I' for Inactive)
REMARK    1  A    between atoms: N1_1  and  C1_5 
REMARK    2  A    between atoms: C1_5  and  O1_6 
REMARK    3  A    between atoms: C1_5  and  C2_8 
REMARK    4  A    between atoms: C4_10  and  N2_11 
REMARK    5  A    between atoms: N2_11  and  N3_13 
REMARK    6  A    between atoms: C9_24  and  N6_25 
REMARK    7  A    between atoms: N6_25  and  N7_27 
REMARK    8  A    between atoms: C10_29  and  C11_30 
REMARK    9  A    between atoms: C13_32  and  N8_33 
REMARK   10  A    between atoms: C16_38  and  O6_39 
ROOT
HETATM    1  C2  UNL     1      10.579  39.835  35.720  1.00  0.00     0.085 A 
HETATM    2  C3  UNL     1      10.668  38.947  34.673  1.00  0.00     0.080 A 
HETATM    3  C4  UNL     1      10.183  37.664  34.737  1.00  0.00     0.138 A 
HETATM    4  N5  UNL     1       9.600  37.287  35.890  1.00  0.00    -0.174 N 
ATOM      5  H5  UNL     1       9.228  36.342  35.979  1.00  0.00     0.186 HD
HETATM    6  C9  UNL     1       9.500  38.155  36.944  1.00  0.00     0.698 A 
HETATM    7  N9  UNL     1       9.986  39.403  36.847  1.00  0.00    -0.190 N 
ATOM      8  H9  UNL     1       9.903  40.035  37.644  1.00  0.00     0.184 HD
ENDROOT
BRANCH   6   9
HETATM    9  N6  UNL     1       8.940  37.782  38.033  1.00  0.00    -0.132 N 
ATOM     10  H6  UNL     1       8.904  38.444  38.808  1.00  0.00     0.205 HD
BRANCH   9  11
HETATM   11  N7  UNL     1       8.378  36.528  38.216  1.00  0.00    -0.297 N 
HETATM   12  C10 UNL     1       7.385  36.294  38.986  1.00  0.00     0.122 C 
ATOM     13  H7  UNL     1       8.781  35.743  37.705  1.00  0.00     0.186 HD
BRANCH  12  14
HETATM   14  C11 UNL     1       6.890  34.932  39.090  1.00  0.00     0.016 A 
HETATM   15  C12 UNL     1       6.761  34.367  40.322  1.00  0.00     0.051 A 
HETATM   16  C13 UNL     1       6.302  33.091  40.481  1.00  0.00     0.103 A 
HETATM   17  C14 UNL     1       5.962  32.363  39.364  1.00  0.00     0.039 A 
HETATM   18  C15 UNL     1       6.082  32.905  38.123  1.00  0.00     0.040 A 
HETATM   19  C16 UNL     1       6.548  34.195  37.984  1.00  0.00     0.077 A 
BRANCH  16  20
HETATM   20  N8  UNL     1       6.164  32.497  41.758  1.00  0.00    -0.116 N 
HETATM   21  O4  UNL     1       7.185  32.230  42.408  1.00  0.00    -0.532 OA
HETATM   22  O5  UNL     1       4.943  32.207  42.299  1.00  0.00    -0.532 OA
ENDBRANCH  16  20
BRANCH  19  23
HETATM   23  O6  UNL     1       6.691  34.796  36.749  1.00  0.00    -0.360 OA
ATOM     24  H6  UNL     1       5.903  34.940  36.238  1.00  0.00     0.217 HD
ENDBRANCH  19  23
ENDBRANCH  12  14
ENDBRANCH   9  11
ENDBRANCH   6   9
BRANCH   3  25
HETATM   25  N2  UNL     1      10.292  36.784  33.641  1.00  0.00    -0.275 N 
ATOM     26  H2  UNL     1       9.443  36.293  33.362  1.00  0.00     0.189 HD
BRANCH  25  27
HETATM   27  N3  UNL     1      11.427  36.520  32.907  1.00  0.00    -0.215 N 
HETATM   28  C5  UNL     1      11.678  37.145  31.743  1.00  0.00     0.127 A 
HETATM   29  C6  UNL     1      12.798  36.911  30.986  1.00  0.00     0.094 A 
HETATM   30  C7  UNL     1      13.713  35.983  31.449  1.00  0.00     0.250 A 
HETATM   31  O2  UNL     1      14.765  35.726  30.794  1.00  0.00    -0.268 OA
HETATM   32  N4  UNL     1      13.433  35.384  32.606  1.00  0.00    -0.274 N 
HETATM   33  C8  UNL     1      12.320  35.623  33.347  1.00  0.00     0.348 A 
ATOM     34  H4  UNL     1      14.101  34.698  32.959  1.00  0.00     0.173 HD
HETATM   35  O3  UNL     1      12.183  34.972  34.438  1.00  0.00    -0.245 OA
ENDBRANCH  25  27
ENDBRANCH   3  25
BRANCH   1  36
HETATM   36  C1  UNL     1      11.092  41.209  35.659  1.00  0.00     0.368 C 
BRANCH  36  37
HETATM   37  N1  UNL     1      10.606  41.927  34.494  1.00  0.00    -0.047 N 
ATOM     38  H13 UNL     1      10.423  42.907  34.708  1.00  0.00     0.277 HD
ATOM     39  H12 UNL     1      11.341  42.051  33.798  1.00  0.00     0.277 HD
ATOM     40  H11 UNL     1       9.785  41.473  34.092  1.00  0.00     0.277 HD
ENDBRANCH  36  37
BRANCH  36  41
HETATM   41  O1  UNL     1      12.482  41.274  35.754  1.00  0.00    -0.365 OA
ATOM     42  H1  UNL     1      12.800  40.799  36.513  1.00  0.00     0.212 HD
ENDBRANCH  36  41
ENDBRANCH   1  36
TORSDOF 10
ENDMDL
MODEL 2
REMARK VINA RESULT: -9.282474748      1.061      1.278
REMARK  10 active torsions:
REMARK  status: ('A' for Active; 'I' for Inactive)
REMARK    1  A    between atoms: N1_1  and  C1_5 
REMARK    2  A    between atoms: C1_5  and  O1_6 
REMARK    3  A    between atoms: C1_5  and  C2_8 
REMARK    4  A    between atoms: C4_10  and  N2_11 
REMARK    5  A    between atoms: N2_11  and  N3_13 
REMARK    6  A    between atoms: C9_24  and  N6_25 
REMARK    7  A    between atoms: N6_25  and  N7_27 
REMARK    8  A    between atoms: C10_29  and  C11_30 
REMARK    9  A    between atoms: C13_32  and  N8_33 
REMARK   10  A    between atoms: C16_38  and  O6_39 
ROOT
HETATM    1  C2  UNL     1      10.632  39.804  35.661  1.00  0.00     0.085 A 
HETATM    2  C3  UNL     1      10.695  38.919  34.610  1.00  0.00     0.080 A 
HETATM    3  C4  UNL     1      10.216  37.635  34.684  1.00  0.00     0.138 A 
HETATM    4  N5  UNL     1       9.665  37.253  35.851  1.00  0.00    -0.174 N 
ATOM      5  H5  UNL     1       9.298  36.307  35.949  1.00  0.00     0.186 HD
HETATM    6  C9  UNL     1       9.591  38.118  36.910  1.00  0.00     0.698 A 
HETATM    7  N9  UNL     1      10.070  39.368  36.803  1.00  0.00    -0.190 N 
ATOM      8  H9  UNL     1      10.007  39.998  37.603  1.00  0.00     0.184 HD
ENDROOT
BRANCH   6   9
HETATM    9  N6  UNL     1       9.061  37.742  38.013  1.00  0.00    -0.132 N 
ATOM     10  H6  UNL     1       9.075  38.390  38.801  1.00  0.00     0.205 HD
BRANCH   9  11
HETATM   11  N7  UNL     1       8.469  36.501  38.195  1.00  0.00    -0.297 N 
HETATM   12  C10 UNL     1       7.448  36.298  38.935  1.00  0.00     0.122 C 
ATOM     13  H7  UNL     1       8.874  35.702  37.708  1.00  0.00     0.186 HD
BRANCH  12  14
HETATM   14  C11 UNL     1       6.923  34.947  39.041  1.00  0.00     0.016 A 
HETATM   15  C12 UNL     1       6.800  34.380  40.273  1.00  0.00     0.051 A 
HETATM   16  C13 UNL     1       6.314  33.114  40.434  1.00  0.00     0.103 A 
HETATM   17  C14 UNL     1       5.940  32.399  39.320  1.00  0.00     0.039 A 
HETATM   18  C15 UNL     1       6.053  32.943  38.079  1.00  0.00     0.040 A 
HETATM   19  C16 UNL     1       6.546  34.222  37.938  1.00  0.00     0.077 A 
BRANCH  16  20
HETATM   20  N8  UNL     1       6.184  32.518  41.711  1.00  0.00    -0.116 N 
HETATM   21  O4  UNL     1       7.208  32.265  42.363  1.00  0.00    -0.532 OA
HETATM   22  O5  UNL     1       4.966  32.211  42.251  1.00  0.00    -0.532 OA
ENDBRANCH  16  20
BRANCH  19  23
HETATM   23  O6  UNL     1       6.683  34.826  36.703  1.00  0.00    -0.360 OA
ATOM     24  H6  UNL     1       6.414  34.328  35.940  1.00  0.00     0.217 HD
ENDBRANCH  19  23
ENDBRANCH  12  14
ENDBRANCH   9  11
ENDBRANCH   6   9
BRANCH   3  25
HETATM   25  N2  UNL     1      10.298  36.757  33.584  1.00  0.00    -0.275 N 
ATOM     26  H2  UNL     1       9.539  36.085  33.477  1.00  0.00     0.189 HD
BRANCH  25  27
HETATM   27  N3  UNL     1      11.297  36.716  32.637  1.00  0.00    -0.215 N 
HETATM   28  C5  UNL     1      12.394  35.953  32.799  1.00  0.00     0.127 A 
HETATM   29  C6  UNL     1      13.408  35.884  31.879  1.00  0.00     0.094 A 
HETATM   30  C7  UNL     1      13.294  36.639  30.727  1.00  0.00     0.250 A 
HETATM   31  O2  UNL     1      14.198  36.615  29.842  1.00  0.00    -0.268 OA
HETATM   32  N4  UNL     1      12.195  37.382  30.598  1.00  0.00    -0.274 N 
HETATM   33  C8  UNL     1      11.196  37.444  31.517  1.00  0.00     0.348 A 
ATOM     34  H4  UNL     1      12.097  37.943  29.752  1.00  0.00     0.173 HD
HETATM   35  O3  UNL     1      10.200  38.203  31.260  1.00  0.00    -0.245 OA
ENDBRANCH  25  27
ENDBRANCH   3  25
BRANCH   1  36
HETATM   36  C1  UNL     1      11.139  41.180  35.589  1.00  0.00     0.368 C 
BRANCH  36  37
HETATM   37  N1  UNL     1      10.683  41.873  34.397  1.00  0.00    -0.047 N 
ATOM     38  H13 UNL     1      11.192  41.565  33.569  1.00  0.00     0.277 HD
ATOM     39  H12 UNL     1       9.746  41.574  34.127  1.00  0.00     0.277 HD
ATOM     40  H11 UNL     1      10.733  42.885  34.512  1.00  0.00     0.277 HD
ENDBRANCH  36  37
BRANCH  36  41
HETATM   41  O1  UNL     1      12.525  41.255  35.724  1.00  0.00    -0.365 OA
ATOM     42  H1  UNL     1      12.772  41.665  36.544  1.00  0.00     0.212 HD
ENDBRANCH  36  41
ENDBRANCH   1  36
TORSDOF 10
ENDMDL
MODEL 3
REMARK VINA RESULT: -9.189404118      3.021      8.802
REMARK  10 active torsions:
REMARK  status: ('A' for Active; 'I' for Inactive)
REMARK    1  A    between atoms: N1_1  and  C1_5 
REMARK    2  A    between atoms: C1_5  and  O1_6 
REMARK    3  A    between atoms: C1_5  and  C2_8 
REMARK    4  A    between atoms: C4_10  and  N2_11 
REMARK    5  A    between atoms: N2_11  and  N3_13 
REMARK    6  A    between atoms: C9_24  and  N6_25 
REMARK    7  A    between atoms: N6_25  and  N7_27 
REMARK    8  A    between atoms: C10_29  and  C11_30 
REMARK    9  A    between atoms: C13_32  and  N8_33 
REMARK   10  A    between atoms: C16_38  and  O6_39 
ROOT
HETATM    1  C2  UNL     1       7.903  38.893  41.209  1.00  0.00     0.085 A 
HETATM    2  C3  UNL     1       7.319  37.781  41.772  1.00  0.00     0.080 A 
HETATM    3  C4  UNL     1       7.608  36.501  41.371  1.00  0.00     0.138 A 
HETATM    4  N5  UNL     1       8.508  36.358  40.380  1.00  0.00    -0.174 N 
ATOM      5  H5  UNL     1       8.750  35.424  40.051  1.00  0.00     0.186 HD
HETATM    6  C9  UNL     1       9.101  37.451  39.807  1.00  0.00     0.698 A 
HETATM    7  N9  UNL     1       8.795  38.689  40.223  1.00  0.00    -0.190 N 
ATOM      8  H9  UNL     1       9.246  39.492  39.783  1.00  0.00     0.184 HD
ENDROOT
BRANCH   6   9
HETATM    9  N6  UNL     1       9.957  37.299  38.866  1.00  0.00    -0.132 N 
ATOM     10  H6  UNL     1      10.785  36.732  39.054  1.00  0.00     0.205 HD
BRANCH   9  11
HETATM   11  N7  UNL     1       9.821  37.862  37.607  1.00  0.00    -0.297 N 
HETATM   12  C10 UNL     1      10.460  37.468  36.574  1.00  0.00     0.122 C 
ATOM     13  H7  UNL     1       9.169  38.640  37.498  1.00  0.00     0.186 HD
BRANCH  12  14
HETATM   14  C11 UNL     1      10.225  38.144  35.309  1.00  0.00     0.016 A 
HETATM   15  C12 UNL     1       9.355  37.595  34.417  1.00  0.00     0.051 A 
HETATM   16  C13 UNL     1       9.095  38.185  33.214  1.00  0.00     0.103 A 
HETATM   17  C14 UNL     1       9.732  39.364  32.900  1.00  0.00     0.039 A 
HETATM   18  C15 UNL     1      10.605  39.932  33.773  1.00  0.00     0.040 A 
HETATM   19  C16 UNL     1      10.853  39.320  34.983  1.00  0.00     0.077 A 
BRANCH  16  20
HETATM   20  N8  UNL     1       8.192  37.621  32.282  1.00  0.00    -0.116 N 
HETATM   21  O4  UNL     1       7.099  37.199  32.685  1.00  0.00    -0.532 OA
HETATM   22  O5  UNL     1       8.485  37.525  30.950  1.00  0.00    -0.532 OA
ENDBRANCH  16  20
BRANCH  19  23
HETATM   23  O6  UNL     1      11.730  39.851  35.910  1.00  0.00    -0.360 OA
ATOM     24  H6  UNL     1      12.574  40.151  35.592  1.00  0.00     0.217 HD
ENDBRANCH  19  23
ENDBRANCH  12  14
ENDBRANCH   9  11
ENDBRANCH   6   9
BRANCH   3  25
HETATM   25  N2  UNL     1       6.990  35.387  41.974  1.00  0.00    -0.275 N 
ATOM     26  H2  UNL     1       6.824  35.444  42.979  1.00  0.00     0.189 HD
BRANCH  25  27
HETATM   27  N3  UNL     1       6.588  34.229  41.346  1.00  0.00    -0.215 N 
HETATM   28  C5  UNL     1       6.614  34.106  40.006  1.00  0.00     0.127 A 
HETATM   29  C6  UNL     1       6.225  32.969  39.345  1.00  0.00     0.094 A 
HETATM   30  C7  UNL     1       5.784  31.897  40.099  1.00  0.00     0.250 A 
HETATM   31  O2  UNL     1       5.413  30.822  39.544  1.00  0.00    -0.268 OA
HETATM   32  N4  UNL     1       5.773  32.053  41.422  1.00  0.00    -0.274 N 
HETATM   33  C8  UNL     1       6.159  33.184  42.067  1.00  0.00     0.348 A 
ATOM     34  H4  UNL     1       5.451  31.269  41.990  1.00  0.00     0.173 HD
HETATM   35  O3  UNL     1       6.094  33.191  43.343  1.00  0.00    -0.245 OA
ENDBRANCH  25  27
ENDBRANCH   3  25
BRANCH   1  36
HETATM   36  C1  UNL     1       7.602  40.265  41.635  1.00  0.00     0.368 C 
BRANCH  36  37
HETATM   37  N1  UNL     1       6.633  40.910  40.767  1.00  0.00    -0.047 N 
ATOM     38  H13 UNL     1       6.586  41.914  40.939  1.00  0.00     0.277 HD
ATOM     39  H12 UNL     1       6.953  40.931  39.799  1.00  0.00     0.277 HD
ATOM     40  H11 UNL     1       5.714  40.475  40.846  1.00  0.00     0.277 HD
ENDBRANCH  36  37
BRANCH  36  41
HETATM   41  O1  UNL     1       8.745  41.048  41.792  1.00  0.00    -0.365 OA
ATOM     42  H1  UNL     1       8.538  41.975  41.763  1.00  0.00     0.212 HD
ENDBRANCH  36  41
ENDBRANCH   1  36
TORSDOF 10
ENDMDL
MODEL 4
REMARK VINA RESULT: -9.122957064      1.568      1.733
REMARK  10 active torsions:
REMARK  status: ('A' for Active; 'I' for Inactive)
REMARK    1  A    between atoms: N1_1  and  C1_5 
REMARK    2  A    between atoms: C1_5  and  O1_6 
REMARK    3  A    between atoms: C1_5  and  C2_8 
REMARK    4  A    between atoms: C4_10  and  N2_11 
REMARK    5  A    between atoms: N2_11  and  N3_13 
REMARK    6  A    between atoms: C9_24  and  N6_25 
REMARK    7  A    between atoms: N6_25  and  N7_27 
REMARK    8  A    between atoms: C10_29  and  C11_30 
REMARK    9  A    between atoms: C13_32  and  N8_33 
REMARK   10  A    between atoms: C16_38  and  O6_39 
ROOT
HETATM    1  C2  UNL     1       8.959  39.984  35.468  1.00  0.00     0.085 A 
HETATM    2  C3  UNL     1       9.192  39.186  34.371  1.00  0.00     0.080 A 
HETATM    3  C4  UNL     1       9.386  37.831  34.461  1.00  0.00     0.138 A 
HETATM    4  N5  UNL     1       9.340  37.286  35.691  1.00  0.00    -0.174 N 
ATOM      5  H5  UNL     1       9.479  36.282  35.802  1.00  0.00     0.186 HD
HETATM    6  C9  UNL     1       9.108  38.062  36.795  1.00  0.00     0.698 A 
HETATM    7  N9  UNL     1       8.923  39.385  36.671  1.00  0.00    -0.190 N 
ATOM      8  H9  UNL     1       8.753  39.948  37.505  1.00  0.00     0.184 HD
ENDROOT
BRANCH   6   9
HETATM    9  N6  UNL     1       9.064  37.528  37.959  1.00  0.00    -0.132 N 
ATOM     10  H6  UNL     1       9.487  38.033  38.737  1.00  0.00     0.205 HD
BRANCH   9  11
HETATM   11  N7  UNL     1       8.471  36.302  38.218  1.00  0.00    -0.297 N 
HETATM   12  C10 UNL     1       7.385  36.157  38.875  1.00  0.00     0.122 C 
ATOM     13  H7  UNL     1       8.931  35.464  37.863  1.00  0.00     0.186 HD
BRANCH  12  14
HETATM   14  C11 UNL     1       6.867  34.815  39.077  1.00  0.00     0.016 A 
HETATM   15  C12 UNL     1       6.766  34.329  40.346  1.00  0.00     0.051 A 
HETATM   16  C13 UNL     1       6.289  33.075  40.597  1.00  0.00     0.103 A 
HETATM   17  C14 UNL     1       5.900  32.287  39.539  1.00  0.00     0.039 A 
HETATM   18  C15 UNL     1       5.990  32.749  38.263  1.00  0.00     0.040 A 
HETATM   19  C16 UNL     1       6.476  34.018  38.031  1.00  0.00     0.077 A 
BRANCH  16  20
HETATM   20  N8  UNL     1       6.181  32.564  41.912  1.00  0.00    -0.116 N 
HETATM   21  O4  UNL     1       7.217  32.296  42.539  1.00  0.00    -0.532 OA
HETATM   22  O5  UNL     1       4.973  32.354  42.516  1.00  0.00    -0.532 OA
ENDBRANCH  16  20
BRANCH  19  23
HETATM   23  O6  UNL     1       6.591  34.540  36.756  1.00  0.00    -0.360 OA
ATOM     24  H6  UNL     1       6.988  33.989  36.092  1.00  0.00     0.217 HD
ENDBRANCH  19  23
ENDBRANCH  12  14
ENDBRANCH   9  11
ENDBRANCH   6   9
BRANCH   3  25
HETATM   25  N2  UNL     1       9.620  37.046  33.314  1.00  0.00    -0.275 N 
ATOM     26  H2  UNL     1       8.801  36.637  32.864  1.00  0.00     0.189 HD
BRANCH  25  27
HETATM   27  N3  UNL     1      10.841  36.775  32.739  1.00  0.00    -0.215 N 
HETATM   28  C5  UNL     1      11.698  35.890  33.281  1.00  0.00     0.127 A 
HETATM   29  C6  UNL     1      12.921  35.592  32.737  1.00  0.00     0.094 A 
HETATM   30  C7  UNL     1      13.288  36.235  31.570  1.00  0.00     0.250 A 
HETATM   31  O2  UNL     1      14.404  36.000  31.022  1.00  0.00    -0.268 OA
HETATM   32  N4  UNL     1      12.416  37.104  31.060  1.00  0.00    -0.274 N 
HETATM   33  C8  UNL     1      11.207  37.393  31.608  1.00  0.00     0.348 A 
ATOM     34  H4  UNL     1      12.674  37.585  30.198  1.00  0.00     0.173 HD
HETATM   35  O3  UNL     1      10.473  38.250  31.007  1.00  0.00    -0.245 OA
ENDBRANCH  25  27
ENDBRANCH   3  25
BRANCH   1  36
HETATM   36  C1  UNL     1       8.748  41.435  35.380  1.00  0.00     0.368 C 
BRANCH  36  37
HETATM   37  N1  UNL     1       7.673  41.888  36.244  1.00  0.00    -0.047 N 
ATOM     38  H13 UNL     1       7.929  42.738  36.745  1.00  0.00     0.277 HD
ATOM     39  H12 UNL     1       6.888  42.254  35.704  1.00  0.00     0.277 HD
ATOM     40  H11 UNL     1       7.374  41.153  36.884  1.00  0.00     0.277 HD
ENDBRANCH  36  37
BRANCH  36  41
HETATM   41  O1  UNL     1       8.570  41.878  34.070  1.00  0.00    -0.365 OA
ATOM     42  H1  UNL     1       9.305  41.636  33.518  1.00  0.00     0.212 HD
ENDBRANCH  36  41
ENDBRANCH   1  36
TORSDOF 10
ENDMDL
MODEL 5
REMARK VINA RESULT: -9.097738589      2.396      3.392
REMARK  10 active torsions:
REMARK  status: ('A' for Active; 'I' for Inactive)
REMARK    1  A    between atoms: N1_1  and  C1_5 
REMARK    2  A    between atoms: C1_5  and  O1_6 
REMARK    3  A    between atoms: C1_5  and  C2_8 
REMARK    4  A    between atoms: C4_10  and  N2_11 
REMARK    5  A    between atoms: N2_11  and  N3_13 
REMARK    6  A    between atoms: C9_24  and  N6_25 
REMARK    7  A    between atoms: N6_25  and  N7_27 
REMARK    8  A    between atoms: C10_29  and  C11_30 
REMARK    9  A    between atoms: C13_32  and  N8_33 
REMARK   10  A    between atoms: C16_38  and  O6_39 
ROOT
HETATM    1  C2  UNL     1       6.712  39.600  37.753  1.00  0.00     0.085 A 
HETATM    2  C3  UNL     1       7.005  39.772  36.420  1.00  0.00     0.080 A 
HETATM    3  C4  UNL     1       7.937  39.014  35.756  1.00  0.00     0.138 A 
HETATM    4  N5  UNL     1       8.576  38.068  36.468  1.00  0.00    -0.174 N 
ATOM      5  H5  UNL     1       9.277  37.483  36.012  1.00  0.00     0.186 HD
HETATM    6  C9  UNL     1       8.299  37.879  37.795  1.00  0.00     0.698 A 
HETATM    7  N9  UNL     1       7.382  38.639  38.414  1.00  0.00    -0.190 N 
ATOM      8  H9  UNL     1       7.190  38.485  39.404  1.00  0.00     0.184 HD
ENDROOT
BRANCH   6   9
HETATM    9  N6  UNL     1       8.914  36.972  38.459  1.00  0.00    -0.132 N 
ATOM     10  H6  UNL     1       9.917  37.081  38.610  1.00  0.00     0.205 HD
BRANCH   9  11
HETATM   11  N7  UNL     1       8.290  35.851  38.984  1.00  0.00    -0.297 N 
HETATM   12  C10 UNL     1       7.315  35.246  38.422  1.00  0.00     0.122 C 
ATOM     13  H7  UNL     1       8.630  35.486  39.874  1.00  0.00     0.186 HD
BRANCH  12  14
HETATM   14  C11 UNL     1       6.749  34.079  39.077  1.00  0.00     0.016 A 
HETATM   15  C12 UNL     1       6.604  34.087  40.431  1.00  0.00     0.051 A 
HETATM   16  C13 UNL     1       6.079  33.019  41.102  1.00  0.00     0.103 A 
HETATM   17  C14 UNL     1       5.688  31.912  40.386  1.00  0.00     0.039 A 
HETATM   18  C15 UNL     1       5.822  31.880  39.033  1.00  0.00     0.040 A 
HETATM   19  C16 UNL     1       6.355  32.968  38.376  1.00  0.00     0.077 A 
BRANCH  16  20
HETATM   20  N8  UNL     1       5.925  33.019  42.508  1.00  0.00    -0.116 N 
HETATM   21  O4  UNL     1       6.147  34.065  43.136  1.00  0.00    -0.532 OA
HETATM   22  O5  UNL     1       5.541  31.904  43.199  1.00  0.00    -0.532 OA
ENDBRANCH  16  20
BRANCH  19  23
HETATM   23  O6  UNL     1       6.515  32.992  37.003  1.00  0.00    -0.360 OA
ATOM     24  H6  UNL     1       6.267  32.213  36.520  1.00  0.00     0.217 HD
ENDBRANCH  19  23
ENDBRANCH  12  14
ENDBRANCH   9  11
ENDBRANCH   6   9
BRANCH   3  25
HETATM   25  N2  UNL     1       8.208  39.219  34.388  1.00  0.00    -0.275 N 
ATOM     26  H2  UNL     1       7.667  39.944  33.918  1.00  0.00     0.189 HD
BRANCH  25  27
HETATM   27  N3  UNL     1       9.128  38.540  33.621  1.00  0.00    -0.215 N 
HETATM   28  C5  UNL     1      10.436  38.854  33.642  1.00  0.00     0.127 A 
HETATM   29  C6  UNL     1      11.382  38.200  32.895  1.00  0.00     0.094 A 
HETATM   30  C7  UNL     1      10.965  37.164  32.081  1.00  0.00     0.250 A 
HETATM   31  O2  UNL     1      11.792  36.523  31.369  1.00  0.00    -0.268 OA
HETATM   32  N4  UNL     1       9.663  36.878  32.085  1.00  0.00    -0.274 N 
HETATM   33  C8  UNL     1       8.734  37.534  32.828  1.00  0.00     0.348 A 
ATOM     34  H4  UNL     1       9.342  36.115  31.489  1.00  0.00     0.173 HD
HETATM   35  O3  UNL     1       7.519  37.151  32.731  1.00  0.00    -0.245 OA
ENDBRANCH  25  27
ENDBRANCH   3  25
BRANCH   1  36
HETATM   36  C1  UNL     1       5.715  40.404  38.471  1.00  0.00     0.368 C 
BRANCH  36  37
HETATM   37  N1  UNL     1       6.196  40.852  39.765  1.00  0.00    -0.047 N 
ATOM     38  H13 UNL     1       5.603  41.586  40.151  1.00  0.00     0.277 HD
ATOM     39  H12 UNL     1       6.055  40.142  40.483  1.00  0.00     0.277 HD
ATOM     40  H11 UNL     1       7.172  41.146  39.719  1.00  0.00     0.277 HD
ENDBRANCH  36  37
BRANCH  36  41
HETATM   41  O1  UNL     1       4.480  39.766  38.579  1.00  0.00    -0.365 OA
ATOM     42  H1  UNL     1       3.763  40.389  38.544  1.00  0.00     0.212 HD
ENDBRANCH  36  41
ENDBRANCH   1  36
TORSDOF 10
ENDMDL
