MODEL 1
REMARK VINA RESULT: -8.579157513      0.000      0.000
REMARK  10 active torsions:
REMARK  status: ('A' for Active; 'I' for Inactive)
REMARK    1  A    between atoms: C2_2  and  O1_3 
REMARK    2  A    between atoms: O1_3  and  N1_4 
REMARK    3  A    between atoms: N2_6  and  N3_8 
REMARK    4  A    between atoms: N3_8  and  C3_10 
REMARK    5  A    between atoms: C3_10  and  N4_11 
REMARK    6  A    between atoms: C3_10  and  C4_15 
REMARK       I    between atoms: C4_15  and  N5_17 
REMARK    7  A    between atoms: C7_21  and  O4_22 
REMARK    8  A    between atoms: C10_26  and  O5_27 
REMARK    9  A    between atoms: C13_31  and  O6_32 
REMARK   10  A    between atoms: O6_32  and  C14_33 
ROOT
HETATM    1  C4  UNL     1       9.078  37.273  37.234  1.00  0.00     0.278 C 
HETATM    2  O2  UNL     1       8.071  36.746  36.736  1.00  0.00    -0.269 OA
HETATM    3  N5  UNL     1       9.313  37.442  38.582  1.00  0.00    -0.287 N 
HETATM    4  C5  UNL     1      10.267  38.322  39.291  1.00  0.00     0.310 C 
HETATM    5  O3  UNL     1       9.326  38.885  40.256  1.00  0.00    -0.326 OA
HETATM    6  C6  UNL     1       8.584  37.770  40.714  1.00  0.00     0.135 A 
HETATM    7  C7  UNL     1       7.969  37.551  41.907  1.00  0.00     0.117 A 
HETATM    8  C8  UNL     1       7.300  36.344  42.089  1.00  0.00     0.068 A 
HETATM    9  C9  UNL     1       7.263  35.386  41.080  1.00  0.00     0.033 A 
HETATM   10  C10 UNL     1       7.919  35.660  39.857  1.00  0.00     0.108 A 
HETATM   11  C11 UNL     1       8.573  36.861  39.686  1.00  0.00     0.110 A 
HETATM   12  C12 UNL     1       6.496  34.220  41.524  1.00  0.00     0.055 A 
HETATM   13  C13 UNL     1       6.205  33.103  40.905  1.00  0.00     0.163 C 
HETATM   14  C15 UNL     1       6.073  34.570  42.907  1.00  0.00     0.235 A 
HETATM   15  O8  UNL     1       5.382  33.810  43.639  1.00  0.00    -0.283 OA
HETATM   16  C16 UNL     1       6.571  35.880  43.250  1.00  0.00     0.236 A 
HETATM   17  O9  UNL     1       6.405  36.487  44.330  1.00  0.00    -0.283 OA
ENDROOT
BRANCH   1  18
HETATM   18  C3  UNL     1      10.100  37.746  36.230  1.00  0.00     0.390 C 
BRANCH  18  19
HETATM   19  N3  UNL     1      10.082  36.922  35.030  1.00  0.00    -0.282 N 
ATOM     20  H3  UNL     1      10.522  36.003  35.054  1.00  0.00     0.184 HD
BRANCH  19  21
HETATM   21  N2  UNL     1       9.484  37.348  33.855  1.00  0.00    -0.225 N 
HETATM   22  N1  UNL     1       8.387  36.864  33.481  1.00  0.00    -0.188 N 
ATOM     23  H1  UNL     1       7.965  36.152  34.076  1.00  0.00     0.218 HD
ATOM     24  H2  UNL     1       9.939  38.063  33.287  1.00  0.00     0.210 HD
BRANCH  22  25
HETATM   25  O1  UNL     1       7.718  37.208  32.355  1.00  0.00    -0.234 OA
BRANCH  25  26
HETATM   26  C2  UNL     1       8.446  37.561  31.220  1.00  0.00     0.159 C 
HETATM   27  C1  UNL     1       8.473  38.810  30.821  1.00  0.00     0.040 C 
ENDBRANCH  25  26
ENDBRANCH  22  25
ENDBRANCH  19  21
ENDBRANCH  18  19
BRANCH  18  28
HETATM   28  N4  UNL     1       9.726  39.070  35.783  1.00  0.00    -0.048 N 
ATOM     29  H43 UNL     1      10.518  39.655  35.517  1.00  0.00     0.277 HD
ATOM     30  H42 UNL     1       9.260  39.083  34.876  1.00  0.00     0.277 HD
ATOM     31  H41 UNL     1       9.164  39.457  36.542  1.00  0.00     0.277 HD
ENDBRANCH  18  28
ENDBRANCH   1  18
BRANCH  10  32
HETATM   32  O5  UNL     1       7.899  34.747  38.898  1.00  0.00    -0.357 OA
ATOM     33  H5  UNL     1       8.703  34.293  38.676  1.00  0.00     0.217 HD
ENDBRANCH  10  32
BRANCH   7  34
HETATM   34  O4  UNL     1       7.991  38.481  42.925  1.00  0.00    -0.357 OA
ATOM     35  H4  UNL     1       7.198  38.773  43.359  1.00  0.00     0.217 HD
ENDBRANCH   7  34
BRANCH  13  36
HETATM   36  O6  UNL     1       6.550  32.710  39.639  1.00  0.00    -0.275 OA
BRANCH  36  37
HETATM   37  C14 UNL     1       5.682  32.156  38.732  1.00  0.00     0.377 C 
HETATM   38  N6  UNL     1       4.772  31.111  39.068  1.00  0.00    -0.032 NA
HETATM   39  O7  UNL     1       5.730  32.630  37.548  1.00  0.00    -0.242 OA
ENDBRANCH  36  37
ENDBRANCH  13  36
TORSDOF 10
ENDMDL
MODEL 2
REMARK VINA RESULT: -8.409924085      1.640      1.964
REMARK  10 active torsions:
REMARK  status: ('A' for Active; 'I' for Inactive)
REMARK    1  A    between atoms: C2_2  and  O1_3 
REMARK    2  A    between atoms: O1_3  and  N1_4 
REMARK    3  A    between atoms: N2_6  and  N3_8 
REMARK    4  A    between atoms: N3_8  and  C3_10 
REMARK    5  A    between atoms: C3_10  and  N4_11 
REMARK    6  A    between atoms: C3_10  and  C4_15 
REMARK       I    between atoms: C4_15  and  N5_17 
REMARK    7  A    between atoms: C7_21  and  O4_22 
REMARK    8  A    between atoms: C10_26  and  O5_27 
REMARK    9  A    between atoms: C13_31  and  O6_32 
REMARK   10  A    between atoms: O6_32  and  C14_33 
ROOT
HETATM    1  C4  UNL     1       8.802  37.330  37.224  1.00  0.00     0.278 C 
HETATM    2  O2  UNL     1       7.791  36.786  36.754  1.00  0.00    -0.269 OA
HETATM    3  N5  UNL     1       9.085  37.477  38.565  1.00  0.00    -0.287 N 
HETATM    4  C5  UNL     1      10.044  38.368  39.256  1.00  0.00     0.310 C 
HETATM    5  O3  UNL     1       9.127  38.886  40.268  1.00  0.00    -0.326 OA
HETATM    6  C6  UNL     1       8.433  37.742  40.731  1.00  0.00     0.135 A 
HETATM    7  C7  UNL     1       7.872  37.481  41.942  1.00  0.00     0.117 A 
HETATM    8  C8  UNL     1       7.243  36.253  42.123  1.00  0.00     0.068 A 
HETATM    9  C9  UNL     1       7.191  35.315  41.097  1.00  0.00     0.033 A 
HETATM   10  C10 UNL     1       7.791  35.631  39.855  1.00  0.00     0.108 A 
HETATM   11  C11 UNL     1       8.405  36.854  39.684  1.00  0.00     0.110 A 
HETATM   12  C12 UNL     1       6.473  34.120  41.544  1.00  0.00     0.055 A 
HETATM   13  C13 UNL     1       6.189  33.008  40.914  1.00  0.00     0.163 C 
HETATM   14  C15 UNL     1       6.097  34.429  42.950  1.00  0.00     0.235 A 
HETATM   15  O8  UNL     1       5.456  33.636  43.692  1.00  0.00    -0.283 OA
HETATM   16  C16 UNL     1       6.573  35.745  43.302  1.00  0.00     0.236 A 
HETATM   17  O9  UNL     1       6.433  36.325  44.400  1.00  0.00    -0.283 OA
ENDROOT
BRANCH   1  18
HETATM   18  C3  UNL     1       9.771  37.851  36.192  1.00  0.00     0.390 C 
BRANCH  18  19
HETATM   19  N3  UNL     1       9.312  37.557  34.841  1.00  0.00    -0.282 N 
ATOM     20  H3  UNL     1       8.340  37.750  34.596  1.00  0.00     0.184 HD
BRANCH  19  21
HETATM   21  N2  UNL     1      10.153  37.025  33.878  1.00  0.00    -0.225 N 
HETATM   22  N1  UNL     1      11.249  36.504  34.201  1.00  0.00    -0.188 N 
ATOM     23  H1  UNL     1      11.486  36.493  35.193  1.00  0.00     0.218 HD
ATOM     24  H2  UNL     1       9.880  37.056  32.896  1.00  0.00     0.210 HD
BRANCH  22  25
HETATM   25  O1  UNL     1      12.143  35.956  33.345  1.00  0.00    -0.234 OA
BRANCH  25  26
HETATM   26  C2  UNL     1      12.485  34.613  33.495  1.00  0.00     0.159 C 
HETATM   27  C1  UNL     1      12.892  34.167  34.659  1.00  0.00     0.040 C 
ENDBRANCH  25  26
ENDBRANCH  22  25
ENDBRANCH  19  21
ENDBRANCH  18  19
BRANCH  18  28
HETATM   28  N4  UNL     1       9.797  39.295  36.274  1.00  0.00    -0.048 N 
ATOM     29  H43 UNL     1       8.983  39.747  35.858  1.00  0.00     0.277 HD
ATOM     30  H42 UNL     1       9.662  39.657  37.219  1.00  0.00     0.277 HD
ATOM     31  H41 UNL     1      10.683  39.569  35.851  1.00  0.00     0.277 HD
ENDBRANCH  18  28
ENDBRANCH   1  18
BRANCH  10  32
HETATM   32  O5  UNL     1       7.757  34.739  38.878  1.00  0.00    -0.357 OA
ATOM     33  H5  UNL     1       8.572  34.469  38.471  1.00  0.00     0.217 HD
ENDBRANCH  10  32
BRANCH   7  34
HETATM   34  O4  UNL     1       7.909  38.390  42.978  1.00  0.00    -0.357 OA
ATOM     35  H4  UNL     1       7.705  39.309  42.851  1.00  0.00     0.217 HD
ENDBRANCH   7  34
BRANCH  13  36
HETATM   36  O6  UNL     1       6.493  32.651  39.627  1.00  0.00    -0.275 OA
BRANCH  36  37
HETATM   37  C14 UNL     1       5.601  32.107  38.737  1.00  0.00     0.377 C 
HETATM   38  N6  UNL     1       4.719  31.040  39.078  1.00  0.00    -0.032 NA
HETATM   39  O7  UNL     1       5.599  32.613  37.565  1.00  0.00    -0.242 OA
ENDBRANCH  36  37
ENDBRANCH  13  36
TORSDOF 10
ENDMDL
MODEL 3
REMARK VINA RESULT: -8.336190939      3.548      6.879
REMARK  10 active torsions:
REMARK  status: ('A' for Active; 'I' for Inactive)
REMARK    1  A    between atoms: C2_2  and  O1_3 
REMARK    2  A    between atoms: O1_3  and  N1_4 
REMARK    3  A    between atoms: N2_6  and  N3_8 
REMARK    4  A    between atoms: N3_8  and  C3_10 
REMARK    5  A    between atoms: C3_10  and  N4_11 
REMARK    6  A    between atoms: C3_10  and  C4_15 
REMARK       I    between atoms: C4_15  and  N5_17 
REMARK    7  A    between atoms: C7_21  and  O4_22 
REMARK    8  A    between atoms: C10_26  and  O5_27 
REMARK    9  A    between atoms: C13_31  and  O6_32 
REMARK   10  A    between atoms: O6_32  and  C14_33 
ROOT
HETATM    1  C4  UNL     1       6.795  39.101  42.867  1.00  0.00     0.278 C 
HETATM    2  O2  UNL     1       6.083  39.509  41.936  1.00  0.00    -0.269 OA
HETATM    3  N5  UNL     1       7.158  37.790  43.087  1.00  0.00    -0.287 N 
HETATM    4  C5  UNL     1       7.696  37.128  44.296  1.00  0.00     0.310 C 
HETATM    5  O3  UNL     1       6.790  35.983  44.305  1.00  0.00    -0.326 OA
HETATM    6  C6  UNL     1       6.754  35.553  42.956  1.00  0.00     0.135 A 
HETATM    7  C7  UNL     1       6.539  34.317  42.430  1.00  0.00     0.117 A 
HETATM    8  C8  UNL     1       6.560  34.180  41.046  1.00  0.00     0.068 A 
HETATM    9  C9  UNL     1       6.799  35.275  40.221  1.00  0.00     0.033 A 
HETATM   10  C10 UNL     1       7.019  36.539  40.814  1.00  0.00     0.108 A 
HETATM   11  C11 UNL     1       6.989  36.665  42.187  1.00  0.00     0.110 A 
HETATM   12  C12 UNL     1       6.763  34.862  38.816  1.00  0.00     0.055 A 
HETATM   13  C13 UNL     1       6.927  35.555  37.717  1.00  0.00     0.163 C 
HETATM   14  C15 UNL     1       6.480  33.402  38.875  1.00  0.00     0.235 A 
HETATM   15  O8  UNL     1       6.371  32.670  37.854  1.00  0.00    -0.283 OA
HETATM   16  C16 UNL     1       6.356  32.987  40.252  1.00  0.00     0.236 A 
HETATM   17  O9  UNL     1       6.119  31.833  40.669  1.00  0.00    -0.283 OA
ENDROOT
BRANCH   1  18
HETATM   18  C3  UNL     1       7.276  40.180  43.806  1.00  0.00     0.390 C 
BRANCH  18  19
HETATM   19  N3  UNL     1       7.249  41.488  43.166  1.00  0.00    -0.282 N 
ATOM     20  H3  UNL     1       6.453  42.103  43.332  1.00  0.00     0.184 HD
BRANCH  19  21
HETATM   21  N2  UNL     1       8.271  41.922  42.337  1.00  0.00    -0.225 N 
HETATM   22  N1  UNL     1       8.811  43.041  42.517  1.00  0.00    -0.188 N 
ATOM     23  H1  UNL     1       8.464  43.607  43.291  1.00  0.00     0.218 HD
ATOM     24  H2  UNL     1       8.590  41.325  41.573  1.00  0.00     0.210 HD
BRANCH  22  25
HETATM   25  O1  UNL     1       9.813  43.560  41.770  1.00  0.00    -0.234 OA
BRANCH  25  26
HETATM   26  C2  UNL     1       9.964  44.945  41.713  1.00  0.00     0.159 C 
HETATM   27  C1  UNL     1       9.888  45.567  40.561  1.00  0.00     0.040 C 
ENDBRANCH  25  26
ENDBRANCH  22  25
ENDBRANCH  19  21
ENDBRANCH  18  19
BRANCH  18  28
HETATM   28  N4  UNL     1       6.344  40.281  44.907  1.00  0.00    -0.048 N 
ATOM     29  H43 UNL     1       6.765  40.611  45.775  1.00  0.00     0.277 HD
ATOM     30  H42 UNL     1       5.668  41.039  44.807  1.00  0.00     0.277 HD
ATOM     31  H41 UNL     1       5.920  39.356  44.980  1.00  0.00     0.277 HD
ENDBRANCH  18  28
ENDBRANCH   1  18
BRANCH  10  32
HETATM   32  O5  UNL     1       7.260  37.583  40.035  1.00  0.00    -0.357 OA
ATOM     33  H5  UNL     1       8.149  37.908  39.961  1.00  0.00     0.217 HD
ENDBRANCH  10  32
BRANCH   7  34
HETATM   34  O4  UNL     1       6.302  33.214  43.223  1.00  0.00    -0.357 OA
ATOM     35  H4  UNL     1       6.309  32.330  42.875  1.00  0.00     0.217 HD
ENDBRANCH   7  34
BRANCH  13  36
HETATM   36  O6  UNL     1       7.184  36.893  37.579  1.00  0.00    -0.275 OA
BRANCH  36  37
HETATM   37  C14 UNL     1       8.266  37.415  36.915  1.00  0.00     0.377 C 
HETATM   38  N6  UNL     1       9.247  38.230  37.553  1.00  0.00    -0.032 NA
HETATM   39  O7  UNL     1       8.354  37.130  35.674  1.00  0.00    -0.242 OA
ENDBRANCH  36  37
ENDBRANCH  13  36
TORSDOF 10
ENDMDL
MODEL 4
REMARK VINA RESULT: -8.290294246      3.789      9.050
REMARK  10 active torsions:
REMARK  status: ('A' for Active; 'I' for Inactive)
REMARK    1  A    between atoms: C2_2  and  O1_3 
REMARK    2  A    between atoms: O1_3  and  N1_4 
REMARK    3  A    between atoms: N2_6  and  N3_8 
REMARK    4  A    between atoms: N3_8  and  C3_10 
REMARK    5  A    between atoms: C3_10  and  N4_11 
REMARK    6  A    between atoms: C3_10  and  C4_15 
REMARK       I    between atoms: C4_15  and  N5_17 
REMARK    7  A    between atoms: C7_21  and  O4_22 
REMARK    8  A    between atoms: C10_26  and  O5_27 
REMARK    9  A    between atoms: C13_31  and  O6_32 
REMARK   10  A    between atoms: O6_32  and  C14_33 
ROOT
HETATM    1  C4  UNL     1       8.664  38.694  35.834  1.00  0.00     0.278 C 
HETATM    2  O2  UNL     1       9.543  38.233  36.580  1.00  0.00    -0.269 OA
HETATM    3  N5  UNL     1       8.797  38.919  34.481  1.00  0.00    -0.287 N 
HETATM    4  C5  UNL     1       7.990  39.747  33.558  1.00  0.00     0.310 C 
HETATM    5  O3  UNL     1       9.097  40.451  32.916  1.00  0.00    -0.326 OA
HETATM    6  C6  UNL     1      10.050  39.438  32.652  1.00  0.00     0.135 A 
HETATM    7  C7  UNL     1      10.992  39.346  31.674  1.00  0.00     0.117 A 
HETATM    8  C8  UNL     1      11.807  38.219  31.652  1.00  0.00     0.068 A 
HETATM    9  C9  UNL     1      11.664  37.211  32.601  1.00  0.00     0.033 A 
HETATM   10  C10 UNL     1      10.669  37.351  33.597  1.00  0.00     0.108 A 
HETATM   11  C11 UNL     1       9.871  38.474  33.613  1.00  0.00     0.110 A 
HETATM   12  C12 UNL     1      12.642  36.149  32.357  1.00  0.00     0.055 A 
HETATM   13  C13 UNL     1      12.865  35.029  32.998  1.00  0.00     0.163 C 
HETATM   14  C15 UNL     1      13.393  36.616  31.160  1.00  0.00     0.235 A 
HETATM   15  O8  UNL     1      14.335  35.968  30.630  1.00  0.00    -0.283 OA
HETATM   16  C16 UNL     1      12.875  37.893  30.730  1.00  0.00     0.236 A 
HETATM   17  O9  UNL     1      13.270  38.575  29.760  1.00  0.00    -0.283 OA
ENDROOT
BRANCH   1  18
HETATM   18  C3  UNL     1       7.360  39.011  36.523  1.00  0.00     0.390 C 
BRANCH  18  19
HETATM   19  N3  UNL     1       7.226  38.268  37.768  1.00  0.00    -0.282 N 
ATOM     20  H3  UNL     1       7.225  38.778  38.651  1.00  0.00     0.184 HD
BRANCH  19  21
HETATM   21  N2  UNL     1       7.100  36.888  37.790  1.00  0.00    -0.225 N 
HETATM   22  N1  UNL     1       7.995  36.170  38.300  1.00  0.00    -0.188 N 
ATOM     23  H1  UNL     1       8.808  36.646  38.691  1.00  0.00     0.218 HD
ATOM     24  H2  UNL     1       6.270  36.451  37.388  1.00  0.00     0.210 HD
BRANCH  22  25
HETATM   25  O1  UNL     1       7.972  34.818  38.375  1.00  0.00    -0.234 OA
BRANCH  25  26
HETATM   26  C2  UNL     1       6.801  34.186  38.789  1.00  0.00     0.159 C 
HETATM   27  C1  UNL     1       6.306  33.195  38.087  1.00  0.00     0.040 C 
ENDBRANCH  25  26
ENDBRANCH  22  25
ENDBRANCH  19  21
ENDBRANCH  18  19
BRANCH  18  28
HETATM   28  N4  UNL     1       7.375  40.403  36.915  1.00  0.00    -0.048 N 
ATOM     29  H43 UNL     1       6.673  40.641  37.617  1.00  0.00     0.277 HD
ATOM     30  H42 UNL     1       8.190  40.667  37.470  1.00  0.00     0.277 HD
ATOM     31  H41 UNL     1       7.281  40.925  36.044  1.00  0.00     0.277 HD
ENDBRANCH  18  28
ENDBRANCH   1  18
BRANCH  10  32
HETATM   32  O5  UNL     1      10.518  36.389  34.494  1.00  0.00    -0.357 OA
ATOM     33  H5  UNL     1      10.313  36.623  35.392  1.00  0.00     0.217 HD
ENDBRANCH  10  32
BRANCH   7  34
HETATM   34  O4  UNL     1      11.156  40.328  30.721  1.00  0.00    -0.357 OA
ATOM     35  H4  UNL     1      11.466  40.134  29.844  1.00  0.00     0.217 HD
ENDBRANCH   7  34
BRANCH  13  36
HETATM   36  O6  UNL     1      12.225  34.532  34.103  1.00  0.00    -0.275 OA
BRANCH  36  37
HETATM   37  C14 UNL     1      12.852  34.165  35.267  1.00  0.00     0.377 C 
HETATM   38  N6  UNL     1      12.732  34.907  36.479  1.00  0.00    -0.032 NA
HETATM   39  O7  UNL     1      13.564  33.107  35.212  1.00  0.00    -0.242 OA
ENDBRANCH  36  37
ENDBRANCH  13  36
TORSDOF 10
ENDMDL
MODEL 5
REMARK VINA RESULT: -8.231813736      3.589      8.712
REMARK  10 active torsions:
REMARK  status: ('A' for Active; 'I' for Inactive)
REMARK    1  A    between atoms: C2_2  and  O1_3 
REMARK    2  A    between atoms: O1_3  and  N1_4 
REMARK    3  A    between atoms: N2_6  and  N3_8 
REMARK    4  A    between atoms: N3_8  and  C3_10 
REMARK    5  A    between atoms: C3_10  and  N4_11 
REMARK    6  A    between atoms: C3_10  and  C4_15 
REMARK       I    between atoms: C4_15  and  N5_17 
REMARK    7  A    between atoms: C7_21  and  O4_22 
REMARK    8  A    between atoms: C10_26  and  O5_27 
REMARK    9  A    between atoms: C13_31  and  O6_32 
REMARK   10  A    between atoms: O6_32  and  C14_33 
ROOT
HETATM    1  C4  UNL     1       9.933  37.826  37.515  1.00  0.00     0.278 C 
HETATM    2  O2  UNL     1      11.099  37.495  37.783  1.00  0.00    -0.269 OA
HETATM    3  N5  UNL     1       9.457  38.150  36.264  1.00  0.00    -0.287 N 
HETATM    4  C5  UNL     1       8.228  38.865  35.855  1.00  0.00     0.310 C 
HETATM    5  O3  UNL     1       8.852  39.799  34.922  1.00  0.00    -0.326 OA
HETATM    6  C6  UNL     1       9.747  38.999  34.170  1.00  0.00     0.135 A 
HETATM    7  C7  UNL     1      10.199  39.142  32.896  1.00  0.00     0.117 A 
HETATM    8  C8  UNL     1      11.088  38.190  32.404  1.00  0.00     0.068 A 
HETATM    9  C9  UNL     1      11.500  37.120  33.192  1.00  0.00     0.033 A 
HETATM   10  C10 UNL     1      11.001  37.013  34.511  1.00  0.00     0.108 A 
HETATM   11  C11 UNL     1      10.126  37.965  34.990  1.00  0.00     0.110 A 
HETATM   12  C12 UNL     1      12.433  36.275  32.442  1.00  0.00     0.055 A 
HETATM   13  C13 UNL     1      13.063  35.181  32.790  1.00  0.00     0.163 C 
HETATM   14  C15 UNL     1      12.541  36.943  31.118  1.00  0.00     0.235 A 
HETATM   15  O8  UNL     1      13.262  36.514  30.176  1.00  0.00    -0.283 OA
HETATM   16  C16 UNL     1      11.710  38.123  31.099  1.00  0.00     0.236 A 
HETATM   17  O9  UNL     1      11.562  38.922  30.149  1.00  0.00    -0.283 OA
ENDROOT
BRANCH   1  18
HETATM   18  C3  UNL     1       9.002  37.853  38.702  1.00  0.00     0.390 C 
BRANCH  18  19
HETATM   19  N3  UNL     1       8.573  36.510  39.067  1.00  0.00    -0.282 N 
ATOM     20  H3  UNL     1       8.949  36.084  39.914  1.00  0.00     0.184 HD
BRANCH  19  21
HETATM   21  N2  UNL     1       7.669  35.793  38.300  1.00  0.00    -0.225 N 
HETATM   22  N1  UNL     1       7.306  34.642  38.645  1.00  0.00    -0.188 N 
ATOM     23  H1  UNL     1       7.703  34.265  39.505  1.00  0.00     0.218 HD
ATOM     24  H2  UNL     1       7.293  36.206  37.446  1.00  0.00     0.210 HD
BRANCH  22  25
HETATM   25  O1  UNL     1       6.430  33.858  37.972  1.00  0.00    -0.234 OA
BRANCH  25  26
HETATM   26  C2  UNL     1       6.038  32.646  38.538  1.00  0.00     0.159 C 
HETATM   27  C1  UNL     1       6.027  32.504  39.842  1.00  0.00     0.040 C 
ENDBRANCH  25  26
ENDBRANCH  22  25
ENDBRANCH  19  21
ENDBRANCH  18  19
BRANCH  18  28
HETATM   28  N4  UNL     1       9.735  38.339  39.850  1.00  0.00    -0.048 N 
ATOM     29  H43 UNL     1      10.746  38.232  39.770  1.00  0.00     0.277 HD
ATOM     30  H42 UNL     1       9.731  39.355  39.942  1.00  0.00     0.277 HD
ATOM     31  H41 UNL     1       9.330  37.851  40.649  1.00  0.00     0.277 HD
ENDBRANCH  18  28
ENDBRANCH   1  18
BRANCH  10  32
HETATM   32  O5  UNL     1      11.378  35.990  35.261  1.00  0.00    -0.357 OA
ATOM     33  H5  UNL     1      10.950  35.847  36.097  1.00  0.00     0.217 HD
ENDBRANCH  10  32
BRANCH   7  34
HETATM   34  O4  UNL     1       9.807  40.191  32.092  1.00  0.00    -0.357 OA
ATOM     35  H4  UNL     1       9.985  40.206  31.159  1.00  0.00     0.217 HD
ENDBRANCH   7  34
BRANCH  13  36
HETATM   36  O6  UNL     1      13.021  34.511  33.984  1.00  0.00    -0.275 OA
BRANCH  36  37
HETATM   37  C14 UNL     1      12.763  33.169  34.116  1.00  0.00     0.377 C 
HETATM   38  N6  UNL     1      13.619  32.282  34.833  1.00  0.00    -0.032 NA
HETATM   39  O7  UNL     1      11.698  32.745  33.554  1.00  0.00    -0.242 OA
ENDBRANCH  36  37
ENDBRANCH  13  36
TORSDOF 10
ENDMDL
