MODEL 1
REMARK VINA RESULT: -8.088531135      0.000      0.000
REMARK  13 active torsions:
REMARK  status: ('A' for Active; 'I' for Inactive)
REMARK    1  A    between atoms: N2_5  and  N3_6 
REMARK    2  A    between atoms: C3_9  and  C4_10 
REMARK    3  A    between atoms: C4_10  and  O2_11 
REMARK    4  A    between atoms: C4_10  and  O3_13 
REMARK    5  A    between atoms: C6_18  and  C7_19 
REMARK    6  A    between atoms: C7_19  and  N5_20 
REMARK    7  A    between atoms: N6_22  and  N7_24 
REMARK    8  A    between atoms: N7_24  and  C8_26 
REMARK    9  A    between atoms: C8_26  and  C9_27 
REMARK   10  A    between atoms: C8_26  and  C10_30 
REMARK   11  A    between atoms: C10_30  and  O6_31 
REMARK   12  A    between atoms: C11_36  and  O7_37 
REMARK   13  A    between atoms: N9_39  and  N10_40 
ROOT
HETATM    1  N5  UNL     1      27.435  36.725   8.202  1.00  0.00    -0.315 N 
ATOM      2  H5  UNL     1      27.686  36.849   9.182  1.00  0.00     0.182 HD
HETATM    3  N6  UNL     1      26.228  36.708   7.891  1.00  0.00    -0.250 N 
ATOM      4  H6  UNL     1      25.546  36.820   8.642  1.00  0.00     0.207 HD
ENDROOT
BRANCH   1   5
HETATM    5  C7  UNL     1      28.494  36.576   7.226  1.00  0.00     0.217 C 
BRANCH   5   6
HETATM    6  C6  UNL     1      29.246  35.318   7.445  1.00  0.00     0.102 A 
HETATM    7  N4  UNL     1      29.133  34.252   6.636  1.00  0.00    -0.341 N 
HETATM    8  C5  UNL     1      29.934  33.275   7.094  1.00  0.00     0.092 A 
ATOM      9  H4  UNL     1      28.536  34.193   5.811  1.00  0.00     0.167 HD
HETATM   10  C3  UNL     1      30.234  31.993   6.700  1.00  0.00     0.120 A 
HETATM   11  C12 UNL     1      30.570  33.759   8.238  1.00  0.00     0.093 A 
HETATM   12  N2  UNL     1      31.096  31.188   7.345  1.00  0.00    -0.222 N 
HETATM   13  C2  UNL     1      31.710  31.646   8.442  1.00  0.00     0.293 A 
HETATM   14  C1  UNL     1      31.451  32.923   8.890  1.00  0.00     0.145 A 
HETATM   15  O1  UNL     1      32.524  30.898   9.059  1.00  0.00    -0.264 OA
HETATM   16  N1  UNL     1      32.121  33.376  10.057  1.00  0.00    -0.094 NA
HETATM   17  N11 UNL     1      30.127  35.014   8.427  1.00  0.00    -0.341 N 
ATOM     18  H11 UNL     1      30.408  35.636   9.185  1.00  0.00     0.167 HD
BRANCH  10  19
HETATM   19  C4  UNL     1      29.568  31.447   5.479  1.00  0.00     0.309 C 
BRANCH  19  20
HETATM   20  O2  UNL     1      29.437  32.422   4.497  1.00  0.00    -0.366 OA
ATOM     21  H2  UNL     1      28.590  32.850   4.548  1.00  0.00     0.213 HD
ENDBRANCH  19  20
BRANCH  19  22
HETATM   22  O3  UNL     1      28.356  30.904   5.849  1.00  0.00    -0.366 OA
ATOM     23  H3  UNL     1      27.673  31.310   5.327  1.00  0.00     0.213 HD
ENDBRANCH  19  22
ENDBRANCH  10  19
BRANCH  12  24
HETATM   24  N3  UNL     1      31.360  29.903   6.902  1.00  0.00    -0.335 N 
ATOM     25  H32 UNL     1      30.610  29.254   6.668  1.00  0.00     0.177 HD
ATOM     26  H31 UNL     1      32.328  29.594   6.805  1.00  0.00     0.177 HD
ENDBRANCH  12  24
ENDBRANCH   5   6
ENDBRANCH   1   5
BRANCH   3  27
HETATM   27  N7  UNL     1      25.738  36.548   6.592  1.00  0.00    -0.301 N 
ATOM     28  H7  UNL     1      26.067  37.181   5.863  1.00  0.00     0.183 HD
BRANCH  27  29
HETATM   29  C8  UNL     1      24.780  35.519   6.236  1.00  0.00     0.282 C 
BRANCH  29  30
HETATM   30  C9  UNL     1      24.433  35.674   4.830  1.00  0.00     0.204 C 
HETATM   31  O4  UNL     1      24.228  34.666   4.114  1.00  0.00    -0.646 OA
HETATM   32  O5  UNL     1      24.320  36.929   4.251  1.00  0.00    -0.646 OA
ENDBRANCH  29  30
BRANCH  29  33
HETATM   33  C10 UNL     1      23.633  35.628   7.185  1.00  0.00     0.342 C 
HETATM   34  N8  UNL     1      22.382  35.342   6.462  1.00  0.00     0.017 N 
HETATM   35  C11 UNL     1      21.748  36.448   7.161  1.00  0.00     0.428 C 
ATOM     36  H82 UNL     1      22.373  35.303   5.443  1.00  0.00     0.287 HD
ATOM     37  H81 UNL     1      21.971  34.408   6.493  1.00  0.00     0.287 HD
HETATM   38  N9  UNL     1      23.095  36.882   7.513  1.00  0.00    -0.122 NA
BRANCH  33  39
HETATM   39  O6  UNL     1      23.736  34.774   8.278  1.00  0.00    -0.349 OA
ATOM     40  H6  UNL     1      23.168  34.014   8.218  1.00  0.00     0.214 HD
ENDBRANCH  33  39
BRANCH  35  41
HETATM   41  O7  UNL     1      21.002  36.014   8.230  1.00  0.00    -0.357 OA
ATOM     42  H7  UNL     1      20.118  36.363   8.207  1.00  0.00     0.213 HD
ENDBRANCH  35  41
BRANCH  38  43
HETATM   43  N10 UNL     1      23.523  38.008   6.826  1.00  0.00    -0.356 NA
ATOM     44 2H10 UNL     1      23.919  38.734   7.424  1.00  0.00     0.171 HD
ATOM     45 1H10 UNL     1      22.832  38.654   6.444  1.00  0.00     0.171 HD
ENDBRANCH  38  43
ENDBRANCH  29  33
ENDBRANCH  27  29
ENDBRANCH   3  27
TORSDOF 13
ENDMDL
MODEL 2
REMARK VINA RESULT: -8.071914159      2.464      4.463
REMARK  13 active torsions:
REMARK  status: ('A' for Active; 'I' for Inactive)
REMARK    1  A    between atoms: N2_5  and  N3_6 
REMARK    2  A    between atoms: C3_9  and  C4_10 
REMARK    3  A    between atoms: C4_10  and  O2_11 
REMARK    4  A    between atoms: C4_10  and  O3_13 
REMARK    5  A    between atoms: C6_18  and  C7_19 
REMARK    6  A    between atoms: C7_19  and  N5_20 
REMARK    7  A    between atoms: N6_22  and  N7_24 
REMARK    8  A    between atoms: N7_24  and  C8_26 
REMARK    9  A    between atoms: C8_26  and  C9_27 
REMARK   10  A    between atoms: C8_26  and  C10_30 
REMARK   11  A    between atoms: C10_30  and  O6_31 
REMARK   12  A    between atoms: C11_36  and  O7_37 
REMARK   13  A    between atoms: N9_39  and  N10_40 
ROOT
HETATM    1  N5  UNL     1      24.441  38.273   4.949  1.00  0.00    -0.315 N 
ATOM      2  H5  UNL     1      25.065  39.080   4.942  1.00  0.00     0.182 HD
HETATM    3  N6  UNL     1      23.466  38.277   5.725  1.00  0.00    -0.250 N 
ATOM      4  H6  UNL     1      23.341  39.096   6.321  1.00  0.00     0.207 HD
ENDROOT
BRANCH   1   5
HETATM    5  C7  UNL     1      24.724  37.168   4.057  1.00  0.00     0.217 C 
BRANCH   5   6
HETATM    6  C6  UNL     1      25.852  36.352   4.563  1.00  0.00     0.102 A 
HETATM    7  N4  UNL     1      26.482  36.616   5.720  1.00  0.00    -0.341 N 
HETATM    8  C5  UNL     1      27.453  35.704   5.902  1.00  0.00     0.092 A 
ATOM      9  H4  UNL     1      26.260  37.383   6.355  1.00  0.00     0.167 HD
HETATM   10  C3  UNL     1      28.399  35.466   6.869  1.00  0.00     0.120 A 
HETATM   11  C12 UNL     1      27.422  34.839   4.808  1.00  0.00     0.093 A 
HETATM   12  N2  UNL     1      29.287  34.457   6.823  1.00  0.00    -0.222 N 
HETATM   13  C2  UNL     1      29.263  33.623   5.777  1.00  0.00     0.293 A 
HETATM   14  C1  UNL     1      28.338  33.809   4.773  1.00  0.00     0.145 A 
HETATM   15  O1  UNL     1      30.093  32.670   5.721  1.00  0.00    -0.264 OA
HETATM   16  N1  UNL     1      28.341  32.905   3.679  1.00  0.00    -0.094 NA
HETATM   17  N11 UNL     1      26.430  35.262   4.005  1.00  0.00    -0.341 N 
ATOM     18  H11 UNL     1      26.158  34.833   3.121  1.00  0.00     0.167 HD
BRANCH  10  19
HETATM   19  C4  UNL     1      28.457  36.376   8.053  1.00  0.00     0.309 C 
BRANCH  19  20
HETATM   20  O2  UNL     1      27.185  36.642   8.546  1.00  0.00    -0.366 OA
ATOM     21  H2  UNL     1      27.036  37.577   8.630  1.00  0.00     0.213 HD
ENDBRANCH  19  20
BRANCH  19  22
HETATM   22  O3  UNL     1      29.132  37.523   7.689  1.00  0.00    -0.366 OA
ATOM     23  H3  UNL     1      28.978  37.681   6.764  1.00  0.00     0.213 HD
ENDBRANCH  19  22
ENDBRANCH  10  19
BRANCH  12  24
HETATM   24  N3  UNL     1      30.220  34.265   7.828  1.00  0.00    -0.335 N 
ATOM     25  H32 UNL     1      31.079  34.814   7.872  1.00  0.00     0.177 HD
ATOM     26  H31 UNL     1      30.050  33.558   8.543  1.00  0.00     0.177 HD
ENDBRANCH  12  24
ENDBRANCH   5   6
ENDBRANCH   1   5
BRANCH   3  27
HETATM   27  N7  UNL     1      22.531  37.244   5.842  1.00  0.00    -0.301 N 
ATOM     28  H7  UNL     1      22.129  36.850   4.992  1.00  0.00     0.183 HD
BRANCH  27  29
HETATM   29  C8  UNL     1      22.108  36.711   7.123  1.00  0.00     0.282 C 
BRANCH  29  30
HETATM   30  C9  UNL     1      23.247  36.054   7.751  1.00  0.00     0.204 C 
HETATM   31  O4  UNL     1      24.364  36.621   7.785  1.00  0.00    -0.646 OA
HETATM   32  O5  UNL     1      23.126  34.798   8.323  1.00  0.00    -0.646 OA
ENDBRANCH  29  30
BRANCH  29  33
HETATM   33  C10 UNL     1      20.930  35.830   6.873  1.00  0.00     0.342 C 
HETATM   34  N8  UNL     1      21.361  34.665   6.081  1.00  0.00     0.017 N 
HETATM   35  C11 UNL     1      20.155  34.790   5.277  1.00  0.00     0.428 C 
ATOM     36  H82 UNL     1      22.278  34.655   5.635  1.00  0.00     0.287 HD
ATOM     37  H81 UNL     1      21.583  33.782   6.542  1.00  0.00     0.287 HD
HETATM   38  N9  UNL     1      20.022  36.127   5.846  1.00  0.00    -0.122 NA
BRANCH  33  39
HETATM   39  O6  UNL     1      20.312  35.388   8.038  1.00  0.00    -0.349 OA
ATOM     40  H6  UNL     1      19.436  35.737   8.157  1.00  0.00     0.214 HD
ENDBRANCH  33  39
BRANCH  35  41
HETATM   41  O7  UNL     1      19.180  33.910   5.682  1.00  0.00    -0.357 OA
ATOM     42  H7  UNL     1      18.311  34.215   5.447  1.00  0.00     0.213 HD
ENDBRANCH  35  41
BRANCH  38  43
HETATM   43  N10 UNL     1      20.312  37.150   4.954  1.00  0.00    -0.356 NA
ATOM     44 2H10 UNL     1      20.706  37.983   5.393  1.00  0.00     0.171 HD
ATOM     45 1H10 UNL     1      19.548  37.687   4.543  1.00  0.00     0.171 HD
ENDBRANCH  38  43
ENDBRANCH  29  33
ENDBRANCH  27  29
ENDBRANCH   3  27
TORSDOF 13
ENDMDL
MODEL 3
REMARK VINA RESULT: -8.061834431      5.337      9.003
REMARK  13 active torsions:
REMARK  status: ('A' for Active; 'I' for Inactive)
REMARK    1  A    between atoms: N2_5  and  N3_6 
REMARK    2  A    between atoms: C3_9  and  C4_10 
REMARK    3  A    between atoms: C4_10  and  O2_11 
REMARK    4  A    between atoms: C4_10  and  O3_13 
REMARK    5  A    between atoms: C6_18  and  C7_19 
REMARK    6  A    between atoms: C7_19  and  N5_20 
REMARK    7  A    between atoms: N6_22  and  N7_24 
REMARK    8  A    between atoms: N7_24  and  C8_26 
REMARK    9  A    between atoms: C8_26  and  C9_27 
REMARK   10  A    between atoms: C8_26  and  C10_30 
REMARK   11  A    between atoms: C10_30  and  O6_31 
REMARK   12  A    between atoms: C11_36  and  O7_37 
REMARK   13  A    between atoms: N9_39  and  N10_40 
ROOT
HETATM    1  N5  UNL     1      19.891  31.215   3.297  1.00  0.00    -0.315 N 
ATOM      2  H5  UNL     1      19.709  31.812   2.490  1.00  0.00     0.182 HD
HETATM    3  N6  UNL     1      18.937  30.606   3.818  1.00  0.00    -0.250 N 
ATOM      4  H6  UNL     1      18.012  30.739   3.407  1.00  0.00     0.207 HD
ENDROOT
BRANCH   1   5
HETATM    5  C7  UNL     1      21.248  31.109   3.790  1.00  0.00     0.217 C 
BRANCH   5   6
HETATM    6  C6  UNL     1      21.673  32.364   4.453  1.00  0.00     0.102 A 
HETATM    7  N4  UNL     1      22.902  32.884   4.307  1.00  0.00    -0.341 N 
HETATM    8  C5  UNL     1      22.981  34.017   5.026  1.00  0.00     0.092 A 
ATOM      9  H4  UNL     1      23.653  32.485   3.744  1.00  0.00     0.167 HD
HETATM   10  C3  UNL     1      23.953  34.959   5.262  1.00  0.00     0.120 A 
HETATM   11  C12 UNL     1      21.744  34.204   5.644  1.00  0.00     0.093 A 
HETATM   12  N2  UNL     1      23.783  36.039   6.045  1.00  0.00    -0.222 N 
HETATM   13  C2  UNL     1      22.600  36.225   6.641  1.00  0.00     0.293 A 
HETATM   14  C1  UNL     1      21.583  35.316   6.445  1.00  0.00     0.145 A 
HETATM   15  O1  UNL     1      22.427  37.237   7.380  1.00  0.00    -0.264 OA
HETATM   16  N1  UNL     1      20.341  35.546   7.092  1.00  0.00    -0.094 NA
HETATM   17  N11 UNL     1      20.964  33.175   5.273  1.00  0.00    -0.341 N 
ATOM     18  H11 UNL     1      19.997  33.028   5.562  1.00  0.00     0.167 HD
BRANCH  10  19
HETATM   19  C4  UNL     1      25.289  34.785   4.614  1.00  0.00     0.309 C 
BRANCH  19  20
HETATM   20  O2  UNL     1      26.299  34.676   5.563  1.00  0.00    -0.366 OA
ATOM     21  H2  UNL     1      27.073  34.265   5.196  1.00  0.00     0.213 HD
ENDBRANCH  19  20
BRANCH  19  22
HETATM   22  O3  UNL     1      25.492  35.836   3.745  1.00  0.00    -0.366 OA
ATOM     23  H3  UNL     1      24.735  36.409   3.783  1.00  0.00     0.213 HD
ENDBRANCH  19  22
ENDBRANCH  10  19
BRANCH  12  24
HETATM   24  N3  UNL     1      24.801  36.956   6.247  1.00  0.00    -0.335 N 
ATOM     25  H32 UNL     1      24.938  37.411   7.150  1.00  0.00     0.177 HD
ATOM     26  H31 UNL     1      25.431  37.185   5.479  1.00  0.00     0.177 HD
ENDBRANCH  12  24
ENDBRANCH   5   6
ENDBRANCH   1   5
BRANCH   3  27
HETATM   27  N7  UNL     1      19.036  29.756   4.923  1.00  0.00    -0.301 N 
ATOM     28  H7  UNL     1      19.507  28.859   4.809  1.00  0.00     0.183 HD
BRANCH  27  29
HETATM   29  C8  UNL     1      18.498  30.097   6.226  1.00  0.00     0.282 C 
BRANCH  29  30
HETATM   30  C9  UNL     1      17.885  28.907   6.800  1.00  0.00     0.204 C 
HETATM   31  O4  UNL     1      17.645  28.850   8.029  1.00  0.00    -0.646 OA
HETATM   32  O5  UNL     1      17.553  27.817   6.011  1.00  0.00    -0.646 OA
ENDBRANCH  29  30
BRANCH  29  33
HETATM   33  C10 UNL     1      17.576  31.255   6.039  1.00  0.00     0.342 C 
HETATM   34  N8  UNL     1      16.655  31.326   7.188  1.00  0.00     0.017 N 
HETATM   35  C11 UNL     1      15.564  31.614   6.271  1.00  0.00     0.428 C 
ATOM     36  H82 UNL     1      16.586  30.546   7.842  1.00  0.00     0.287 HD
ATOM     37  H81 UNL     1      16.852  31.953   7.968  1.00  0.00     0.287 HD
HETATM   38  N9  UNL     1      16.449  31.145   5.210  1.00  0.00    -0.122 NA
BRANCH  33  39
HETATM   39  O6  UNL     1      18.235  32.473   5.906  1.00  0.00    -0.349 OA
ATOM     40  H6  UNL     1      18.380  32.727   5.002  1.00  0.00     0.214 HD
ENDBRANCH  33  39
BRANCH  35  41
HETATM   41  O7  UNL     1      15.288  32.959   6.215  1.00  0.00    -0.357 OA
ATOM     42  H7  UNL     1      14.626  33.156   5.562  1.00  0.00     0.213 HD
ENDBRANCH  35  41
BRANCH  38  43
HETATM   43  N10 UNL     1      16.102  29.905   4.694  1.00  0.00    -0.356 NA
ATOM     44 2H10 UNL     1      16.332  29.787   3.707  1.00  0.00     0.171 HD
ATOM     45 1H10 UNL     1      15.119  29.690   4.525  1.00  0.00     0.171 HD
ENDBRANCH  38  43
ENDBRANCH  29  33
ENDBRANCH  27  29
ENDBRANCH   3  27
TORSDOF 13
ENDMDL
MODEL 4
REMARK VINA RESULT: -7.953775305      5.423      9.240
REMARK  13 active torsions:
REMARK  status: ('A' for Active; 'I' for Inactive)
REMARK    1  A    between atoms: N2_5  and  N3_6 
REMARK    2  A    between atoms: C3_9  and  C4_10 
REMARK    3  A    between atoms: C4_10  and  O2_11 
REMARK    4  A    between atoms: C4_10  and  O3_13 
REMARK    5  A    between atoms: C6_18  and  C7_19 
REMARK    6  A    between atoms: C7_19  and  N5_20 
REMARK    7  A    between atoms: N6_22  and  N7_24 
REMARK    8  A    between atoms: N7_24  and  C8_26 
REMARK    9  A    between atoms: C8_26  and  C9_27 
REMARK   10  A    between atoms: C8_26  and  C10_30 
REMARK   11  A    between atoms: C10_30  and  O6_31 
REMARK   12  A    between atoms: C11_36  and  O7_37 
REMARK   13  A    between atoms: N9_39  and  N10_40 
ROOT
HETATM    1  N5  UNL     1      19.919  30.992   3.360  1.00  0.00    -0.315 N 
ATOM      2  H5  UNL     1      19.827  31.606   2.551  1.00  0.00     0.182 HD
HETATM    3  N6  UNL     1      18.892  30.466   3.832  1.00  0.00    -0.250 N 
ATOM      4  H6  UNL     1      18.003  30.679   3.379  1.00  0.00     0.207 HD
ENDROOT
BRANCH   1   5
HETATM    5  C7  UNL     1      21.237  30.767   3.916  1.00  0.00     0.217 C 
BRANCH   5   6
HETATM    6  C6  UNL     1      21.839  32.037   4.387  1.00  0.00     0.102 A 
HETATM    7  N4  UNL     1      21.111  33.042   4.901  1.00  0.00    -0.341 N 
HETATM    8  C5  UNL     1      21.937  34.048   5.235  1.00  0.00     0.092 A 
ATOM      9  H4  UNL     1      20.097  33.041   5.018  1.00  0.00     0.167 HD
HETATM   10  C3  UNL     1      21.782  35.297   5.786  1.00  0.00     0.120 A 
HETATM   11  C12 UNL     1      23.234  33.646   4.911  1.00  0.00     0.093 A 
HETATM   12  N2  UNL     1      22.796  36.145   6.030  1.00  0.00    -0.222 N 
HETATM   13  C2  UNL     1      24.042  35.767   5.722  1.00  0.00     0.293 A 
HETATM   14  C1  UNL     1      24.265  34.525   5.166  1.00  0.00     0.145 A 
HETATM   15  O1  UNL     1      25.006  36.555   5.947  1.00  0.00    -0.264 OA
HETATM   16  N1  UNL     1      25.599  34.158   4.854  1.00  0.00    -0.094 NA
HETATM   17  N11 UNL     1      23.140  32.409   4.394  1.00  0.00    -0.341 N 
ATOM     18  H11 UNL     1      23.921  31.844   4.061  1.00  0.00     0.167 HD
BRANCH  10  19
HETATM   19  C4  UNL     1      20.405  35.755   6.142  1.00  0.00     0.309 C 
BRANCH  19  20
HETATM   20  O2  UNL     1      20.064  36.912   5.452  1.00  0.00    -0.366 OA
ATOM     21  H2  UNL     1      19.180  37.190   5.660  1.00  0.00     0.213 HD
ENDBRANCH  19  20
BRANCH  19  22
HETATM   22  O3  UNL     1      20.339  35.918   7.510  1.00  0.00    -0.366 OA
ATOM     23  H3  UNL     1      20.269  35.060   7.912  1.00  0.00     0.213 HD
ENDBRANCH  19  22
ENDBRANCH  10  19
BRANCH  12  24
HETATM   24  N3  UNL     1      22.580  37.394   6.587  1.00  0.00    -0.335 N 
ATOM     25  H32 UNL     1      22.270  38.184   6.023  1.00  0.00     0.177 HD
ATOM     26  H31 UNL     1      22.735  37.532   7.586  1.00  0.00     0.177 HD
ENDBRANCH  12  24
ENDBRANCH   5   6
ENDBRANCH   1   5
BRANCH   3  27
HETATM   27  N7  UNL     1      18.866  29.607   4.934  1.00  0.00    -0.301 N 
ATOM     28  H7  UNL     1      19.199  28.650   4.817  1.00  0.00     0.183 HD
BRANCH  27  29
HETATM   29  C8  UNL     1      18.385  30.019   6.239  1.00  0.00     0.282 C 
BRANCH  29  30
HETATM   30  C9  UNL     1      17.707  28.890   6.861  1.00  0.00     0.204 C 
HETATM   31  O4  UNL     1      17.498  28.881   8.097  1.00  0.00    -0.646 OA
HETATM   32  O5  UNL     1      17.276  27.808   6.110  1.00  0.00    -0.646 OA
ENDBRANCH  29  30
BRANCH  29  33
HETATM   33  C10 UNL     1      17.541  31.233   6.041  1.00  0.00     0.342 C 
HETATM   34  N8  UNL     1      16.620  31.369   7.184  1.00  0.00     0.017 N 
HETATM   35  C11 UNL     1      15.555  31.722   6.258  1.00  0.00     0.428 C 
ATOM     36  H82 UNL     1      16.497  30.599   7.841  1.00  0.00     0.287 HD
ATOM     37  H81 UNL     1      16.853  31.987   7.962  1.00  0.00     0.287 HD
HETATM   38  N9  UNL     1      16.414  31.191   5.205  1.00  0.00    -0.122 NA
BRANCH  33  39
HETATM   39  O6  UNL     1      18.278  32.405   5.905  1.00  0.00    -0.349 OA
ATOM     40  H6  UNL     1      17.827  33.175   6.231  1.00  0.00     0.214 HD
ENDBRANCH  33  39
BRANCH  35  41
HETATM   41  O7  UNL     1      15.367  33.082   6.194  1.00  0.00    -0.357 OA
ATOM     42  H7  UNL     1      16.166  33.558   6.389  1.00  0.00     0.213 HD
ENDBRANCH  35  41
BRANCH  38  43
HETATM   43  N10 UNL     1      15.991  29.973   4.694  1.00  0.00    -0.356 NA
ATOM     44 2H10 UNL     1      16.177  29.854   3.698  1.00  0.00     0.171 HD
ATOM     45 1H10 UNL     1      14.994  29.805   4.561  1.00  0.00     0.171 HD
ENDBRANCH  38  43
ENDBRANCH  29  33
ENDBRANCH  27  29
ENDBRANCH   3  27
TORSDOF 13
ENDMDL
MODEL 5
REMARK VINA RESULT: -7.832016438      6.187     10.149
REMARK  13 active torsions:
REMARK  status: ('A' for Active; 'I' for Inactive)
REMARK    1  A    between atoms: N2_5  and  N3_6 
REMARK    2  A    between atoms: C3_9  and  C4_10 
REMARK    3  A    between atoms: C4_10  and  O2_11 
REMARK    4  A    between atoms: C4_10  and  O3_13 
REMARK    5  A    between atoms: C6_18  and  C7_19 
REMARK    6  A    between atoms: C7_19  and  N5_20 
REMARK    7  A    between atoms: N6_22  and  N7_24 
REMARK    8  A    between atoms: N7_24  and  C8_26 
REMARK    9  A    between atoms: C8_26  and  C9_27 
REMARK   10  A    between atoms: C8_26  and  C10_30 
REMARK   11  A    between atoms: C10_30  and  O6_31 
REMARK   12  A    between atoms: C11_36  and  O7_37 
REMARK   13  A    between atoms: N9_39  and  N10_40 
ROOT
HETATM    1  N5  UNL     1      20.460  33.716   4.106  1.00  0.00    -0.315 N 
ATOM      2  H5  UNL     1      20.118  33.464   3.179  1.00  0.00     0.182 HD
HETATM    3  N6  UNL     1      20.564  34.923   4.398  1.00  0.00    -0.250 N 
ATOM      4  H6  UNL     1      20.300  35.604   3.686  1.00  0.00     0.207 HD
ENDROOT
BRANCH   1   5
HETATM    5  C7  UNL     1      20.804  32.657   5.031  1.00  0.00     0.217 C 
BRANCH   5   6
HETATM    6  C6  UNL     1      19.919  31.482   4.848  1.00  0.00     0.102 A 
HETATM    7  N4  UNL     1      19.392  30.800   5.878  1.00  0.00    -0.341 N 
HETATM    8  C5  UNL     1      18.640  29.797   5.393  1.00  0.00     0.092 A 
ATOM      9  H4  UNL     1      19.539  31.008   6.866  1.00  0.00     0.167 HD
HETATM   10  C3  UNL     1      17.877  28.795   5.942  1.00  0.00     0.120 A 
HETATM   11  C12 UNL     1      18.707  29.862   4.001  1.00  0.00     0.093 A 
HETATM   12  N2  UNL     1      17.198  27.884   5.223  1.00  0.00    -0.222 N 
HETATM   13  C2  UNL     1      17.257  27.941   3.888  1.00  0.00     0.293 A 
HETATM   14  C1  UNL     1      18.006  28.923   3.276  1.00  0.00     0.145 A 
HETATM   15  O1  UNL     1      16.622  27.090   3.199  1.00  0.00    -0.264 OA
HETATM   16  N1  UNL     1      18.045  28.952   1.857  1.00  0.00    -0.094 NA
HETATM   17  N11 UNL     1      19.498  30.906   3.698  1.00  0.00    -0.341 N 
ATOM     18  H11 UNL     1      19.742  31.213   2.757  1.00  0.00     0.167 HD
BRANCH  10  19
HETATM   19  C4  UNL     1      17.787  28.699   7.431  1.00  0.00     0.309 C 
BRANCH  19  20
HETATM   20  O2  UNL     1      17.065  29.761   7.961  1.00  0.00    -0.366 OA
ATOM     21  H2  UNL     1      16.132  29.580   7.957  1.00  0.00     0.213 HD
ENDBRANCH  19  20
BRANCH  19  22
HETATM   22  O3  UNL     1      19.066  28.624   7.941  1.00  0.00    -0.366 OA
ATOM     23  H3  UNL     1      19.054  28.051   8.698  1.00  0.00     0.213 HD
ENDBRANCH  19  22
ENDBRANCH  10  19
BRANCH  12  24
HETATM   24  N3  UNL     1      16.444  26.895   5.832  1.00  0.00    -0.335 N 
ATOM     25  H32 UNL     1      15.431  26.850   5.721  1.00  0.00     0.177 HD
ATOM     26  H31 UNL     1      16.909  26.191   6.406  1.00  0.00     0.177 HD
ENDBRANCH  12  24
ENDBRANCH   5   6
ENDBRANCH   1   5
BRANCH   3  27
HETATM   27  N7  UNL     1      21.016  35.414   5.626  1.00  0.00    -0.301 N 
ATOM     28  H7  UNL     1      21.117  34.764   6.406  1.00  0.00     0.183 HD
BRANCH  27  29
HETATM   29  C8  UNL     1      21.347  36.810   5.839  1.00  0.00     0.282 C 
BRANCH  29  30
HETATM   30  C9  UNL     1      21.658  37.414   4.550  1.00  0.00     0.204 C 
HETATM   31  O4  UNL     1      20.755  37.954   3.870  1.00  0.00    -0.646 OA
HETATM   32  O5  UNL     1      22.950  37.410   4.047  1.00  0.00    -0.646 OA
ENDBRANCH  29  30
BRANCH  29  33
HETATM   33  C10 UNL     1      22.450  36.860   6.843  1.00  0.00     0.342 C 
HETATM   34  N8  UNL     1      23.317  35.681   6.663  1.00  0.00     0.017 N 
HETATM   35  C11 UNL     1      23.378  35.531   8.108  1.00  0.00     0.428 C 
ATOM     36  H82 UNL     1      23.014  34.904   6.077  1.00  0.00     0.287 HD
ATOM     37  H81 UNL     1      24.174  35.751   6.115  1.00  0.00     0.287 HD
HETATM   38  N9  UNL     1      22.234  36.435   8.162  1.00  0.00    -0.122 NA
BRANCH  33  39
HETATM   39  O6  UNL     1      23.223  38.013   6.759  1.00  0.00    -0.349 OA
ATOM     40  H6  UNL     1      23.691  38.213   7.562  1.00  0.00     0.214 HD
ENDBRANCH  33  39
BRANCH  35  41
HETATM   41  O7  UNL     1      24.535  36.061   8.626  1.00  0.00    -0.357 OA
ATOM     42  H7  UNL     1      24.388  36.918   9.011  1.00  0.00     0.213 HD
ENDBRANCH  35  41
BRANCH  38  43
HETATM   43  N10 UNL     1      21.039  35.812   8.490  1.00  0.00    -0.356 NA
ATOM     44 2H10 UNL     1      20.891  35.699   9.494  1.00  0.00     0.171 HD
ATOM     45 1H10 UNL     1      20.936  34.809   8.330  1.00  0.00     0.171 HD
ENDBRANCH  38  43
ENDBRANCH  29  33
ENDBRANCH  27  29
ENDBRANCH   3  27
TORSDOF 13
ENDMDL
