MODEL 1
REMARK VINA RESULT: -6.609354756      0.000      0.000
REMARK  8 active torsions:
REMARK  status: ('A' for Active; 'I' for Inactive)
REMARK    1  A    between atoms: N1_1  and  C1_4 
REMARK    2  A    between atoms: C2_7  and  C3_8 
REMARK    3  A    between atoms: C3_8  and  C4_13 
REMARK    4  A    between atoms: N3_9  and  O1_11 
REMARK       I    between atoms: C4_13  and  N4_15 
REMARK    5  A    between atoms: N4_15  and  C5_17 
REMARK    6  A    between atoms: C7_21  and  C8_22 
REMARK    7  A    between atoms: C9_25  and  C10_26 
REMARK    8  A    between atoms: C10_26  and  N6_27 
ROOT
HETATM    1  C4  UNL     1      14.624  46.893  -3.067  1.00  0.00     0.273 C 
HETATM    2  O2  UNL     1      14.066  45.857  -3.497  1.00  0.00    -0.266 OA
HETATM    3  N4  UNL     1      16.023  46.791  -2.872  1.00  0.00    -0.340 N 
ATOM      4  H4  UNL     1      16.561  47.586  -2.524  1.00  0.00     0.163 HD
ENDROOT
BRANCH   3   5
HETATM    5  C5  UNL     1      16.679  45.520  -3.180  1.00  0.00     0.211 C 
HETATM    6  C6  UNL     1      17.102  44.714  -2.034  1.00  0.00     0.251 C 
HETATM    7  O3  UNL     1      16.535  43.908  -1.221  1.00  0.00    -0.271 OA
HETATM    8  N5  UNL     1      18.415  45.217  -2.220  1.00  0.00    -0.293 N 
HETATM    9  C7  UNL     1      19.726  45.432  -1.652  1.00  0.00     0.120 C 
HETATM   10  C12 UNL     1      18.134  45.628  -3.572  1.00  0.00     0.187 C 
HETATM   11  C9  UNL     1      20.240  46.670  -1.662  1.00  0.00    -0.013 C 
HETATM   12  C11 UNL     1      19.423  47.829  -2.211  1.00  0.00     0.114 C 
HETATM   13  S1  UNL     1      18.755  47.299  -3.803  1.00  0.00    -0.136 SA
BRANCH   9  14
HETATM   14  C8  UNL     1      20.376  44.291  -1.038  1.00  0.00     0.227 C 
HETATM   15  O4  UNL     1      20.216  43.957   0.142  1.00  0.00    -0.643 OA
HETATM   16  O5  UNL     1      21.237  43.497  -1.784  1.00  0.00    -0.643 OA
ENDBRANCH   9  14
BRANCH  11  17
HETATM   17  C10 UNL     1      21.539  47.005  -1.133  1.00  0.00     0.238 C 
BRANCH  17  18
HETATM   18  N6  UNL     1      21.512  47.075   0.337  1.00  0.00    -0.151 N 
HETATM   19  O6  UNL     1      20.569  47.650   0.869  1.00  0.00    -0.536 OA
HETATM   20  O7  UNL     1      22.535  46.500   1.016  1.00  0.00    -0.536 OA
ENDBRANCH  17  18
ENDBRANCH  11  17
ENDBRANCH   3   5
BRANCH   1  21
HETATM   21  C3  UNL     1      13.908  48.111  -2.787  1.00  0.00     0.149 C 
HETATM   22  N3  UNL     1      13.937  48.703  -1.674  1.00  0.00    -0.262 N 
ATOM     23  H3  UNL     1      13.362  49.546  -1.681  1.00  0.00     0.194 HD
BRANCH  21  24
HETATM   24  C2  UNL     1      13.036  48.807  -3.816  1.00  0.00     0.075 A 
HETATM   25  N2  UNL     1      12.880  48.377  -5.043  1.00  0.00    -0.335 N 
HETATM   26  C1  UNL     1      12.088  49.065  -5.877  1.00  0.00     0.142 A 
ATOM     27  H2  UNL     1      13.353  47.531  -5.359  1.00  0.00     0.168 HD
HETATM   28  S2  UNL     1      11.541  50.353  -4.925  1.00  0.00    -0.064 SA
HETATM   29  C13 UNL     1      12.355  49.960  -3.479  1.00  0.00     0.085 A 
BRANCH  26  30
HETATM   30  N1  UNL     1      11.806  48.797  -7.136  1.00  0.00    -0.380 N 
ATOM     31  H12 UNL     1      12.341  49.034  -7.971  1.00  0.00     0.158 HD
ATOM     32  H11 UNL     1      10.995  48.302  -7.508  1.00  0.00     0.158 HD
ENDBRANCH  26  30
ENDBRANCH  21  24
BRANCH  22  33
HETATM   33  O1  UNL     1      14.503  48.523  -0.525  1.00  0.00    -0.289 OA
ATOM     34  H1  UNL     1      15.240  48.891  -0.051  1.00  0.00     0.244 HD
ENDBRANCH  22  33
ENDBRANCH   1  21
TORSDOF 8
ENDMDL
MODEL 2
REMARK VINA RESULT: -6.465425277      5.871      9.184
REMARK  8 active torsions:
REMARK  status: ('A' for Active; 'I' for Inactive)
REMARK    1  A    between atoms: N1_1  and  C1_4 
REMARK    2  A    between atoms: C2_7  and  C3_8 
REMARK    3  A    between atoms: C3_8  and  C4_13 
REMARK    4  A    between atoms: N3_9  and  O1_11 
REMARK       I    between atoms: C4_13  and  N4_15 
REMARK    5  A    between atoms: N4_15  and  C5_17 
REMARK    6  A    between atoms: C7_21  and  C8_22 
REMARK    7  A    between atoms: C9_25  and  C10_26 
REMARK    8  A    between atoms: C10_26  and  N6_27 
ROOT
HETATM    1  C4  UNL     1      22.556  46.563   0.298  1.00  0.00     0.273 C 
HETATM    2  O2  UNL     1      22.030  47.615  -0.136  1.00  0.00    -0.266 OA
HETATM    3  N4  UNL     1      22.122  45.367  -0.325  1.00  0.00    -0.340 N 
ATOM      4  H4  UNL     1      22.495  44.462  -0.036  1.00  0.00     0.163 HD
ENDROOT
BRANCH   3   5
HETATM    5  C5  UNL     1      21.125  45.460  -1.392  1.00  0.00     0.211 C 
HETATM    6  C6  UNL     1      19.752  45.107  -1.029  1.00  0.00     0.251 C 
HETATM    7  O3  UNL     1      18.778  45.693  -0.446  1.00  0.00    -0.271 OA
HETATM    8  N5  UNL     1      19.972  43.831  -1.608  1.00  0.00    -0.293 N 
HETATM    9  C7  UNL     1      19.546  42.454  -1.715  1.00  0.00     0.120 C 
HETATM   10  C12 UNL     1      21.110  44.298  -2.358  1.00  0.00     0.187 C 
HETATM   11  C9  UNL     1      20.437  41.481  -1.475  1.00  0.00    -0.013 C 
HETATM   12  C11 UNL     1      21.852  41.833  -1.042  1.00  0.00     0.114 C 
HETATM   13  S1  UNL     1      22.448  43.113  -2.168  1.00  0.00    -0.136 SA
BRANCH   9  14
HETATM   14  C8  UNL     1      18.148  42.216  -2.010  1.00  0.00     0.227 C 
HETATM   15  O4  UNL     1      17.215  42.590  -1.288  1.00  0.00    -0.643 OA
HETATM   16  O5  UNL     1      17.788  41.533  -3.164  1.00  0.00    -0.643 OA
ENDBRANCH   9  14
BRANCH  11  17
HETATM   17  C10 UNL     1      20.132  40.074  -1.558  1.00  0.00     0.238 C 
BRANCH  17  18
HETATM   18  N6  UNL     1      20.939  39.416  -2.598  1.00  0.00    -0.151 N 
HETATM   19  O6  UNL     1      21.672  38.493  -2.260  1.00  0.00    -0.536 OA
HETATM   20  O7  UNL     1      20.825  39.872  -3.870  1.00  0.00    -0.536 OA
ENDBRANCH  17  18
ENDBRANCH  11  17
ENDBRANCH   3   5
BRANCH   1  21
HETATM   21  C3  UNL     1      23.534  46.554   1.354  1.00  0.00     0.149 C 
HETATM   22  N3  UNL     1      23.447  45.833   2.387  1.00  0.00    -0.262 N 
ATOM     23  H3  UNL     1      24.240  45.975   3.012  1.00  0.00     0.194 HD
BRANCH  21  24
HETATM   24  C2  UNL     1      24.779  47.420   1.330  1.00  0.00     0.075 A 
HETATM   25  N2  UNL     1      25.037  48.292   0.386  1.00  0.00    -0.335 N 
HETATM   26  C1  UNL     1      26.166  49.010   0.455  1.00  0.00     0.142 A 
ATOM     27  H2  UNL     1      24.388  48.422  -0.389  1.00  0.00     0.168 HD
HETATM   28  S2  UNL     1      26.896  48.457   1.879  1.00  0.00    -0.064 SA
HETATM   29  C13 UNL     1      25.716  47.314   2.339  1.00  0.00     0.085 A 
BRANCH  26  30
HETATM   30  N1  UNL     1      26.600  49.926  -0.387  1.00  0.00    -0.380 N 
ATOM     31  H12 UNL     1      26.079  50.690  -0.818  1.00  0.00     0.158 HD
ATOM     32  H11 UNL     1      27.540  50.039  -0.764  1.00  0.00     0.158 HD
ENDBRANCH  26  30
ENDBRANCH  21  24
BRANCH  22  33
HETATM   33  O1  UNL     1      22.616  44.963   2.861  1.00  0.00    -0.289 OA
ATOM     34  H1  UNL     1      22.659  44.073   3.192  1.00  0.00     0.244 HD
ENDBRANCH  22  33
ENDBRANCH   1  21
TORSDOF 8
ENDMDL
MODEL 3
REMARK VINA RESULT: -6.436567312      3.351      5.120
REMARK  8 active torsions:
REMARK  status: ('A' for Active; 'I' for Inactive)
REMARK    1  A    between atoms: N1_1  and  C1_4 
REMARK    2  A    between atoms: C2_7  and  C3_8 
REMARK    3  A    between atoms: C3_8  and  C4_13 
REMARK    4  A    between atoms: N3_9  and  O1_11 
REMARK       I    between atoms: C4_13  and  N4_15 
REMARK    5  A    between atoms: N4_15  and  C5_17 
REMARK    6  A    between atoms: C7_21  and  C8_22 
REMARK    7  A    between atoms: C9_25  and  C10_26 
REMARK    8  A    between atoms: C10_26  and  N6_27 
ROOT
HETATM    1  C4  UNL     1      16.934  45.088  -2.235  1.00  0.00     0.273 C 
HETATM    2  O2  UNL     1      16.931  45.423  -1.027  1.00  0.00    -0.266 OA
HETATM    3  N4  UNL     1      18.166  44.590  -2.723  1.00  0.00    -0.340 N 
ATOM      4  H4  UNL     1      18.262  44.293  -3.695  1.00  0.00     0.163 HD
ENDROOT
BRANCH   3   5
HETATM    5  C5  UNL     1      19.300  44.511  -1.801  1.00  0.00     0.211 C 
HETATM    6  C6  UNL     1      20.632  44.564  -2.405  1.00  0.00     0.251 C 
HETATM    7  O3  UNL     1      21.405  45.482  -2.842  1.00  0.00    -0.271 OA
HETATM    8  N5  UNL     1      20.690  43.151  -2.294  1.00  0.00    -0.293 N 
HETATM    9  C7  UNL     1      21.318  41.922  -2.725  1.00  0.00     0.120 C 
HETATM   10  C12 UNL     1      19.635  43.121  -1.314  1.00  0.00     0.187 C 
HETATM   11  C9  UNL     1      20.547  40.934  -3.200  1.00  0.00    -0.013 C 
HETATM   12  C11 UNL     1      19.045  41.136  -3.332  1.00  0.00     0.114 C 
HETATM   13  S1  UNL     1      18.465  41.835  -1.771  1.00  0.00    -0.136 SA
BRANCH   9  14
HETATM   14  C8  UNL     1      22.766  41.868  -2.680  1.00  0.00     0.227 C 
HETATM   15  O4  UNL     1      23.413  41.542  -1.678  1.00  0.00    -0.643 OA
HETATM   16  O5  UNL     1      23.509  42.192  -3.806  1.00  0.00    -0.643 OA
ENDBRANCH   9  14
BRANCH  11  17
HETATM   17  C10 UNL     1      21.057  39.662  -3.651  1.00  0.00     0.238 C 
BRANCH  17  18
HETATM   18  N6  UNL     1      21.381  38.787  -2.514  1.00  0.00    -0.151 N 
HETATM   19  O6  UNL     1      22.490  38.264  -2.486  1.00  0.00    -0.536 OA
HETATM   20  O7  UNL     1      20.431  38.608  -1.563  1.00  0.00    -0.536 OA
ENDBRANCH  17  18
ENDBRANCH  11  17
ENDBRANCH   3   5
BRANCH   1  21
HETATM   21  C3  UNL     1      15.773  45.195  -3.080  1.00  0.00     0.149 C 
HETATM   22  N3  UNL     1      14.933  44.266  -3.241  1.00  0.00    -0.262 N 
ATOM     23  H3  UNL     1      14.186  44.541  -3.879  1.00  0.00     0.194 HD
BRANCH  21  24
HETATM   24  C2  UNL     1      15.442  46.447  -3.870  1.00  0.00     0.075 A 
HETATM   25  N2  UNL     1      14.570  46.478  -4.847  1.00  0.00    -0.335 N 
HETATM   26  C1  UNL     1      14.349  47.635  -5.485  1.00  0.00     0.142 A 
ATOM     27  H2  UNL     1      14.066  45.634  -5.118  1.00  0.00     0.168 HD
HETATM   28  S2  UNL     1      15.387  48.719  -4.702  1.00  0.00    -0.064 SA
HETATM   29  C13 UNL     1      16.074  47.639  -3.575  1.00  0.00     0.085 A 
BRANCH  26  30
HETATM   30  N1  UNL     1      13.519  47.869  -6.482  1.00  0.00    -0.380 N 
ATOM     31  H12 UNL     1      12.807  47.253  -6.874  1.00  0.00     0.158 HD
ATOM     32  H11 UNL     1      13.438  48.713  -7.048  1.00  0.00     0.158 HD
ENDBRANCH  26  30
ENDBRANCH  21  24
BRANCH  22  33
HETATM   33  O1  UNL     1      14.771  43.058  -2.810  1.00  0.00    -0.289 OA
ATOM     34  H1  UNL     1      14.086  42.564  -2.375  1.00  0.00     0.244 HD
ENDBRANCH  22  33
ENDBRANCH   1  21
TORSDOF 8
ENDMDL
MODEL 4
REMARK VINA RESULT: -6.434388868      2.975      8.430
REMARK  8 active torsions:
REMARK  status: ('A' for Active; 'I' for Inactive)
REMARK    1  A    between atoms: N1_1  and  C1_4 
REMARK    2  A    between atoms: C2_7  and  C3_8 
REMARK    3  A    between atoms: C3_8  and  C4_13 
REMARK    4  A    between atoms: N3_9  and  O1_11 
REMARK       I    between atoms: C4_13  and  N4_15 
REMARK    5  A    between atoms: N4_15  and  C5_17 
REMARK    6  A    between atoms: C7_21  and  C8_22 
REMARK    7  A    between atoms: C9_25  and  C10_26 
REMARK    8  A    between atoms: C10_26  and  N6_27 
ROOT
HETATM    1  C4  UNL     1      17.082  44.989  -1.981  1.00  0.00     0.273 C 
HETATM    2  O2  UNL     1      17.675  45.526  -1.016  1.00  0.00    -0.266 OA
HETATM    3  N4  UNL     1      16.464  45.885  -2.886  1.00  0.00    -0.340 N 
ATOM      4  H4  UNL     1      15.958  45.538  -3.701  1.00  0.00     0.163 HD
ENDROOT
BRANCH   3   5
HETATM    5  C5  UNL     1      16.568  47.321  -2.624  1.00  0.00     0.211 C 
HETATM    6  C6  UNL     1      15.343  47.990  -2.182  1.00  0.00     0.251 C 
HETATM    7  O3  UNL     1      14.713  48.114  -1.078  1.00  0.00    -0.271 OA
HETATM    8  N5  UNL     1      15.159  48.440  -3.515  1.00  0.00    -0.293 N 
HETATM    9  C7  UNL     1      14.249  48.972  -4.504  1.00  0.00     0.120 C 
HETATM   10  C12 UNL     1      16.539  48.200  -3.853  1.00  0.00     0.187 C 
HETATM   11  C9  UNL     1      14.125  48.335  -5.677  1.00  0.00    -0.013 C 
HETATM   12  C11 UNL     1      14.890  47.045  -5.928  1.00  0.00     0.114 C 
HETATM   13  S1  UNL     1      16.601  47.336  -5.428  1.00  0.00    -0.136 SA
BRANCH   9  14
HETATM   14  C8  UNL     1      13.470  50.135  -4.128  1.00  0.00     0.227 C 
HETATM   15  O4  UNL     1      13.783  51.297  -4.413  1.00  0.00    -0.643 OA
HETATM   16  O5  UNL     1      12.294  49.980  -3.407  1.00  0.00    -0.643 OA
ENDBRANCH   9  14
BRANCH  11  17
HETATM   17  C10 UNL     1      13.258  48.774  -6.742  1.00  0.00     0.238 C 
BRANCH  17  18
HETATM   18  N6  UNL     1      11.848  48.493  -6.429  1.00  0.00    -0.151 N 
HETATM   19  O6  UNL     1      10.997  49.267  -6.856  1.00  0.00    -0.536 OA
HETATM   20  O7  UNL     1      11.573  47.394  -5.684  1.00  0.00    -0.536 OA
ENDBRANCH  17  18
ENDBRANCH  11  17
ENDBRANCH   3   5
BRANCH   1  21
HETATM   21  C3  UNL     1      17.026  43.563  -2.170  1.00  0.00     0.149 C 
HETATM   22  N3  UNL     1      15.991  42.944  -2.543  1.00  0.00    -0.262 N 
ATOM     23  H3  UNL     1      16.159  41.940  -2.616  1.00  0.00     0.194 HD
BRANCH  21  24
HETATM   24  C2  UNL     1      18.218  42.654  -1.936  1.00  0.00     0.075 A 
HETATM   25  N2  UNL     1      19.394  43.085  -1.554  1.00  0.00    -0.335 N 
HETATM   26  C1  UNL     1      20.385  42.201  -1.375  1.00  0.00     0.142 A 
ATOM     27  H2  UNL     1      19.554  44.080  -1.395  1.00  0.00     0.168 HD
HETATM   28  S2  UNL     1      19.659  40.719  -1.749  1.00  0.00    -0.064 SA
HETATM   29  C13 UNL     1      18.097  41.291  -2.126  1.00  0.00     0.085 A 
BRANCH  26  30
HETATM   30  N1  UNL     1      21.625  42.435  -0.997  1.00  0.00    -0.380 N 
ATOM     31  H12 UNL     1      22.365  42.917  -1.508  1.00  0.00     0.158 HD
ATOM     32  H11 UNL     1      22.076  42.175  -0.120  1.00  0.00     0.158 HD
ENDBRANCH  26  30
ENDBRANCH  21  24
BRANCH  22  33
HETATM   33  O1  UNL     1      14.774  43.247  -2.857  1.00  0.00    -0.289 OA
ATOM     34  H1  UNL     1      13.914  43.152  -2.466  1.00  0.00     0.244 HD
ENDBRANCH  22  33
ENDBRANCH   1  21
TORSDOF 8
ENDMDL
MODEL 5
REMARK VINA RESULT: -6.392753095      3.211      8.353
REMARK  8 active torsions:
REMARK  status: ('A' for Active; 'I' for Inactive)
REMARK    1  A    between atoms: N1_1  and  C1_4 
REMARK    2  A    between atoms: C2_7  and  C3_8 
REMARK    3  A    between atoms: C3_8  and  C4_13 
REMARK    4  A    between atoms: N3_9  and  O1_11 
REMARK       I    between atoms: C4_13  and  N4_15 
REMARK    5  A    between atoms: N4_15  and  C5_17 
REMARK    6  A    between atoms: C7_21  and  C8_22 
REMARK    7  A    between atoms: C9_25  and  C10_26 
REMARK    8  A    between atoms: C10_26  and  N6_27 
ROOT
HETATM    1  C4  UNL     1      17.255  44.957  -1.960  1.00  0.00     0.273 C 
HETATM    2  O2  UNL     1      17.902  45.526  -1.050  1.00  0.00    -0.266 OA
HETATM    3  N4  UNL     1      16.538  45.821  -2.823  1.00  0.00    -0.340 N 
ATOM      4  H4  UNL     1      15.982  45.446  -3.593  1.00  0.00     0.163 HD
ENDROOT
BRANCH   3   5
HETATM    5  C5  UNL     1      16.613  47.262  -2.586  1.00  0.00     0.211 C 
HETATM    6  C6  UNL     1      15.363  47.923  -2.206  1.00  0.00     0.251 C 
HETATM    7  O3  UNL     1      14.688  48.059  -1.130  1.00  0.00    -0.271 OA
HETATM    8  N5  UNL     1      15.227  48.346  -3.554  1.00  0.00    -0.293 N 
HETATM    9  C7  UNL     1      14.351  48.847  -4.588  1.00  0.00     0.120 C 
HETATM   10  C12 UNL     1      16.622  48.118  -3.832  1.00  0.00     0.187 C 
HETATM   11  C9  UNL     1      14.283  48.186  -5.753  1.00  0.00    -0.013 C 
HETATM   12  C11 UNL     1      15.073  46.901  -5.948  1.00  0.00     0.114 C 
HETATM   13  S1  UNL     1      16.759  47.226  -5.386  1.00  0.00    -0.136 SA
BRANCH   9  14
HETATM   14  C8  UNL     1      13.543  50.005  -4.267  1.00  0.00     0.227 C 
HETATM   15  O4  UNL     1      13.878  51.171  -4.511  1.00  0.00    -0.643 OA
HETATM   16  O5  UNL     1      12.310  49.843  -3.649  1.00  0.00    -0.643 OA
ENDBRANCH   9  14
BRANCH  11  17
HETATM   17  C10 UNL     1      13.453  48.593  -6.860  1.00  0.00     0.238 C 
BRANCH  17  18
HETATM   18  N6  UNL     1      14.262  49.170  -7.946  1.00  0.00    -0.151 N 
HETATM   19  O6  UNL     1      14.539  50.363  -7.887  1.00  0.00    -0.536 OA
HETATM   20  O7  UNL     1      14.653  48.347  -8.949  1.00  0.00    -0.536 OA
ENDBRANCH  17  18
ENDBRANCH  11  17
ENDBRANCH   3   5
BRANCH   1  21
HETATM   21  C3  UNL     1      17.232  43.528  -2.130  1.00  0.00     0.149 C 
HETATM   22  N3  UNL     1      16.209  42.878  -2.481  1.00  0.00    -0.262 N 
ATOM     23  H3  UNL     1      16.402  41.878  -2.542  1.00  0.00     0.194 HD
BRANCH  21  24
HETATM   24  C2  UNL     1      18.450  42.652  -1.899  1.00  0.00     0.075 A 
HETATM   25  N2  UNL     1      19.585  43.101  -1.422  1.00  0.00    -0.335 N 
HETATM   26  C1  UNL     1      20.603  42.246  -1.256  1.00  0.00     0.142 A 
ATOM     27  H2  UNL     1      19.691  44.086  -1.182  1.00  0.00     0.168 HD
HETATM   28  S2  UNL     1      19.964  40.769  -1.778  1.00  0.00    -0.064 SA
HETATM   29  C13 UNL     1      18.400  41.305  -2.196  1.00  0.00     0.085 A 
BRANCH  26  30
HETATM   30  N1  UNL     1      21.811  42.500  -0.795  1.00  0.00    -0.380 N 
ATOM     31  H12 UNL     1      22.094  43.196  -0.104  1.00  0.00     0.158 HD
ATOM     32  H11 UNL     1      22.689  42.047  -1.045  1.00  0.00     0.158 HD
ENDBRANCH  26  30
ENDBRANCH  21  24
BRANCH  22  33
HETATM   33  O1  UNL     1      14.981  43.146  -2.783  1.00  0.00    -0.289 OA
ATOM     34  H1  UNL     1      14.524  43.764  -3.342  1.00  0.00     0.244 HD
ENDBRANCH  22  33
ENDBRANCH   1  21
TORSDOF 8
ENDMDL
