MODEL 1
REMARK VINA RESULT: -7.348557092      0.000      0.000
REMARK  7 active torsions:
REMARK  status: ('A' for Active; 'I' for Inactive)
REMARK    1  A    between atoms: C2_2  and  O1_3 
REMARK    2  A    between atoms: C2_2  and  C3_5 
REMARK    3  A    between atoms: C2_2  and  S1_14 
REMARK    4  A    between atoms: S1_14  and  C6_17 
REMARK    5  A    between atoms: C9_20  and  N4_21 
REMARK    6  A    between atoms: N4_21  and  C10_23 
REMARK    7  A    between atoms: C11_24  and  N5_25 
REMARK       I    between atoms: N5_25  and  C12_27 
ROOT
HETATM    1  C6  UNL     1      21.605  41.499  -2.891  1.00  0.00     0.062 A 
HETATM    2  C7  UNL     1      21.788  41.614  -1.530  1.00  0.00     0.026 A 
HETATM    3  C8  UNL     1      22.107  42.809  -0.929  1.00  0.00     0.031 A 
HETATM    4  C9  UNL     1      22.268  43.989  -1.674  1.00  0.00     0.032 A 
HETATM    5  C15 UNL     1      22.086  43.876  -3.028  1.00  0.00     0.031 A 
HETATM    6  C16 UNL     1      21.760  42.651  -3.625  1.00  0.00     0.026 A 
ENDROOT
BRANCH   1   7
HETATM    7  S1  UNL     1      21.200  39.998  -3.660  1.00  0.00     0.215 S 
HETATM    8  O2  UNL     1      22.024  39.860  -4.902  1.00  0.00    -0.219 OA
HETATM    9  O3  UNL     1      21.566  38.842  -2.760  1.00  0.00    -0.219 OA
BRANCH   7  10
HETATM   10  C2  UNL     1      19.513  39.852  -4.085  1.00  0.00     0.221 C 
HETATM   11  C1  UNL     1      19.195  38.520  -4.748  1.00  0.00     0.073 C 
BRANCH  10  12
HETATM   12  O1  UNL     1      19.087  40.839  -4.975  1.00  0.00    -0.368 OA
ATOM     13  H1  UNL     1      19.353  41.669  -4.597  1.00  0.00     0.212 HD
ENDBRANCH  10  12
BRANCH  10  14
HETATM   14  C3  UNL     1      18.696  39.926  -2.847  1.00  0.00     0.142 C 
HETATM   15  N1  UNL     1      18.769  38.993  -1.960  1.00  0.00    -0.290 N 
HETATM   16  N2  UNL     1      18.047  38.978  -0.781  1.00  0.00    -0.333 N 
ATOM     17  H1  UNL     1      19.402  38.213  -2.140  1.00  0.00     0.188 HD
HETATM   18  C4  UNL     1      17.517  40.208  -0.271  1.00  0.00     0.159 C 
ATOM     19  H2  UNL     1      17.894  38.103  -0.280  1.00  0.00     0.180 HD
HETATM   20  C5  UNL     1      17.010  41.069  -1.402  1.00  0.00     0.142 C 
HETATM   21  N3  UNL     1      17.810  41.009  -2.585  1.00  0.00    -0.374 N 
ATOM     22  H3  UNL     1      17.745  41.768  -3.264  1.00  0.00     0.161 HD
ENDBRANCH  10  14
ENDBRANCH   7  10
ENDBRANCH   1   7
BRANCH   4  23
HETATM   23  N4  UNL     1      22.562  45.211  -0.997  1.00  0.00    -0.351 N 
ATOM     24  H4  UNL     1      23.299  45.818  -1.354  1.00  0.00     0.166 HD
BRANCH  23  25
HETATM   25  C10 UNL     1      21.851  45.589   0.150  1.00  0.00     0.119 A 
HETATM   26  C11 UNL     1      22.288  45.832   1.457  1.00  0.00     0.122 A 
HETATM   27  C13 UNL     1      21.001  46.158   1.797  1.00  0.00     0.253 A 
HETATM   28  O5  UNL     1      20.461  46.527   2.867  1.00  0.00    -0.281 OA
HETATM   29  C14 UNL     1      20.561  45.918   0.499  1.00  0.00     0.253 A 
HETATM   30  O6  UNL     1      19.416  46.009  -0.008  1.00  0.00    -0.281 OA
BRANCH  26  31
HETATM   31  N5  UNL     1      23.532  45.770   2.146  1.00  0.00    -0.306 N 
HETATM   32  C12 UNL     1      24.542  46.733   1.885  1.00  0.00     0.333 C 
HETATM   33  N6  UNL     1      25.768  46.626   2.601  1.00  0.00    -0.040 NA
HETATM   34  O4  UNL     1      24.343  47.636   1.054  1.00  0.00    -0.251 OA
ATOM     35  H5  UNL     1      23.699  45.030   2.829  1.00  0.00     0.170 HD
ENDBRANCH  26  31
ENDBRANCH  23  25
ENDBRANCH   4  23
TORSDOF 7
ENDMDL
MODEL 2
REMARK VINA RESULT: -7.283844252      1.749      3.063
REMARK  7 active torsions:
REMARK  status: ('A' for Active; 'I' for Inactive)
REMARK    1  A    between atoms: C2_2  and  O1_3 
REMARK    2  A    between atoms: C2_2  and  C3_5 
REMARK    3  A    between atoms: C2_2  and  S1_14 
REMARK    4  A    between atoms: S1_14  and  C6_17 
REMARK    5  A    between atoms: C9_20  and  N4_21 
REMARK    6  A    between atoms: N4_21  and  C10_23 
REMARK    7  A    between atoms: C11_24  and  N5_25 
REMARK       I    between atoms: N5_25  and  C12_27 
ROOT
HETATM    1  C6  UNL     1      21.787  41.707  -3.622  1.00  0.00     0.062 A 
HETATM    2  C7  UNL     1      22.456  41.902  -2.433  1.00  0.00     0.026 A 
HETATM    3  C8  UNL     1      22.790  43.154  -1.974  1.00  0.00     0.031 A 
HETATM    4  C9  UNL     1      22.468  44.314  -2.696  1.00  0.00     0.032 A 
HETATM    5  C15 UNL     1      21.803  44.123  -3.879  1.00  0.00     0.031 A 
HETATM    6  C16 UNL     1      21.470  42.840  -4.334  1.00  0.00     0.026 A 
ENDROOT
BRANCH   1   7
HETATM    7  S1  UNL     1      21.359  40.133  -4.212  1.00  0.00     0.215 S 
HETATM    8  O2  UNL     1      21.930  39.964  -5.585  1.00  0.00    -0.219 OA
HETATM    9  O3  UNL     1      21.984  39.068  -3.343  1.00  0.00    -0.219 OA
BRANCH   7  10
HETATM   10  C2  UNL     1      19.637  39.847  -4.280  1.00  0.00     0.221 C 
HETATM   11  C1  UNL     1      19.300  38.476  -4.848  1.00  0.00     0.073 C 
BRANCH  10  12
HETATM   12  O1  UNL     1      18.961  40.773  -5.076  1.00  0.00    -0.368 OA
ATOM     13  H1  UNL     1      19.631  41.300  -5.496  1.00  0.00     0.212 HD
ENDBRANCH  10  12
BRANCH  10  14
HETATM   14  C3  UNL     1      19.086  39.893  -2.902  1.00  0.00     0.142 C 
HETATM   15  N1  UNL     1      18.433  40.928  -2.494  1.00  0.00    -0.290 N 
HETATM   16  N2  UNL     1      17.886  41.057  -1.231  1.00  0.00    -0.333 N 
ATOM     17  H1  UNL     1      18.313  41.702  -3.147  1.00  0.00     0.188 HD
HETATM   18  C4  UNL     1      17.626  39.879  -0.457  1.00  0.00     0.159 C 
ATOM     19  H2  UNL     1      17.670  41.980  -0.854  1.00  0.00     0.180 HD
HETATM   20  C5  UNL     1      18.732  38.871  -0.651  1.00  0.00     0.142 C 
HETATM   21  N3  UNL     1      19.247  38.817  -1.984  1.00  0.00    -0.374 N 
ATOM     22  H3  UNL     1      19.746  37.981  -2.286  1.00  0.00     0.161 HD
ENDBRANCH  10  14
ENDBRANCH   7  10
ENDBRANCH   1   7
BRANCH   4  23
HETATM   23  N4  UNL     1      22.804  45.592  -2.156  1.00  0.00    -0.351 N 
ATOM     24  H4  UNL     1      23.534  46.148  -2.600  1.00  0.00     0.166 HD
BRANCH  23  25
HETATM   25  C10 UNL     1      22.144  46.093  -1.026  1.00  0.00     0.119 A 
HETATM   26  C11 UNL     1      20.783  46.144  -0.709  1.00  0.00     0.122 A 
HETATM   27  C13 UNL     1      21.112  46.703   0.497  1.00  0.00     0.253 A 
HETATM   28  O5  UNL     1      20.435  47.093   1.479  1.00  0.00    -0.281 OA
HETATM   29  C14 UNL     1      22.468  46.655   0.188  1.00  0.00     0.253 A 
HETATM   30  O6  UNL     1      23.473  47.014   0.851  1.00  0.00    -0.281 OA
BRANCH  26  31
HETATM   31  N5  UNL     1      19.570  45.776  -1.357  1.00  0.00    -0.306 N 
HETATM   32  C12 UNL     1      19.099  44.438  -1.286  1.00  0.00     0.333 C 
HETATM   33  N6  UNL     1      17.881  44.122  -1.952  1.00  0.00    -0.040 NA
HETATM   34  O4  UNL     1      19.746  43.583  -0.657  1.00  0.00    -0.251 OA
ATOM     35  H5  UNL     1      19.036  46.476  -1.874  1.00  0.00     0.170 HD
ENDBRANCH  26  31
ENDBRANCH  23  25
ENDBRANCH   4  23
TORSDOF 7
ENDMDL
MODEL 3
REMARK VINA RESULT: -7.274034551      6.344      8.307
REMARK  7 active torsions:
REMARK  status: ('A' for Active; 'I' for Inactive)
REMARK    1  A    between atoms: C2_2  and  O1_3 
REMARK    2  A    between atoms: C2_2  and  C3_5 
REMARK    3  A    between atoms: C2_2  and  S1_14 
REMARK    4  A    between atoms: S1_14  and  C6_17 
REMARK    5  A    between atoms: C9_20  and  N4_21 
REMARK    6  A    between atoms: N4_21  and  C10_23 
REMARK    7  A    between atoms: C11_24  and  N5_25 
REMARK       I    between atoms: N5_25  and  C12_27 
ROOT
HETATM    1  C6  UNL     1      17.051  44.676  -2.854  1.00  0.00     0.062 A 
HETATM    2  C7  UNL     1      15.673  44.670  -2.849  1.00  0.00     0.026 A 
HETATM    3  C8  UNL     1      14.931  45.745  -3.279  1.00  0.00     0.031 A 
HETATM    4  C9  UNL     1      15.539  46.920  -3.749  1.00  0.00     0.032 A 
HETATM    5  C15 UNL     1      16.910  46.928  -3.755  1.00  0.00     0.031 A 
HETATM    6  C16 UNL     1      17.652  45.824  -3.314  1.00  0.00     0.026 A 
ENDROOT
BRANCH   1   7
HETATM    7  S1  UNL     1      17.999  43.326  -2.317  1.00  0.00     0.215 S 
HETATM    8  O2  UNL     1      18.710  42.741  -3.497  1.00  0.00    -0.219 OA
HETATM    9  O3  UNL     1      19.062  43.794  -1.352  1.00  0.00    -0.219 OA
BRANCH   7  10
HETATM   10  C2  UNL     1      17.066  42.070  -1.542  1.00  0.00     0.221 C 
HETATM   11  C1  UNL     1      15.917  41.582  -2.411  1.00  0.00     0.073 C 
BRANCH  10  12
HETATM   12  O1  UNL     1      16.495  42.479  -0.337  1.00  0.00    -0.368 OA
ATOM     13  H1  UNL     1      16.855  41.909   0.333  1.00  0.00     0.212 HD
ENDBRANCH  10  12
BRANCH  10  14
HETATM   14  C3  UNL     1      17.947  40.900  -1.292  1.00  0.00     0.142 C 
HETATM   15  N1  UNL     1      17.444  39.771  -0.923  1.00  0.00    -0.290 N 
HETATM   16  N2  UNL     1      18.186  38.632  -0.669  1.00  0.00    -0.333 N 
ATOM     17  H1  UNL     1      16.432  39.715  -0.811  1.00  0.00     0.188 HD
HETATM   18  C4  UNL     1      19.500  38.514  -1.229  1.00  0.00     0.159 C 
ATOM     19  H2  UNL     1      17.802  37.885  -0.090  1.00  0.00     0.180 HD
HETATM   20  C5  UNL     1      20.208  39.846  -1.187  1.00  0.00     0.142 C 
HETATM   21  N3  UNL     1      19.360  40.967  -1.447  1.00  0.00    -0.374 N 
ATOM     22  H3  UNL     1      19.782  41.844  -1.753  1.00  0.00     0.161 HD
ENDBRANCH  10  14
ENDBRANCH   7  10
ENDBRANCH   1   7
BRANCH   4  23
HETATM   23  N4  UNL     1      14.723  47.992  -4.219  1.00  0.00    -0.351 N 
ATOM     24  H4  UNL     1      14.767  48.264  -5.200  1.00  0.00     0.166 HD
BRANCH  23  25
HETATM   25  C10 UNL     1      13.862  48.677  -3.351  1.00  0.00     0.119 A 
HETATM   26  C11 UNL     1      12.702  49.416  -3.609  1.00  0.00     0.122 A 
HETATM   27  C13 UNL     1      12.565  49.619  -2.261  1.00  0.00     0.253 A 
HETATM   28  O5  UNL     1      11.720  50.232  -1.564  1.00  0.00    -0.281 OA
HETATM   29  C14 UNL     1      13.717  48.885  -1.998  1.00  0.00     0.253 A 
HETATM   30  O6  UNL     1      14.280  48.604  -0.911  1.00  0.00    -0.281 OA
BRANCH  26  31
HETATM   31  N5  UNL     1      11.972  49.799  -4.770  1.00  0.00    -0.306 N 
HETATM   32  C12 UNL     1      11.487  48.810  -5.666  1.00  0.00     0.333 C 
HETATM   33  N6  UNL     1      10.763  49.246  -6.812  1.00  0.00    -0.040 NA
HETATM   34  O4  UNL     1      11.698  47.606  -5.440  1.00  0.00    -0.251 OA
ATOM     35  H5  UNL     1      11.797  50.786  -4.958  1.00  0.00     0.170 HD
ENDBRANCH  26  31
ENDBRANCH  23  25
ENDBRANCH   4  23
TORSDOF 7
ENDMDL
MODEL 4
REMARK VINA RESULT: -7.180214370      7.262      9.250
REMARK  7 active torsions:
REMARK  status: ('A' for Active; 'I' for Inactive)
REMARK    1  A    between atoms: C2_2  and  O1_3 
REMARK    2  A    between atoms: C2_2  and  C3_5 
REMARK    3  A    between atoms: C2_2  and  S1_14 
REMARK    4  A    between atoms: S1_14  and  C6_17 
REMARK    5  A    between atoms: C9_20  and  N4_21 
REMARK    6  A    between atoms: N4_21  and  C10_23 
REMARK    7  A    between atoms: C11_24  and  N5_25 
REMARK       I    between atoms: N5_25  and  C12_27 
ROOT
HETATM    1  C6  UNL     1      15.450  47.567  -3.536  1.00  0.00     0.062 A 
HETATM    2  C7  UNL     1      16.363  47.188  -4.497  1.00  0.00     0.026 A 
HETATM    3  C8  UNL     1      17.283  46.189  -4.286  1.00  0.00     0.031 A 
HETATM    4  C9  UNL     1      17.348  45.492  -3.068  1.00  0.00     0.032 A 
HETATM    5  C15 UNL     1      16.442  45.867  -2.111  1.00  0.00     0.031 A 
HETATM    6  C16 UNL     1      15.510  46.887  -2.341  1.00  0.00     0.026 A 
ENDROOT
BRANCH   1   7
HETATM    7  S1  UNL     1      14.284  48.824  -3.790  1.00  0.00     0.215 S 
HETATM    8  O2  UNL     1      14.171  49.633  -2.536  1.00  0.00    -0.219 OA
HETATM    9  O3  UNL     1      14.763  49.761  -4.875  1.00  0.00    -0.219 OA
BRANCH   7  10
HETATM   10  C2  UNL     1      12.697  48.241  -4.228  1.00  0.00     0.221 C 
HETATM   11  C1  UNL     1      11.671  48.472  -3.130  1.00  0.00     0.073 C 
BRANCH  10  12
HETATM   12  O1  UNL     1      12.675  46.871  -4.497  1.00  0.00    -0.368 OA
ATOM     13  H1  UNL     1      12.514  46.441  -3.665  1.00  0.00     0.212 HD
ENDBRANCH  10  12
BRANCH  10  14
HETATM   14  C3  UNL     1      12.225  48.981  -5.426  1.00  0.00     0.142 C 
HETATM   15  N1  UNL     1      12.252  48.426  -6.590  1.00  0.00    -0.290 N 
HETATM   16  N2  UNL     1      11.833  49.038  -7.757  1.00  0.00    -0.333 N 
ATOM     17  H1  UNL     1      12.605  47.471  -6.653  1.00  0.00     0.188 HD
HETATM   18  C4  UNL     1      10.934  50.152  -7.678  1.00  0.00     0.159 C 
ATOM     19  H2  UNL     1      12.159  48.701  -8.662  1.00  0.00     0.180 HD
HETATM   20  C5  UNL     1      11.292  51.031  -6.505  1.00  0.00     0.142 C 
HETATM   21  N3  UNL     1      11.728  50.313  -5.348  1.00  0.00    -0.374 N 
ATOM     22  H3  UNL     1      11.682  50.770  -4.437  1.00  0.00     0.161 HD
ENDBRANCH  10  14
ENDBRANCH   7  10
ENDBRANCH   1   7
BRANCH   4  23
HETATM   23  N4  UNL     1      18.297  44.438  -2.914  1.00  0.00    -0.351 N 
ATOM     24  H4  UNL     1      19.260  44.580  -3.216  1.00  0.00     0.166 HD
BRANCH  23  25
HETATM   25  C10 UNL     1      17.924  43.209  -2.353  1.00  0.00     0.119 A 
HETATM   26  C11 UNL     1      18.679  42.247  -1.673  1.00  0.00     0.122 A 
HETATM   27  C13 UNL     1      17.536  41.515  -1.493  1.00  0.00     0.253 A 
HETATM   28  O5  UNL     1      17.295  40.418  -0.933  1.00  0.00    -0.281 OA
HETATM   29  C14 UNL     1      16.779  42.467  -2.169  1.00  0.00     0.253 A 
HETATM   30  O6  UNL     1      15.551  42.505  -2.428  1.00  0.00    -0.281 OA
BRANCH  26  31
HETATM   31  N5  UNL     1      20.049  42.090  -1.316  1.00  0.00    -0.306 N 
HETATM   32  C12 UNL     1      20.694  43.066  -0.511  1.00  0.00     0.333 C 
HETATM   33  N6  UNL     1      22.065  42.861  -0.184  1.00  0.00    -0.040 NA
HETATM   34  O4  UNL     1      20.065  44.062  -0.114  1.00  0.00    -0.251 OA
ATOM     35  H5  UNL     1      20.568  41.273  -1.640  1.00  0.00     0.170 HD
ENDBRANCH  26  31
ENDBRANCH  23  25
ENDBRANCH   4  23
TORSDOF 7
ENDMDL
MODEL 5
REMARK VINA RESULT: -6.978584579      7.216      8.980
REMARK  7 active torsions:
REMARK  status: ('A' for Active; 'I' for Inactive)
REMARK    1  A    between atoms: C2_2  and  O1_3 
REMARK    2  A    between atoms: C2_2  and  C3_5 
REMARK    3  A    between atoms: C2_2  and  S1_14 
REMARK    4  A    between atoms: S1_14  and  C6_17 
REMARK    5  A    between atoms: C9_20  and  N4_21 
REMARK    6  A    between atoms: N4_21  and  C10_23 
REMARK    7  A    between atoms: C11_24  and  N5_25 
REMARK       I    between atoms: N5_25  and  C12_27 
ROOT
HETATM    1  C6  UNL     1      15.804  48.131  -4.738  1.00  0.00     0.062 A 
HETATM    2  C7  UNL     1      16.048  48.849  -3.588  1.00  0.00     0.026 A 
HETATM    3  C8  UNL     1      17.237  48.760  -2.904  1.00  0.00     0.031 A 
HETATM    4  C9  UNL     1      18.278  47.924  -3.340  1.00  0.00     0.032 A 
HETATM    5  C15 UNL     1      18.037  47.209  -4.484  1.00  0.00     0.031 A 
HETATM    6  C16 UNL     1      16.820  47.311  -5.170  1.00  0.00     0.026 A 
ENDROOT
BRANCH   1   7
HETATM    7  S1  UNL     1      14.309  48.235  -5.612  1.00  0.00     0.215 S 
HETATM    8  O2  UNL     1      14.083  49.662  -6.004  1.00  0.00    -0.219 OA
HETATM    9  O3  UNL     1      14.402  47.438  -6.891  1.00  0.00    -0.219 OA
BRANCH   7  10
HETATM   10  C2  UNL     1      12.922  47.673  -4.712  1.00  0.00     0.221 C 
HETATM   11  C1  UNL     1      13.316  46.861  -3.488  1.00  0.00     0.073 C 
BRANCH  10  12
HETATM   12  O1  UNL     1      12.078  46.855  -5.465  1.00  0.00    -0.368 OA
ATOM     13  H1  UNL     1      11.217  46.931  -5.071  1.00  0.00     0.212 HD
ENDBRANCH  10  12
BRANCH  10  14
HETATM   14  C3  UNL     1      12.155  48.848  -4.225  1.00  0.00     0.142 C 
HETATM   15  N1  UNL     1      12.235  49.213  -2.990  1.00  0.00    -0.290 N 
HETATM   16  N2  UNL     1      11.558  50.291  -2.450  1.00  0.00    -0.333 N 
ATOM     17  H1  UNL     1      12.838  48.671  -2.371  1.00  0.00     0.188 HD
HETATM   18  C4  UNL     1      11.083  51.326  -3.321  1.00  0.00     0.159 C 
ATOM     19  H2  UNL     1      11.399  50.349  -1.444  1.00  0.00     0.180 HD
HETATM   20  C5  UNL     1      10.559  50.731  -4.604  1.00  0.00     0.142 C 
HETATM   21  N3  UNL     1      11.312  49.612  -5.080  1.00  0.00    -0.374 N 
ATOM     22  H3  UNL     1      11.242  49.353  -6.064  1.00  0.00     0.161 HD
ENDBRANCH  10  14
ENDBRANCH   7  10
ENDBRANCH   1   7
BRANCH   4  23
HETATM   23  N4  UNL     1      19.507  47.897  -2.614  1.00  0.00    -0.351 N 
ATOM     24  H4  UNL     1      20.232  48.581  -2.828  1.00  0.00     0.166 HD
BRANCH  23  25
HETATM   25  C10 UNL     1      19.731  46.944  -1.611  1.00  0.00     0.119 A 
HETATM   26  C11 UNL     1      19.271  45.630  -1.479  1.00  0.00     0.122 A 
HETATM   27  C13 UNL     1      19.999  45.520  -0.324  1.00  0.00     0.253 A 
HETATM   28  O5  UNL     1      20.167  44.591   0.503  1.00  0.00    -0.281 OA
HETATM   29  C14 UNL     1      20.460  46.827  -0.450  1.00  0.00     0.253 A 
HETATM   30  O6  UNL     1      21.232  47.497   0.280  1.00  0.00    -0.281 OA
BRANCH  26  31
HETATM   31  N5  UNL     1      18.415  44.768  -2.222  1.00  0.00    -0.306 N 
HETATM   32  C12 UNL     1      17.028  44.708  -1.920  1.00  0.00     0.333 C 
HETATM   33  N6  UNL     1      16.215  43.830  -2.692  1.00  0.00    -0.040 NA
HETATM   34  O4  UNL     1      16.557  45.407  -1.006  1.00  0.00    -0.251 OA
ATOM     35  H5  UNL     1      18.798  44.193  -2.973  1.00  0.00     0.170 HD
ENDBRANCH  26  31
ENDBRANCH  23  25
ENDBRANCH   4  23
TORSDOF 7
ENDMDL
