MODEL 1
REMARK VINA RESULT: -7.112448757      0.000      0.000
REMARK  7 active torsions:
REMARK  status: ('A' for Active; 'I' for Inactive)
REMARK    1  A    between atoms: C2_3  and  C3_4 
REMARK    2  A    between atoms: C3_4  and  S1_5 
REMARK    3  A    between atoms: S1_5  and  C4_6 
REMARK    4  A    between atoms: C6_13  and  N4_14 
REMARK    5  A    between atoms: C8_18  and  N5_19 
REMARK       I    between atoms: N6_23  and  C10_24 
REMARK    6  A    between atoms: C11_29  and  C12_30 
REMARK    7  A    between atoms: C13_33  and  N9_34 
ROOT
HETATM    1  N1  UNL     1      18.194  48.538  -3.388  1.00  0.00    -0.196 NA
HETATM    2  C1  UNL     1      17.142  48.173  -3.119  1.00  0.00     0.074 C 
HETATM    3  C2  UNL     1      15.771  47.722  -2.779  1.00  0.00     0.104 C 
HETATM    4  C9  UNL     1      15.059  47.335  -4.061  1.00  0.00     0.154 C 
HETATM    5  N6  UNL     1      14.025  48.307  -4.280  1.00  0.00    -0.337 N 
HETATM    6  C10 UNL     1      13.313  48.461  -5.483  1.00  0.00     0.184 C 
HETATM    7  N7  UNL     1      12.779  47.416  -6.014  1.00  0.00    -0.374 N 
ATOM      8  H71 UNL     1      12.263  47.528  -6.887  1.00  0.00     0.158 HD
ATOM      9  H72 UNL     1      12.850  46.487  -5.599  1.00  0.00     0.158 HD
HETATM   10  N8  UNL     1      13.214  49.758  -6.062  1.00  0.00    -0.064 NA
HETATM   11  C11 UNL     1      13.808  49.110  -3.102  1.00  0.00     0.220 C 
HETATM   12  C13 UNL     1      15.002  48.810  -2.189  1.00  0.00     0.241 C 
ENDROOT
BRANCH   3  13
HETATM   13  C3  UNL     1      15.935  46.468  -1.970  1.00  0.00     0.109 C 
BRANCH  13  14
HETATM   14  S1  UNL     1      16.895  45.365  -3.052  1.00  0.00    -0.108 SA
BRANCH  14  15
HETATM   15  C4  UNL     1      18.411  44.835  -2.301  1.00  0.00     0.104 A 
HETATM   16  N2  UNL     1      19.448  45.660  -2.095  1.00  0.00    -0.333 N 
HETATM   17  C5  UNL     1      20.602  45.216  -1.512  1.00  0.00     0.133 A 
ATOM     18  H2  UNL     1      19.374  46.637  -2.378  1.00  0.00     0.168 HD
HETATM   19  N3  UNL     1      21.595  46.017  -1.317  1.00  0.00    -0.383 N 
HETATM   20  C6  UNL     1      20.767  43.909  -1.107  1.00  0.00     0.148 A 
ATOM     21  H32 UNL     1      21.473  46.985  -1.617  1.00  0.00     0.157 HD
ATOM     22  H31 UNL     1      22.456  45.686  -0.883  1.00  0.00     0.157 HD
HETATM   23  C7  UNL     1      19.709  43.049  -1.312  1.00  0.00     0.079 A 
HETATM   24  C8  UNL     1      18.537  43.522  -1.909  1.00  0.00     0.138 A 
BRANCH  20  25
HETATM   25  N4  UNL     1      21.988  43.466  -0.498  1.00  0.00    -0.112 N 
HETATM   26  O1  UNL     1      22.127  43.440   0.727  1.00  0.00    -0.532 OA
HETATM   27  O2  UNL     1      23.015  43.066  -1.297  1.00  0.00    -0.532 OA
ENDBRANCH  20  25
BRANCH  24  28
HETATM   28  N5  UNL     1      17.503  42.557  -2.078  1.00  0.00    -0.113 N 
HETATM   29  O3  UNL     1      17.620  41.732  -3.003  1.00  0.00    -0.532 OA
HETATM   30  O4  UNL     1      16.400  42.523  -1.251  1.00  0.00    -0.532 OA
ENDBRANCH  24  28
ENDBRANCH  14  15
ENDBRANCH  13  14
ENDBRANCH   3  13
BRANCH  12  31
HETATM   31  N9  UNL     1      14.548  48.634  -0.839  1.00  0.00    -0.071 N 
ATOM     32  H93 UNL     1      14.355  49.545  -0.425  1.00  0.00     0.274 HD
ATOM     33  H92 UNL     1      13.614  48.226  -0.846  1.00  0.00     0.274 HD
ATOM     34  H91 UNL     1      15.148  48.096  -0.213  1.00  0.00     0.274 HD
ENDBRANCH  12  31
BRANCH  11  35
HETATM   35  C12 UNL     1      12.536  48.833  -2.443  1.00  0.00     0.199 C 
HETATM   36  O5  UNL     1      12.060  47.681  -2.423  1.00  0.00    -0.646 OA
HETATM   37  O6  UNL     1      11.846  49.858  -1.833  1.00  0.00    -0.646 OA
ENDBRANCH  11  35
TORSDOF 7
ENDMDL
MODEL 2
REMARK VINA RESULT: -6.997418742      3.307      8.068
REMARK  7 active torsions:
REMARK  status: ('A' for Active; 'I' for Inactive)
REMARK    1  A    between atoms: C2_3  and  C3_4 
REMARK    2  A    between atoms: C3_4  and  S1_5 
REMARK    3  A    between atoms: S1_5  and  C4_6 
REMARK    4  A    between atoms: C6_13  and  N4_14 
REMARK    5  A    between atoms: C8_18  and  N5_19 
REMARK       I    between atoms: N6_23  and  C10_24 
REMARK    6  A    between atoms: C11_29  and  C12_30 
REMARK    7  A    between atoms: C13_33  and  N9_34 
ROOT
HETATM    1  N1  UNL     1      22.051  43.137   0.140  1.00  0.00    -0.196 NA
HETATM    2  C1  UNL     1      21.419  42.868  -0.777  1.00  0.00     0.074 C 
HETATM    3  C2  UNL     1      20.599  42.496  -1.955  1.00  0.00     0.104 C 
HETATM    4  C9  UNL     1      19.150  42.394  -1.521  1.00  0.00     0.154 C 
HETATM    5  N6  UNL     1      18.783  41.008  -1.595  1.00  0.00    -0.337 N 
HETATM    6  C10 UNL     1      17.617  40.457  -1.033  1.00  0.00     0.184 C 
HETATM    7  N7  UNL     1      16.488  41.021  -1.294  1.00  0.00    -0.374 N 
ATOM      8  H71 UNL     1      15.644  40.622  -0.885  1.00  0.00     0.158 HD
ATOM      9  H72 UNL     1      16.406  41.845  -1.889  1.00  0.00     0.158 HD
HETATM   10  N8  UNL     1      17.732  39.307  -0.202  1.00  0.00    -0.064 NA
HETATM   11  C11 UNL     1      19.766  40.249  -2.326  1.00  0.00     0.220 C 
HETATM   12  C13 UNL     1      20.977  41.180  -2.452  1.00  0.00     0.241 C 
ENDROOT
BRANCH   3  13
HETATM   13  C3  UNL     1      20.693  43.652  -2.908  1.00  0.00     0.109 C 
BRANCH  13  14
HETATM   14  S1  UNL     1      19.692  44.953  -2.126  1.00  0.00    -0.108 SA
BRANCH  14  15
HETATM   15  C4  UNL     1      18.668  45.811  -3.294  1.00  0.00     0.104 A 
HETATM   16  N2  UNL     1      19.168  46.572  -4.277  1.00  0.00    -0.333 N 
HETATM   17  C5  UNL     1      18.348  47.219  -5.159  1.00  0.00     0.133 A 
ATOM     18  H2  UNL     1      20.179  46.671  -4.369  1.00  0.00     0.168 HD
HETATM   19  N3  UNL     1      18.839  47.950  -6.103  1.00  0.00    -0.383 N 
HETATM   20  C6  UNL     1      16.974  47.127  -5.091  1.00  0.00     0.148 A 
ATOM     21  H32 UNL     1      19.855  48.017  -6.154  1.00  0.00     0.157 HD
ATOM     22  H31 UNL     1      18.227  48.432  -6.761  1.00  0.00     0.157 HD
HETATM   23  C7  UNL     1      16.446  46.347  -4.084  1.00  0.00     0.079 A 
HETATM   24  C8  UNL     1      17.301  45.694  -3.192  1.00  0.00     0.138 A 
BRANCH  20  25
HETATM   25  N4  UNL     1      16.134  47.816  -6.028  1.00  0.00    -0.112 N 
HETATM   26  O1  UNL     1      15.706  48.950  -5.800  1.00  0.00    -0.532 OA
HETATM   27  O2  UNL     1      15.806  47.198  -7.196  1.00  0.00    -0.532 OA
ENDBRANCH  20  25
BRANCH  24  28
HETATM   28  N5  UNL     1      16.659  44.913  -2.189  1.00  0.00    -0.113 N 
HETATM   29  O3  UNL     1      16.637  45.360  -1.027  1.00  0.00    -0.532 OA
HETATM   30  O4  UNL     1      16.074  43.698  -2.478  1.00  0.00    -0.532 OA
ENDBRANCH  24  28
ENDBRANCH  14  15
ENDBRANCH  13  14
ENDBRANCH   3  13
BRANCH  12  31
HETATM   31  N9  UNL     1      21.507  41.110  -3.783  1.00  0.00    -0.071 N 
ATOM     32  H93 UNL     1      21.244  40.220  -4.206  1.00  0.00     0.274 HD
ATOM     33  H92 UNL     1      21.002  41.762  -4.383  1.00  0.00     0.274 HD
ATOM     34  H91 UNL     1      22.511  41.255  -3.893  1.00  0.00     0.274 HD
ENDBRANCH  12  31
BRANCH  11  35
HETATM   35  C12 UNL     1      19.292  39.794  -3.629  1.00  0.00     0.199 C 
HETATM   36  O5  UNL     1      18.579  40.525  -4.344  1.00  0.00    -0.646 OA
HETATM   37  O6  UNL     1      19.634  38.537  -4.080  1.00  0.00    -0.646 OA
ENDBRANCH  11  35
TORSDOF 7
ENDMDL
MODEL 3
REMARK VINA RESULT: -6.904888030      3.333      7.821
REMARK  7 active torsions:
REMARK  status: ('A' for Active; 'I' for Inactive)
REMARK    1  A    between atoms: C2_3  and  C3_4 
REMARK    2  A    between atoms: C3_4  and  S1_5 
REMARK    3  A    between atoms: S1_5  and  C4_6 
REMARK    4  A    between atoms: C6_13  and  N4_14 
REMARK    5  A    between atoms: C8_18  and  N5_19 
REMARK       I    between atoms: N6_23  and  C10_24 
REMARK    6  A    between atoms: C11_29  and  C12_30 
REMARK    7  A    between atoms: C13_33  and  N9_34 
ROOT
HETATM    1  N1  UNL     1      21.832  43.463   0.315  1.00  0.00    -0.196 NA
HETATM    2  C1  UNL     1      21.277  43.151  -0.637  1.00  0.00     0.074 C 
HETATM    3  C2  UNL     1      20.556  42.724  -1.860  1.00  0.00     0.104 C 
HETATM    4  C9  UNL     1      19.075  42.643  -1.544  1.00  0.00     0.154 C 
HETATM    5  N6  UNL     1      18.710  41.255  -1.584  1.00  0.00    -0.337 N 
HETATM    6  C10 UNL     1      17.500  40.731  -1.094  1.00  0.00     0.184 C 
HETATM    7  N7  UNL     1      16.399  41.281  -1.474  1.00  0.00    -0.374 N 
ATOM      8  H71 UNL     1      15.522  40.902  -1.119  1.00  0.00     0.158 HD
ATOM      9  H72 UNL     1      16.369  42.077  -2.112  1.00  0.00     0.158 HD
HETATM   10  N8  UNL     1      17.541  39.620  -0.204  1.00  0.00    -0.064 NA
HETATM   11  C11 UNL     1      19.748  40.462  -2.194  1.00  0.00     0.220 C 
HETATM   12  C13 UNL     1      20.969  41.386  -2.262  1.00  0.00     0.241 C 
ENDROOT
BRANCH   3  13
HETATM   13  C3  UNL     1      20.733  43.835  -2.855  1.00  0.00     0.109 C 
BRANCH  13  14
HETATM   14  S1  UNL     1      19.072  44.070  -3.557  1.00  0.00    -0.108 SA
BRANCH  14  15
HETATM   15  C4  UNL     1      18.547  45.763  -3.496  1.00  0.00     0.104 A 
HETATM   16  N2  UNL     1      19.221  46.756  -4.093  1.00  0.00    -0.333 N 
HETATM   17  C5  UNL     1      18.786  48.050  -4.025  1.00  0.00     0.133 A 
ATOM     18  H2  UNL     1      20.075  46.541  -4.608  1.00  0.00     0.168 HD
HETATM   19  N3  UNL     1      19.442  48.999  -4.604  1.00  0.00    -0.383 N 
HETATM   20  C6  UNL     1      17.641  48.407  -3.346  1.00  0.00     0.148 A 
ATOM     21  H32 UNL     1      20.289  48.734  -5.107  1.00  0.00     0.157 HD
ATOM     22  H31 UNL     1      19.117  49.964  -4.553  1.00  0.00     0.157 HD
HETATM   23  C7  UNL     1      16.936  47.396  -2.727  1.00  0.00     0.079 A 
HETATM   24  C8  UNL     1      17.398  46.080  -2.807  1.00  0.00     0.138 A 
BRANCH  20  25
HETATM   25  N4  UNL     1      17.204  49.772  -3.288  1.00  0.00    -0.112 N 
HETATM   26  O1  UNL     1      16.425  50.237  -4.123  1.00  0.00    -0.532 OA
HETATM   27  O2  UNL     1      17.665  50.570  -2.285  1.00  0.00    -0.532 OA
ENDBRANCH  20  25
BRANCH  24  28
HETATM   28  N5  UNL     1      16.601  45.109  -2.135  1.00  0.00    -0.113 N 
HETATM   29  O3  UNL     1      16.672  45.055  -0.893  1.00  0.00    -0.532 OA
HETATM   30  O4  UNL     1      15.771  44.249  -2.822  1.00  0.00    -0.532 OA
ENDBRANCH  24  28
ENDBRANCH  14  15
ENDBRANCH  13  14
ENDBRANCH   3  13
BRANCH  12  31
HETATM   31  N9  UNL     1      21.607  41.254  -3.540  1.00  0.00    -0.071 N 
ATOM     32  H93 UNL     1      22.616  41.186  -3.410  1.00  0.00     0.274 HD
ATOM     33  H92 UNL     1      21.402  40.333  -3.928  1.00  0.00     0.274 HD
ATOM     34  H91 UNL     1      21.402  41.969  -4.240  1.00  0.00     0.274 HD
ENDBRANCH  12  31
BRANCH  11  35
HETATM   35  C12 UNL     1      19.382  39.946  -3.509  1.00  0.00     0.199 C 
HETATM   36  O5  UNL     1      18.786  40.664  -4.337  1.00  0.00    -0.646 OA
HETATM   37  O6  UNL     1      19.696  38.647  -3.845  1.00  0.00    -0.646 OA
ENDBRANCH  11  35
TORSDOF 7
ENDMDL
MODEL 4
REMARK VINA RESULT: -6.901992082      1.673      2.988
REMARK  7 active torsions:
REMARK  status: ('A' for Active; 'I' for Inactive)
REMARK    1  A    between atoms: C2_3  and  C3_4 
REMARK    2  A    between atoms: C3_4  and  S1_5 
REMARK    3  A    between atoms: S1_5  and  C4_6 
REMARK    4  A    between atoms: C6_13  and  N4_14 
REMARK    5  A    between atoms: C8_18  and  N5_19 
REMARK       I    between atoms: N6_23  and  C10_24 
REMARK    6  A    between atoms: C11_29  and  C12_30 
REMARK    7  A    between atoms: C13_33  and  N9_34 
ROOT
HETATM    1  N1  UNL     1      17.931  48.693  -3.849  1.00  0.00    -0.196 NA
HETATM    2  C1  UNL     1      16.925  48.315  -3.453  1.00  0.00     0.074 C 
HETATM    3  C2  UNL     1      15.613  47.847  -2.947  1.00  0.00     0.104 C 
HETATM    4  C9  UNL     1      14.770  47.405  -4.128  1.00  0.00     0.154 C 
HETATM    5  N6  UNL     1      13.696  48.348  -4.256  1.00  0.00    -0.337 N 
HETATM    6  C10 UNL     1      12.849  48.450  -5.375  1.00  0.00     0.184 C 
HETATM    7  N7  UNL     1      12.283  47.378  -5.812  1.00  0.00    -0.374 N 
ATOM      8  H71 UNL     1      11.670  47.452  -6.623  1.00  0.00     0.158 HD
ATOM      9  H72 UNL     1      12.423  46.464  -5.381  1.00  0.00     0.158 HD
HETATM   10  N8  UNL     1      12.653  49.725  -5.976  1.00  0.00    -0.064 NA
HETATM   11  C11 UNL     1      13.593  49.182  -3.084  1.00  0.00     0.220 C 
HETATM   12  C13 UNL     1      14.889  48.936  -2.304  1.00  0.00     0.241 C 
ENDROOT
BRANCH   3  13
HETATM   13  C3  UNL     1      15.897  46.622  -2.126  1.00  0.00     0.109 C 
BRANCH  13  14
HETATM   14  S1  UNL     1      17.077  45.676  -3.135  1.00  0.00    -0.108 SA
BRANCH  14  15
HETATM   15  C4  UNL     1      17.359  44.046  -2.495  1.00  0.00     0.104 A 
HETATM   16  N2  UNL     1      16.376  43.151  -2.328  1.00  0.00    -0.333 N 
HETATM   17  C5  UNL     1      16.631  41.903  -1.832  1.00  0.00     0.133 A 
ATOM     18  H2  UNL     1      15.420  43.405  -2.576  1.00  0.00     0.168 HD
HETATM   19  N3  UNL     1      15.678  41.047  -1.675  1.00  0.00    -0.383 N 
HETATM   20  C6  UNL     1      17.900  41.496  -1.478  1.00  0.00     0.148 A 
ATOM     21  H32 UNL     1      14.739  41.348  -1.937  1.00  0.00     0.157 HD
ATOM     22  H31 UNL     1      15.868  40.116  -1.304  1.00  0.00     0.157 HD
HETATM   23  C7  UNL     1      18.921  42.407  -1.645  1.00  0.00     0.079 A 
HETATM   24  C8  UNL     1      18.640  43.678  -2.153  1.00  0.00     0.138 A 
BRANCH  20  25
HETATM   25  N4  UNL     1      18.142  40.180  -0.959  1.00  0.00    -0.112 N 
HETATM   26  O1  UNL     1      17.499  39.733  -0.007  1.00  0.00    -0.532 OA
HETATM   27  O2  UNL     1      19.107  39.412  -1.536  1.00  0.00    -0.532 OA
ENDBRANCH  20  25
BRANCH  24  28
HETATM   28  N5  UNL     1      19.762  44.545  -2.288  1.00  0.00    -0.113 N 
HETATM   29  O3  UNL     1      20.423  44.484  -3.341  1.00  0.00    -0.532 OA
HETATM   30  O4  UNL     1      20.119  45.431  -1.293  1.00  0.00    -0.532 OA
ENDBRANCH  24  28
ENDBRANCH  14  15
ENDBRANCH  13  14
ENDBRANCH   3  13
BRANCH  12  31
HETATM   31  N9  UNL     1      14.595  48.793  -0.908  1.00  0.00    -0.071 N 
ATOM     32  H93 UNL     1      13.939  49.520  -0.623  1.00  0.00     0.274 HD
ATOM     33  H92 UNL     1      14.026  47.958  -0.765  1.00  0.00     0.274 HD
ATOM     34  H91 UNL     1      15.386  48.778  -0.264  1.00  0.00     0.274 HD
ENDBRANCH  12  31
BRANCH  11  35
HETATM   35  C12 UNL     1      12.410  48.900  -2.278  1.00  0.00     0.199 C 
HETATM   36  O5  UNL     1      11.985  47.735  -2.147  1.00  0.00    -0.646 OA
HETATM   37  O6  UNL     1      11.750  49.934  -1.650  1.00  0.00    -0.646 OA
ENDBRANCH  11  35
TORSDOF 7
ENDMDL
MODEL 5
REMARK VINA RESULT: -6.818099170      6.030      9.183
REMARK  7 active torsions:
REMARK  status: ('A' for Active; 'I' for Inactive)
REMARK    1  A    between atoms: C2_3  and  C3_4 
REMARK    2  A    between atoms: C3_4  and  S1_5 
REMARK    3  A    between atoms: S1_5  and  C4_6 
REMARK    4  A    between atoms: C6_13  and  N4_14 
REMARK    5  A    between atoms: C8_18  and  N5_19 
REMARK       I    between atoms: N6_23  and  C10_24 
REMARK    6  A    between atoms: C11_29  and  C12_30 
REMARK    7  A    between atoms: C13_33  and  N9_34 
ROOT
HETATM    1  N1  UNL     1      22.856  38.849  -2.261  1.00  0.00    -0.196 NA
HETATM    2  C1  UNL     1      21.782  39.197  -2.453  1.00  0.00     0.074 C 
HETATM    3  C2  UNL     1      20.391  39.657  -2.680  1.00  0.00     0.104 C 
HETATM    4  C9  UNL     1      20.418  41.143  -2.982  1.00  0.00     0.154 C 
HETATM    5  N6  UNL     1      19.807  41.811  -1.868  1.00  0.00    -0.337 N 
HETATM    6  C10 UNL     1      19.870  43.197  -1.634  1.00  0.00     0.184 C 
HETATM    7  N7  UNL     1      19.555  43.994  -2.597  1.00  0.00    -0.374 N 
ATOM      8  H71 UNL     1      19.600  44.998  -2.427  1.00  0.00     0.158 HD
ATOM      9  H72 UNL     1      19.263  43.662  -3.516  1.00  0.00     0.158 HD
HETATM   10  N8  UNL     1      20.277  43.660  -0.351  1.00  0.00    -0.064 NA
HETATM   11  C11 UNL     1      19.117  40.876  -1.016  1.00  0.00     0.220 C 
HETATM   12  C13 UNL     1      19.590  39.493  -1.474  1.00  0.00     0.241 C 
ENDROOT
BRANCH   3  13
HETATM   13  C3  UNL     1      19.922  38.963  -3.926  1.00  0.00     0.109 C 
BRANCH  13  14
HETATM   14  S1  UNL     1      20.966  39.659  -5.242  1.00  0.00    -0.108 SA
BRANCH  14  15
HETATM   15  C4  UNL     1      20.036  40.075  -6.693  1.00  0.00     0.104 A 
HETATM   16  N2  UNL     1      19.810  41.341  -7.074  1.00  0.00    -0.333 N 
HETATM   17  C5  UNL     1      19.088  41.624  -8.200  1.00  0.00     0.133 A 
ATOM     18  H2  UNL     1      20.183  42.106  -6.512  1.00  0.00     0.168 HD
HETATM   19  N3  UNL     1      18.875  42.845  -8.558  1.00  0.00    -0.383 N 
HETATM   20  C6  UNL     1      18.557  40.636  -9.002  1.00  0.00     0.148 A 
ATOM     21  H32 UNL     1      19.269  43.576  -7.965  1.00  0.00     0.157 HD
ATOM     22  H31 UNL     1      18.337  43.056  -9.398  1.00  0.00     0.157 HD
HETATM   23  C7  UNL     1      18.782  39.330  -8.623  1.00  0.00     0.079 A 
HETATM   24  C8  UNL     1      19.522  39.061  -7.468  1.00  0.00     0.138 A 
BRANCH  20  25
HETATM   25  N4  UNL     1      17.802  40.958 -10.179  1.00  0.00    -0.112 N 
HETATM   26  O1  UNL     1      16.616  40.639 -10.293  1.00  0.00    -0.532 OA
HETATM   27  O2  UNL     1      18.415  41.632 -11.190  1.00  0.00    -0.532 OA
ENDBRANCH  20  25
BRANCH  24  28
HETATM   28  N5  UNL     1      19.699  37.681  -7.162  1.00  0.00    -0.113 N 
HETATM   29  O3  UNL     1      18.779  37.093  -6.565  1.00  0.00    -0.532 OA
HETATM   30  O4  UNL     1      20.848  37.002  -7.509  1.00  0.00    -0.532 OA
ENDBRANCH  24  28
ENDBRANCH  14  15
ENDBRANCH  13  14
ENDBRANCH   3  13
BRANCH  12  31
HETATM   31  N9  UNL     1      18.472  38.597  -1.548  1.00  0.00    -0.071 N 
ATOM     32  H93 UNL     1      17.611  39.137  -1.635  1.00  0.00     0.274 HD
ATOM     33  H92 UNL     1      18.484  38.112  -2.445  1.00  0.00     0.274 HD
ATOM     34  H91 UNL     1      18.371  37.915  -0.795  1.00  0.00     0.274 HD
ENDBRANCH  12  31
BRANCH  11  35
HETATM   35  C12 UNL     1      17.664  41.003  -1.078  1.00  0.00     0.199 C 
HETATM   36  O5  UNL     1      16.965  40.892  -0.051  1.00  0.00    -0.646 OA
HETATM   37  O6  UNL     1      17.052  41.248  -2.288  1.00  0.00    -0.646 OA
ENDBRANCH  11  35
TORSDOF 7
ENDMDL
