MODEL 1
REMARK VINA RESULT: -7.006977183      0.000      0.000
REMARK  11 active torsions:
REMARK  status: ('A' for Active; 'I' for Inactive)
REMARK    1  A    between atoms: O1_2  and  C2_3 
REMARK    2  A    between atoms: C2_3  and  C3_5 
REMARK    3  A    between atoms: C4_7  and  N1_8 
REMARK       I    between atoms: N1_8  and  C5_10 
REMARK    4  A    between atoms: C5_10  and  C6_12 
REMARK    5  A    between atoms: C7_15  and  N3_16 
REMARK    6  A    between atoms: C8_21  and  N5_22 
REMARK    7  A    between atoms: C9_28  and  C10_29 
REMARK    8  A    between atoms: C10_29  and  O5_31 
REMARK    9  A    between atoms: O5_31  and  C11_32 
REMARK   10  A    between atoms: C11_32  and  C12_33 
REMARK   11  A    between atoms: C12_33  and  C13_34 
ROOT
HETATM    1  N1  UNL     1      17.154  45.934  -2.903  1.00  0.00    -0.309 N 
ATOM      2  H1  UNL     1      17.401  46.849  -3.280  1.00  0.00     0.170 HD
HETATM    3  C5  UNL     1      15.811  45.568  -2.933  1.00  0.00     0.292 C 
HETATM    4  O3  UNL     1      15.471  44.368  -2.857  1.00  0.00    -0.264 OA
ENDROOT
BRANCH   1   5
HETATM    5  C4  UNL     1      18.104  45.210  -2.438  1.00  0.00     0.120 A 
HETATM    6  S1  UNL     1      19.220  45.611  -1.238  1.00  0.00    -0.057 SA
HETATM    7  C3  UNL     1      20.307  44.292  -0.959  1.00  0.00     0.105 A 
HETATM    8  C9  UNL     1      20.005  43.236  -1.779  1.00  0.00     0.105 A 
HETATM    9  S2  UNL     1      18.642  43.643  -2.776  1.00  0.00    -0.057 SA
BRANCH   7  10
HETATM   10  C2  UNL     1      21.365  44.394   0.037  1.00  0.00     0.301 C 
HETATM   11  O2  UNL     1      22.588  44.372  -0.374  1.00  0.00    -0.259 OA
BRANCH  10  12
HETATM   12  O1  UNL     1      21.250  44.511   1.379  1.00  0.00    -0.322 OA
HETATM   13  C1  UNL     1      22.145  45.242   2.194  1.00  0.00     0.213 C 
ENDBRANCH  10  12
ENDBRANCH   7  10
BRANCH   8  14
HETATM   14  C10 UNL     1      20.627  41.934  -1.911  1.00  0.00     0.301 C 
HETATM   15  O4  UNL     1      21.626  41.735  -2.603  1.00  0.00    -0.259 OA
BRANCH  14  16
HETATM   16  O5  UNL     1      20.122  40.807  -1.246  1.00  0.00    -0.317 OA
BRANCH  16  17
HETATM   17  C11 UNL     1      18.983  40.117  -1.797  1.00  0.00     0.189 C 
BRANCH  17  18
HETATM   18  C12 UNL     1      18.007  39.763  -0.739  1.00  0.00     0.140 C 
BRANCH  18  19
HETATM   19  C13 UNL     1      16.892  40.759  -0.644  1.00  0.00     0.174 C 
HETATM   20  O6  UNL     1      16.581  41.199   0.517  1.00  0.00    -0.648 OA
HETATM   21  O7  UNL     1      16.197  41.210  -1.757  1.00  0.00    -0.648 OA
ENDBRANCH  18  19
ENDBRANCH  17  18
ENDBRANCH  16  17
ENDBRANCH  14  16
ENDBRANCH   8  14
ENDBRANCH   1   5
BRANCH   3  22
HETATM   22  C6  UNL     1      14.776  46.579  -3.056  1.00  0.00     0.204 A 
HETATM   23  N2  UNL     1      14.697  47.657  -2.269  1.00  0.00    -0.170 N 
HETATM   24  C7  UNL     1      13.723  48.553  -2.420  1.00  0.00     0.692 A 
ATOM     25  H2  UNL     1      15.396  47.795  -1.539  1.00  0.00     0.186 HD
HETATM   26  N4  UNL     1      12.782  48.395  -3.382  1.00  0.00    -0.023 N 
HETATM   27  C8  UNL     1      12.832  47.323  -4.192  1.00  0.00     0.692 A 
ATOM     28  H4  UNL     1      12.040  49.087  -3.492  1.00  0.00     0.203 HD
HETATM   29  N6  UNL     1      13.805  46.453  -4.020  1.00  0.00    -0.170 N 
ATOM     30  H6  UNL     1      13.839  45.641  -4.637  1.00  0.00     0.186 HD
BRANCH  24  31
HETATM   31  N3  UNL     1      13.620  49.607  -1.673  1.00  0.00    -0.234 N 
ATOM     32  H32 UNL     1      14.105  49.582  -0.776  1.00  0.00     0.174 HD
ATOM     33  H31 UNL     1      13.084  50.429  -1.951  1.00  0.00     0.174 HD
ENDBRANCH  24  31
BRANCH  27  34
HETATM   34  N5  UNL     1      11.954  47.136  -5.119  1.00  0.00    -0.234 N 
ATOM     35  H52 UNL     1      11.080  46.654  -4.906  1.00  0.00     0.174 HD
ATOM     36  H51 UNL     1      12.109  47.461  -6.074  1.00  0.00     0.174 HD
ENDBRANCH  27  34
ENDBRANCH   3  22
TORSDOF 11
ENDMDL
MODEL 2
REMARK VINA RESULT: -6.931208506      0.129      1.623
REMARK  11 active torsions:
REMARK  status: ('A' for Active; 'I' for Inactive)
REMARK    1  A    between atoms: O1_2  and  C2_3 
REMARK    2  A    between atoms: C2_3  and  C3_5 
REMARK    3  A    between atoms: C4_7  and  N1_8 
REMARK       I    between atoms: N1_8  and  C5_10 
REMARK    4  A    between atoms: C5_10  and  C6_12 
REMARK    5  A    between atoms: C7_15  and  N3_16 
REMARK    6  A    between atoms: C8_21  and  N5_22 
REMARK    7  A    between atoms: C9_28  and  C10_29 
REMARK    8  A    between atoms: C10_29  and  O5_31 
REMARK    9  A    between atoms: O5_31  and  C11_32 
REMARK   10  A    between atoms: C11_32  and  C12_33 
REMARK   11  A    between atoms: C12_33  and  C13_34 
ROOT
HETATM    1  N1  UNL     1      17.133  45.860  -2.960  1.00  0.00    -0.309 N 
ATOM      2  H1  UNL     1      17.362  46.769  -3.361  1.00  0.00     0.170 HD
HETATM    3  C5  UNL     1      15.798  45.467  -2.981  1.00  0.00     0.292 C 
HETATM    4  O3  UNL     1      15.481  44.262  -2.874  1.00  0.00    -0.264 OA
ENDROOT
BRANCH   1   5
HETATM    5  C4  UNL     1      18.096  45.167  -2.475  1.00  0.00     0.120 A 
HETATM    6  S1  UNL     1      19.173  45.605  -1.253  1.00  0.00    -0.057 SA
HETATM    7  C3  UNL     1      20.297  44.323  -0.950  1.00  0.00     0.105 A 
HETATM    8  C9  UNL     1      20.047  43.257  -1.775  1.00  0.00     0.105 A 
HETATM    9  S2  UNL     1      18.692  43.619  -2.801  1.00  0.00    -0.057 SA
BRANCH   7  10
HETATM   10  C2  UNL     1      21.331  44.459   0.068  1.00  0.00     0.301 C 
HETATM   11  O2  UNL     1      22.562  44.483  -0.319  1.00  0.00    -0.259 OA
BRANCH  10  12
HETATM   12  O1  UNL     1      21.184  44.566   1.408  1.00  0.00    -0.322 OA
HETATM   13  C1  UNL     1      22.045  45.313   2.245  1.00  0.00     0.213 C 
ENDBRANCH  10  12
ENDBRANCH   7  10
BRANCH   8  14
HETATM   14  C10 UNL     1      20.713  41.976  -1.893  1.00  0.00     0.301 C 
HETATM   15  O4  UNL     1      21.729  41.808  -2.569  1.00  0.00    -0.259 OA
BRANCH  14  16
HETATM   16  O5  UNL     1      20.236  40.834  -1.233  1.00  0.00    -0.317 OA
BRANCH  16  17
HETATM   17  C11 UNL     1      19.127  40.108  -1.797  1.00  0.00     0.189 C 
BRANCH  17  18
HETATM   18  C12 UNL     1      18.133  39.754  -0.757  1.00  0.00     0.140 C 
BRANCH  18  19
HETATM   19  C13 UNL     1      17.000  40.733  -0.701  1.00  0.00     0.174 C 
HETATM   20  O6  UNL     1      16.481  41.109  -1.808  1.00  0.00    -0.648 OA
HETATM   21  O7  UNL     1      16.507  41.236   0.494  1.00  0.00    -0.648 OA
ENDBRANCH  18  19
ENDBRANCH  17  18
ENDBRANCH  16  17
ENDBRANCH  14  16
ENDBRANCH   8  14
ENDBRANCH   1   5
BRANCH   3  22
HETATM   22  C6  UNL     1      14.742  46.453  -3.132  1.00  0.00     0.204 A 
HETATM   23  N2  UNL     1      13.750  46.344  -4.023  1.00  0.00    -0.170 N 
HETATM   24  C7  UNL     1      12.808  47.280  -4.125  1.00  0.00     0.692 A 
ATOM     25  H2  UNL     1      13.716  45.529  -4.636  1.00  0.00     0.186 HD
HETATM   26  N4  UNL     1      12.829  48.372  -3.323  1.00  0.00    -0.023 N 
HETATM   27  C8  UNL     1      13.812  48.513  -2.416  1.00  0.00     0.692 A 
ATOM     28  H4  UNL     1      12.103  49.084  -3.407  1.00  0.00     0.203 HD
HETATM   29  N6  UNL     1      14.730  47.573  -2.337  1.00  0.00    -0.170 N 
ATOM     30  H6  UNL     1      15.473  47.683  -1.647  1.00  0.00     0.186 HD
BRANCH  24  31
HETATM   31  N3  UNL     1      11.836  47.203  -4.978  1.00  0.00    -0.234 N 
ATOM     32  H32 UNL     1      11.922  46.497  -5.709  1.00  0.00     0.174 HD
ATOM     33  H31 UNL     1      11.017  47.811  -4.936  1.00  0.00     0.174 HD
ENDBRANCH  24  31
BRANCH  27  34
HETATM   34  N5  UNL     1      13.868  49.539  -1.635  1.00  0.00    -0.234 N 
ATOM     35  H52 UNL     1      13.084  49.756  -1.019  1.00  0.00     0.174 HD
ATOM     36  H51 UNL     1      14.686  50.149  -1.614  1.00  0.00     0.174 HD
ENDBRANCH  27  34
ENDBRANCH   3  22
TORSDOF 11
ENDMDL
MODEL 3
REMARK VINA RESULT: -6.867459268      1.801      4.719
REMARK  11 active torsions:
REMARK  status: ('A' for Active; 'I' for Inactive)
REMARK    1  A    between atoms: O1_2  and  C2_3 
REMARK    2  A    between atoms: C2_3  and  C3_5 
REMARK    3  A    between atoms: C4_7  and  N1_8 
REMARK       I    between atoms: N1_8  and  C5_10 
REMARK    4  A    between atoms: C5_10  and  C6_12 
REMARK    5  A    between atoms: C7_15  and  N3_16 
REMARK    6  A    between atoms: C8_21  and  N5_22 
REMARK    7  A    between atoms: C9_28  and  C10_29 
REMARK    8  A    between atoms: C10_29  and  O5_31 
REMARK    9  A    between atoms: O5_31  and  C11_32 
REMARK   10  A    between atoms: C11_32  and  C12_33 
REMARK   11  A    between atoms: C12_33  and  C13_34 
ROOT
HETATM    1  N1  UNL     1      16.905  44.105  -2.777  1.00  0.00    -0.309 N 
ATOM      2  H1  UNL     1      16.480  43.899  -3.681  1.00  0.00     0.170 HD
HETATM    3  C5  UNL     1      16.422  45.205  -2.075  1.00  0.00     0.292 C 
HETATM    4  O3  UNL     1      16.598  45.309  -0.842  1.00  0.00    -0.264 OA
ENDROOT
BRANCH   1   5
HETATM    5  C4  UNL     1      17.843  43.329  -2.374  1.00  0.00     0.120 A 
HETATM    6  S1  UNL     1      17.769  41.664  -2.113  1.00  0.00    -0.057 SA
HETATM    7  C3  UNL     1      19.301  41.068  -1.570  1.00  0.00     0.105 A 
HETATM    8  C9  UNL     1      20.211  42.090  -1.480  1.00  0.00     0.105 A 
HETATM    9  S2  UNL     1      19.460  43.584  -1.950  1.00  0.00    -0.057 SA
BRANCH   7  10
HETATM   10  C2  UNL     1      19.493  39.654  -1.278  1.00  0.00     0.301 C 
HETATM   11  O2  UNL     1      18.557  39.035  -0.641  1.00  0.00    -0.259 OA
BRANCH  10  12
HETATM   12  O1  UNL     1      20.547  38.866  -1.586  1.00  0.00    -0.322 OA
HETATM   13  C1  UNL     1      21.016  38.642  -2.901  1.00  0.00     0.213 C 
ENDBRANCH  10  12
ENDBRANCH   7  10
BRANCH   8  14
HETATM   14  C10 UNL     1      21.602  42.083  -1.073  1.00  0.00     0.301 C 
HETATM   15  O4  UNL     1      22.481  41.493  -1.702  1.00  0.00    -0.259 OA
BRANCH  14  16
HETATM   16  O5  UNL     1      22.037  42.760   0.075  1.00  0.00    -0.317 OA
BRANCH  16  17
HETATM   17  C11 UNL     1      22.269  44.181   0.008  1.00  0.00     0.189 C 
BRANCH  17  18
HETATM   18  C12 UNL     1      22.245  44.792   1.358  1.00  0.00     0.140 C 
BRANCH  18  19
HETATM   19  C13 UNL     1      22.628  46.241   1.328  1.00  0.00     0.174 C 
HETATM   20  O6  UNL     1      23.731  46.579   1.882  1.00  0.00    -0.648 OA
HETATM   21  O7  UNL     1      21.837  47.210   0.728  1.00  0.00    -0.648 OA
ENDBRANCH  18  19
ENDBRANCH  17  18
ENDBRANCH  16  17
ENDBRANCH  14  16
ENDBRANCH   8  14
ENDBRANCH   1   5
BRANCH   3  22
HETATM   22  C6  UNL     1      15.699  46.259  -2.766  1.00  0.00     0.204 A 
HETATM   23  N2  UNL     1      15.242  46.144  -4.017  1.00  0.00    -0.170 N 
HETATM   24  C7  UNL     1      14.588  47.143  -4.608  1.00  0.00     0.692 A 
ATOM     25  H2  UNL     1      15.397  45.276  -4.529  1.00  0.00     0.186 HD
HETATM   26  N4  UNL     1      14.366  48.308  -3.952  1.00  0.00    -0.023 N 
HETATM   27  C8  UNL     1      14.811  48.456  -2.691  1.00  0.00     0.692 A 
ATOM     28  H4  UNL     1      13.863  49.067  -4.411  1.00  0.00     0.203 HD
HETATM   29  N6  UNL     1      15.455  47.453  -2.132  1.00  0.00    -0.170 N 
ATOM     30  H6  UNL     1      15.791  47.570  -1.176  1.00  0.00     0.186 HD
BRANCH  24  31
HETATM   31  N3  UNL     1      14.133  47.062  -5.819  1.00  0.00    -0.234 N 
ATOM     32  H32 UNL     1      13.371  46.404  -5.979  1.00  0.00     0.174 HD
ATOM     33  H31 UNL     1      14.508  47.621  -6.586  1.00  0.00     0.174 HD
ENDBRANCH  24  31
BRANCH  27  34
HETATM   34  N5  UNL     1      14.622  49.550  -2.033  1.00  0.00    -0.234 N 
ATOM     35  H52 UNL     1      15.338  49.891  -1.391  1.00  0.00     0.174 HD
ATOM     36  H51 UNL     1      13.765  50.093  -2.137  1.00  0.00     0.174 HD
ENDBRANCH  27  34
ENDBRANCH   3  22
TORSDOF 11
ENDMDL
MODEL 4
REMARK VINA RESULT: -6.806869662      1.848      4.534
REMARK  11 active torsions:
REMARK  status: ('A' for Active; 'I' for Inactive)
REMARK    1  A    between atoms: O1_2  and  C2_3 
REMARK    2  A    between atoms: C2_3  and  C3_5 
REMARK    3  A    between atoms: C4_7  and  N1_8 
REMARK       I    between atoms: N1_8  and  C5_10 
REMARK    4  A    between atoms: C5_10  and  C6_12 
REMARK    5  A    between atoms: C7_15  and  N3_16 
REMARK    6  A    between atoms: C8_21  and  N5_22 
REMARK    7  A    between atoms: C9_28  and  C10_29 
REMARK    8  A    between atoms: C10_29  and  O5_31 
REMARK    9  A    between atoms: O5_31  and  C11_32 
REMARK   10  A    between atoms: C11_32  and  C12_33 
REMARK   11  A    between atoms: C12_33  and  C13_34 
ROOT
HETATM    1  N1  UNL     1      17.399  44.632  -2.919  1.00  0.00    -0.309 N 
ATOM      2  H1  UNL     1      17.184  44.562  -3.913  1.00  0.00     0.170 HD
HETATM    3  C5  UNL     1      16.571  45.432  -2.137  1.00  0.00     0.292 C 
HETATM    4  O3  UNL     1      16.516  45.282  -0.897  1.00  0.00    -0.264 OA
ENDROOT
BRANCH   1   5
HETATM    5  C4  UNL     1      18.410  43.975  -2.485  1.00  0.00     0.120 A 
HETATM    6  S1  UNL     1      18.667  42.309  -2.547  1.00  0.00    -0.057 SA
HETATM    7  C3  UNL     1      20.190  41.904  -1.829  1.00  0.00     0.105 A 
HETATM    8  C9  UNL     1      20.825  43.033  -1.378  1.00  0.00     0.105 A 
HETATM    9  S2  UNL     1      19.845  44.427  -1.712  1.00  0.00    -0.057 SA
BRANCH   7  10
HETATM   10  C2  UNL     1      20.642  40.521  -1.763  1.00  0.00     0.301 C 
HETATM   11  O2  UNL     1      21.560  40.144  -2.588  1.00  0.00    -0.259 OA
BRANCH  10  12
HETATM   12  O1  UNL     1      20.225  39.536  -0.936  1.00  0.00    -0.322 OA
HETATM   13  C1  UNL     1      19.209  38.606  -1.254  1.00  0.00     0.213 C 
ENDBRANCH  10  12
ENDBRANCH   7  10
BRANCH   8  14
HETATM   14  C10 UNL     1      22.102  43.196  -0.713  1.00  0.00     0.301 C 
HETATM   15  O4  UNL     1      23.180  43.114  -1.303  1.00  0.00    -0.259 OA
BRANCH  14  16
HETATM   16  O5  UNL     1      22.188  43.464   0.660  1.00  0.00    -0.317 OA
BRANCH  16  17
HETATM   17  C11 UNL     1      21.604  44.674   1.178  1.00  0.00     0.189 C 
BRANCH  17  18
HETATM   18  C12 UNL     1      22.521  45.350   2.126  1.00  0.00     0.140 C 
BRANCH  18  19
HETATM   19  C13 UNL     1      23.214  46.523   1.503  1.00  0.00     0.174 C 
HETATM   20  O6  UNL     1      22.617  47.132   0.549  1.00  0.00    -0.648 OA
HETATM   21  O7  UNL     1      24.462  46.961   1.920  1.00  0.00    -0.648 OA
ENDBRANCH  18  19
ENDBRANCH  17  18
ENDBRANCH  16  17
ENDBRANCH  14  16
ENDBRANCH   8  14
ENDBRANCH   1   5
BRANCH   3  22
HETATM   22  C6  UNL     1      15.749  46.460  -2.750  1.00  0.00     0.204 A 
HETATM   23  N2  UNL     1      15.361  47.573  -2.117  1.00  0.00    -0.170 N 
HETATM   24  C7  UNL     1      14.602  48.484  -2.723  1.00  0.00     0.692 A 
ATOM     25  H2  UNL     1      15.651  47.725  -1.151  1.00  0.00     0.186 HD
HETATM   26  N4  UNL     1      14.202  48.307  -4.006  1.00  0.00    -0.023 N 
HETATM   27  C8  UNL     1      14.575  47.200  -4.673  1.00  0.00     0.692 A 
ATOM     28  H4  UNL     1      13.622  49.010  -4.464  1.00  0.00     0.203 HD
HETATM   29  N6  UNL     1      15.324  46.316  -4.049  1.00  0.00    -0.170 N 
ATOM     30  H6  UNL     1      15.606  45.478  -4.559  1.00  0.00     0.186 HD
BRANCH  24  31
HETATM   31  N3  UNL     1      14.210  49.570  -2.136  1.00  0.00    -0.234 N 
ATOM     32  H32 UNL     1      14.800  49.923  -1.383  1.00  0.00     0.174 HD
ATOM     33  H31 UNL     1      13.355  50.061  -2.401  1.00  0.00     0.174 HD
ENDBRANCH  24  31
BRANCH  27  34
HETATM   34  N5  UNL     1      14.214  46.995  -5.894  1.00  0.00    -0.234 N 
ATOM     35  H52 UNL     1      13.291  47.292  -6.212  1.00  0.00     0.174 HD
ATOM     36  H51 UNL     1      14.833  46.538  -6.564  1.00  0.00     0.174 HD
ENDBRANCH  27  34
ENDBRANCH   3  22
TORSDOF 11
ENDMDL
MODEL 5
REMARK VINA RESULT: -6.692354625      1.222      4.111
REMARK  11 active torsions:
REMARK  status: ('A' for Active; 'I' for Inactive)
REMARK    1  A    between atoms: O1_2  and  C2_3 
REMARK    2  A    between atoms: C2_3  and  C3_5 
REMARK    3  A    between atoms: C4_7  and  N1_8 
REMARK       I    between atoms: N1_8  and  C5_10 
REMARK    4  A    between atoms: C5_10  and  C6_12 
REMARK    5  A    between atoms: C7_15  and  N3_16 
REMARK    6  A    between atoms: C8_21  and  N5_22 
REMARK    7  A    between atoms: C9_28  and  C10_29 
REMARK    8  A    between atoms: C10_29  and  O5_31 
REMARK    9  A    between atoms: O5_31  and  C11_32 
REMARK   10  A    between atoms: C11_32  and  C12_33 
REMARK   11  A    between atoms: C12_33  and  C13_34 
ROOT
HETATM    1  N1  UNL     1      16.554  45.415  -2.954  1.00  0.00    -0.309 N 
ATOM      2  H1  UNL     1      16.980  46.320  -3.152  1.00  0.00     0.170 HD
HETATM    3  C5  UNL     1      15.180  45.297  -3.145  1.00  0.00     0.292 C 
HETATM    4  O3  UNL     1      14.646  44.177  -3.297  1.00  0.00    -0.264 OA
ENDROOT
BRANCH   1   5
HETATM    5  C4  UNL     1      17.323  44.474  -2.547  1.00  0.00     0.120 A 
HETATM    6  S1  UNL     1      16.895  42.901  -2.112  1.00  0.00    -0.057 SA
HETATM    7  C3  UNL     1      18.296  42.004  -1.632  1.00  0.00     0.105 A 
HETATM    8  C9  UNL     1      19.421  42.784  -1.717  1.00  0.00     0.105 A 
HETATM    9  S2  UNL     1      18.989  44.370  -2.278  1.00  0.00    -0.057 SA
BRANCH   7  10
HETATM   10  C2  UNL     1      18.185  40.614  -1.212  1.00  0.00     0.301 C 
HETATM   11  O2  UNL     1      17.357  40.331  -0.264  1.00  0.00    -0.259 OA
BRANCH  10  12
HETATM   12  O1  UNL     1      18.849  39.535  -1.687  1.00  0.00    -0.322 OA
HETATM   13  C1  UNL     1      19.541  38.606  -0.876  1.00  0.00     0.213 C 
ENDBRANCH  10  12
ENDBRANCH   7  10
BRANCH   8  14
HETATM   14  C10 UNL     1      20.806  42.480  -1.421  1.00  0.00     0.301 C 
HETATM   15  O4  UNL     1      21.564  41.948  -2.234  1.00  0.00    -0.259 OA
BRANCH  14  16
HETATM   16  O5  UNL     1      21.375  42.778  -0.175  1.00  0.00    -0.317 OA
BRANCH  16  17
HETATM   17  C11 UNL     1      22.089  44.018  -0.008  1.00  0.00     0.189 C 
BRANCH  17  18
HETATM   18  C12 UNL     1      21.272  45.013   0.727  1.00  0.00     0.140 C 
BRANCH  18  19
HETATM   19  C13 UNL     1      22.035  45.653   1.847  1.00  0.00     0.174 C 
HETATM   20  O6  UNL     1      23.275  45.903   1.659  1.00  0.00    -0.648 OA
HETATM   21  O7  UNL     1      21.447  45.975   3.062  1.00  0.00    -0.648 OA
ENDBRANCH  18  19
ENDBRANCH  17  18
ENDBRANCH  16  17
ENDBRANCH  14  16
ENDBRANCH   8  14
ENDBRANCH   1   5
BRANCH   3  22
HETATM   22  C6  UNL     1      14.337  46.480  -3.174  1.00  0.00     0.204 A 
HETATM   23  N2  UNL     1      14.546  47.556  -2.408  1.00  0.00    -0.170 N 
HETATM   24  C7  UNL     1      13.739  48.614  -2.470  1.00  0.00     0.692 A 
ATOM     25  H2  UNL     1      15.337  47.566  -1.765  1.00  0.00     0.186 HD
HETATM   26  N4  UNL     1      12.681  48.628  -3.316  1.00  0.00    -0.023 N 
HETATM   27  C8  UNL     1      12.442  47.563  -4.101  1.00  0.00     0.692 A 
ATOM     28  H4  UNL     1      12.069  49.443  -3.358  1.00  0.00     0.203 HD
HETATM   29  N6  UNL     1      13.255  46.531  -4.020  1.00  0.00    -0.170 N 
ATOM     30  H6  UNL     1      13.071  45.725  -4.618  1.00  0.00     0.186 HD
BRANCH  24  31
HETATM   31  N3  UNL     1      13.915  49.671  -1.741  1.00  0.00    -0.234 N 
ATOM     32  H32 UNL     1      14.559  50.374  -2.101  1.00  0.00     0.174 HD
ATOM     33  H31 UNL     1      13.441  49.808  -0.848  1.00  0.00     0.174 HD
ENDBRANCH  24  31
BRANCH  27  34
HETATM   34  N5  UNL     1      11.445  47.537  -4.919  1.00  0.00    -0.234 N 
ATOM     35  H52 UNL     1      11.126  48.398  -5.364  1.00  0.00     0.174 HD
ATOM     36  H51 UNL     1      10.957  46.668  -5.139  1.00  0.00     0.174 HD
ENDBRANCH  27  34
ENDBRANCH   3  22
TORSDOF 11
ENDMDL
