MODEL 1
REMARK VINA RESULT: -6.902488892      0.000      0.000
REMARK  3 active torsions:
REMARK  status: ('A' for Active; 'I' for Inactive)
REMARK       I    between atoms: N1_2  and  C2_4 
REMARK       I    between atoms: C2_4  and  N2_6 
REMARK    1  A    between atoms: N2_6  and  C3_8 
REMARK    2  A    between atoms: C6_11  and  N3_12 
REMARK    3  A    between atoms: C8_16  and  N4_17 
ROOT
HETATM    1  C3  UNL     1      33.385  47.280  18.023  1.00  0.00     0.069 A 
HETATM    2  C4  UNL     1      33.555  46.411  16.976  1.00  0.00     0.034 A 
HETATM    3  C5  UNL     1      33.316  45.046  17.097  1.00  0.00     0.038 A 
HETATM    4  C6  UNL     1      32.895  44.540  18.305  1.00  0.00     0.105 A 
HETATM    5  C7  UNL     1      32.723  45.408  19.354  1.00  0.00     0.074 A 
HETATM    6  C8  UNL     1      32.955  46.764  19.247  1.00  0.00     0.132 A 
ENDROOT
BRANCH   1   7
HETATM    7  N2  UNL     1      33.689  48.644  17.885  1.00  0.00    -0.307 N 
HETATM    8  C2  UNL     1      34.878  49.328  18.175  1.00  0.00     0.320 C 
HETATM    9  N1  UNL     1      34.937  50.760  17.951  1.00  0.00    -0.347 N 
HETATM   10  O1  UNL     1      35.888  48.755  18.617  1.00  0.00    -0.247 OA
HETATM   11  C1  UNL     1      36.172  51.451  18.253  1.00  0.00     0.151 C 
ATOM     12  H1  UNL     1      34.129  51.266  17.590  1.00  0.00     0.163 HD
ATOM     13  H2  UNL     1      32.933  49.224  17.519  1.00  0.00     0.170 HD
ENDBRANCH   1   7
BRANCH   6  14
HETATM   14  N4  UNL     1      32.731  47.527  20.402  1.00  0.00    -0.113 N 
HETATM   15  O4  UNL     1      32.118  48.598  20.473  1.00  0.00    -0.532 OA
HETATM   16  O5  UNL     1      33.193  47.059  21.646  1.00  0.00    -0.532 OA
ENDBRANCH   6  14
BRANCH   4  17
HETATM   17  N3  UNL     1      32.650  43.144  18.434  1.00  0.00    -0.116 N 
HETATM   18  O2  UNL     1      32.641  42.445  17.410  1.00  0.00    -0.532 OA
HETATM   19  O3  UNL     1      32.427  42.568  19.662  1.00  0.00    -0.532 OA
ENDBRANCH   4  17
TORSDOF 3
ENDMDL
MODEL 2
REMARK VINA RESULT: -6.876688740      2.384      6.037
REMARK  3 active torsions:
REMARK  status: ('A' for Active; 'I' for Inactive)
REMARK       I    between atoms: N1_2  and  C2_4 
REMARK       I    between atoms: C2_4  and  N2_6 
REMARK    1  A    between atoms: N2_6  and  C3_8 
REMARK    2  A    between atoms: C6_11  and  N3_12 
REMARK    3  A    between atoms: C8_16  and  N4_17 
ROOT
HETATM    1  C3  UNL     1      33.977  47.789  20.327  1.00  0.00     0.069 A 
HETATM    2  C4  UNL     1      35.204  47.955  19.738  1.00  0.00     0.034 A 
HETATM    3  C5  UNL     1      35.707  49.210  19.410  1.00  0.00     0.038 A 
HETATM    4  C6  UNL     1      34.954  50.330  19.683  1.00  0.00     0.105 A 
HETATM    5  C7  UNL     1      33.726  50.164  20.273  1.00  0.00     0.074 A 
HETATM    6  C8  UNL     1      33.217  48.926  20.604  1.00  0.00     0.132 A 
ENDROOT
BRANCH   1   7
HETATM    7  N2  UNL     1      33.473  46.504  20.593  1.00  0.00    -0.307 N 
HETATM    8  C2  UNL     1      32.926  45.560  19.714  1.00  0.00     0.320 C 
HETATM    9  N1  UNL     1      32.461  44.293  20.245  1.00  0.00    -0.347 N 
HETATM   10  O1  UNL     1      32.823  45.764  18.493  1.00  0.00    -0.247 OA
HETATM   11  C1  UNL     1      31.900  43.327  19.324  1.00  0.00     0.151 C 
ATOM     12  H1  UNL     1      32.527  44.088  21.242  1.00  0.00     0.163 HD
ATOM     13  H2  UNL     1      33.511  46.216  21.571  1.00  0.00     0.170 HD
ENDBRANCH   1   7
BRANCH   6  14
HETATM   14  N4  UNL     1      31.951  48.915  21.208  1.00  0.00    -0.113 N 
HETATM   15  O4  UNL     1      30.992  48.197  20.902  1.00  0.00    -0.532 OA
HETATM   16  O5  UNL     1      31.696  49.757  22.305  1.00  0.00    -0.532 OA
ENDBRANCH   6  14
BRANCH   4  17
HETATM   17  N3  UNL     1      35.463  51.615  19.349  1.00  0.00    -0.116 N 
HETATM   18  O2  UNL     1      34.901  52.618  19.816  1.00  0.00    -0.532 OA
HETATM   19  O3  UNL     1      36.555  51.761  18.526  1.00  0.00    -0.532 OA
ENDBRANCH   4  17
TORSDOF 3
ENDMDL
MODEL 3
REMARK VINA RESULT: -6.873578465      3.015      6.558
REMARK  3 active torsions:
REMARK  status: ('A' for Active; 'I' for Inactive)
REMARK       I    between atoms: N1_2  and  C2_4 
REMARK       I    between atoms: C2_4  and  N2_6 
REMARK    1  A    between atoms: N2_6  and  C3_8 
REMARK    2  A    between atoms: C6_11  and  N3_12 
REMARK    3  A    between atoms: C8_16  and  N4_17 
ROOT
HETATM    1  C3  UNL     1      33.765  48.600  21.181  1.00  0.00     0.069 A 
HETATM    2  C4  UNL     1      33.834  49.855  21.732  1.00  0.00     0.034 A 
HETATM    3  C5  UNL     1      34.070  50.991  20.965  1.00  0.00     0.038 A 
HETATM    4  C6  UNL     1      34.241  50.862  19.606  1.00  0.00     0.105 A 
HETATM    5  C7  UNL     1      34.171  49.608  19.053  1.00  0.00     0.074 A 
HETATM    6  C8  UNL     1      33.937  48.474  19.802  1.00  0.00     0.132 A 
ENDROOT
BRANCH   1   7
HETATM    7  N2  UNL     1      33.583  47.466  21.991  1.00  0.00    -0.307 N 
HETATM    8  C2  UNL     1      32.422  46.994  22.619  1.00  0.00     0.320 C 
HETATM    9  N1  UNL     1      32.499  45.788  23.421  1.00  0.00    -0.347 N 
HETATM   10  O1  UNL     1      31.326  47.568  22.515  1.00  0.00    -0.247 OA
HETATM   11  C1  UNL     1      31.291  45.313  24.062  1.00  0.00     0.151 C 
ATOM     12  H1  UNL     1      33.381  45.289  23.531  1.00  0.00     0.163 HD
ATOM     13  H2  UNL     1      34.419  46.903  22.145  1.00  0.00     0.170 HD
ENDBRANCH   1   7
BRANCH   6  14
HETATM   14  N4  UNL     1      33.887  47.262  19.098  1.00  0.00    -0.113 N 
HETATM   15  O4  UNL     1      33.306  46.228  19.446  1.00  0.00    -0.532 OA
HETATM   16  O5  UNL     1      34.510  47.161  17.840  1.00  0.00    -0.532 OA
ENDBRANCH   6  14
BRANCH   4  17
HETATM   17  N3  UNL     1      34.483  52.021  18.817  1.00  0.00    -0.116 N 
HETATM   18  O2  UNL     1      33.730  52.258  17.860  1.00  0.00    -0.532 OA
HETATM   19  O3  UNL     1      35.526  52.871  19.096  1.00  0.00    -0.532 OA
ENDBRANCH   4  17
TORSDOF 3
ENDMDL
MODEL 4
REMARK VINA RESULT: -6.872415980      2.212      6.091
REMARK  3 active torsions:
REMARK  status: ('A' for Active; 'I' for Inactive)
REMARK       I    between atoms: N1_2  and  C2_4 
REMARK       I    between atoms: C2_4  and  N2_6 
REMARK    1  A    between atoms: N2_6  and  C3_8 
REMARK    2  A    between atoms: C6_11  and  N3_12 
REMARK    3  A    between atoms: C8_16  and  N4_17 
ROOT
HETATM    1  C3  UNL     1      33.065  46.408  18.261  1.00  0.00     0.069 A 
HETATM    2  C4  UNL     1      32.834  47.371  19.211  1.00  0.00     0.034 A 
HETATM    3  C5  UNL     1      33.628  48.506  19.327  1.00  0.00     0.038 A 
HETATM    4  C6  UNL     1      34.686  48.680  18.463  1.00  0.00     0.105 A 
HETATM    5  C7  UNL     1      34.918  47.718  17.512  1.00  0.00     0.074 A 
HETATM    6  C8  UNL     1      34.138  46.588  17.386  1.00  0.00     0.132 A 
ENDROOT
BRANCH   1   7
HETATM    7  N2  UNL     1      32.279  45.245  18.207  1.00  0.00    -0.307 N 
HETATM    8  C2  UNL     1      32.427  44.035  18.898  1.00  0.00     0.320 C 
HETATM    9  N1  UNL     1      31.476  42.967  18.655  1.00  0.00    -0.347 N 
HETATM   10  O1  UNL     1      33.342  43.838  19.714  1.00  0.00    -0.247 OA
HETATM   11  C1  UNL     1      31.641  41.724  19.378  1.00  0.00     0.151 C 
ATOM     12  H1  UNL     1      30.711  43.089  17.992  1.00  0.00     0.163 HD
ATOM     13  H2  UNL     1      31.483  45.286  17.570  1.00  0.00     0.170 HD
ENDBRANCH   1   7
BRANCH   6  14
HETATM   14  N4  UNL     1      34.492  45.697  16.362  1.00  0.00    -0.113 N 
HETATM   15  O4  UNL     1      34.487  45.926  15.148  1.00  0.00    -0.532 OA
HETATM   16  O5  UNL     1      34.946  44.406  16.689  1.00  0.00    -0.532 OA
ENDBRANCH   6  14
BRANCH   4  17
HETATM   17  N3  UNL     1      35.503  49.839  18.578  1.00  0.00    -0.116 N 
HETATM   18  O2  UNL     1      35.746  50.499  17.556  1.00  0.00    -0.532 OA
HETATM   19  O3  UNL     1      36.019  50.233  19.789  1.00  0.00    -0.532 OA
ENDBRANCH   4  17
TORSDOF 3
ENDMDL
MODEL 5
REMARK VINA RESULT: -6.844736230      2.583      6.075
REMARK  3 active torsions:
REMARK  status: ('A' for Active; 'I' for Inactive)
REMARK       I    between atoms: N1_2  and  C2_4 
REMARK       I    between atoms: C2_4  and  N2_6 
REMARK    1  A    between atoms: N2_6  and  C3_8 
REMARK    2  A    between atoms: C6_11  and  N3_12 
REMARK    3  A    between atoms: C8_16  and  N4_17 
ROOT
HETATM    1  C3  UNL     1      34.379  47.656  20.631  1.00  0.00     0.069 A 
HETATM    2  C4  UNL     1      35.170  48.631  21.184  1.00  0.00     0.034 A 
HETATM    3  C5  UNL     1      35.829  49.580  20.410  1.00  0.00     0.038 A 
HETATM    4  C6  UNL     1      35.690  49.548  19.041  1.00  0.00     0.105 A 
HETATM    5  C7  UNL     1      34.899  48.573  18.487  1.00  0.00     0.074 A 
HETATM    6  C8  UNL     1      34.239  47.627  19.243  1.00  0.00     0.132 A 
ENDROOT
BRANCH   1   7
HETATM    7  N2  UNL     1      33.773  46.677  21.437  1.00  0.00    -0.307 N 
HETATM    8  C2  UNL     1      32.596  46.748  22.195  1.00  0.00     0.320 C 
HETATM    9  N1  UNL     1      32.184  45.586  22.960  1.00  0.00    -0.347 N 
HETATM   10  O1  UNL     1      31.890  47.768  22.239  1.00  0.00    -0.247 OA
HETATM   11  C1  UNL     1      30.966  45.675  23.737  1.00  0.00     0.151 C 
ATOM     12  H1  UNL     1      32.738  44.730  22.952  1.00  0.00     0.163 HD
ATOM     13  H2  UNL     1      34.262  45.782  21.476  1.00  0.00     0.170 HD
ENDBRANCH   1   7
BRANCH   6  14
HETATM   14  N4  UNL     1      33.461  46.698  18.538  1.00  0.00    -0.113 N 
HETATM   15  O4  UNL     1      32.266  46.441  18.723  1.00  0.00    -0.532 OA
HETATM   16  O5  UNL     1      34.032  45.977  17.472  1.00  0.00    -0.532 OA
ENDBRANCH   6  14
BRANCH   4  17
HETATM   17  N3  UNL     1      36.363  50.515  18.244  1.00  0.00    -0.116 N 
HETATM   18  O2  UNL     1      36.939  50.139  17.212  1.00  0.00    -0.532 OA
HETATM   19  O3  UNL     1      36.384  51.843  18.597  1.00  0.00    -0.532 OA
ENDBRANCH   4  17
TORSDOF 3
ENDMDL
