MODEL 1
REMARK VINA RESULT: -7.467143086      0.000      0.000
REMARK  5 active torsions:
REMARK  status: ('A' for Active; 'I' for Inactive)
REMARK    1  A    between atoms: C2_2  and  C3_3 
REMARK    2  A    between atoms: C3_3  and  O1_5 
REMARK    3  A    between atoms: C3_3  and  C11_14 
REMARK    4  A    between atoms: O1_5  and  C4_6 
REMARK    5  A    between atoms: C4_6  and  C5_8 
ROOT
HETATM    1  O1  UNL     1      35.000  48.998  18.950  1.00  0.00    -0.279 OA
ENDROOT
BRANCH   1   2
HETATM    2  C3  UNL     1      35.089  50.274  18.355  1.00  0.00     0.234 C 
HETATM    3  S1  UNL     1      34.798  51.485  19.701  1.00  0.00    -0.039 SA
BRANCH   2   4
HETATM    4  C2  UNL     1      34.032  50.504  17.347  1.00  0.00     0.025 C 
HETATM    5  C1  UNL     1      33.371  51.645  17.310  1.00  0.00     0.011 C 
ENDBRANCH   2   4
BRANCH   2   6
HETATM    6  C11 UNL     1      36.438  50.555  17.822  1.00  0.00     0.226 C 
HETATM    7  O3  UNL     1      36.933  49.793  16.977  1.00  0.00    -0.645 OA
HETATM    8  O4  UNL     1      37.124  51.651  18.268  1.00  0.00    -0.645 OA
ENDBRANCH   2   6
ENDBRANCH   1   2
BRANCH   1   9
HETATM    9  C4  UNL     1      33.867  48.203  18.916  1.00  0.00     0.295 C 
HETATM   10  O2  UNL     1      32.894  48.550  19.628  1.00  0.00    -0.259 OA
BRANCH   9  11
HETATM   11  C5  UNL     1      33.871  47.023  18.068  1.00  0.00     0.039 A 
HETATM   12  C6  UNL     1      33.135  45.911  18.387  1.00  0.00     0.017 A 
HETATM   13  C7  UNL     1      33.125  44.766  17.584  1.00  0.00     0.001 A 
HETATM   14  C8  UNL     1      33.871  44.748  16.446  1.00  0.00     0.000 A 
HETATM   15  C9  UNL     1      34.628  45.850  16.088  1.00  0.00     0.001 A 
HETATM   16  C10 UNL     1      34.616  46.960  16.899  1.00  0.00     0.017 A 
ENDBRANCH   9  11
ENDBRANCH   1   9
TORSDOF 5
ENDMDL
MODEL 2
REMARK VINA RESULT: -7.450231830      0.036      1.183
REMARK  5 active torsions:
REMARK  status: ('A' for Active; 'I' for Inactive)
REMARK    1  A    between atoms: C2_2  and  C3_3 
REMARK    2  A    between atoms: C3_3  and  O1_5 
REMARK    3  A    between atoms: C3_3  and  C11_14 
REMARK    4  A    between atoms: O1_5  and  C4_6 
REMARK    5  A    between atoms: C4_6  and  C5_8 
ROOT
HETATM    1  O1  UNL     1      34.999  49.007  18.955  1.00  0.00    -0.279 OA
ENDROOT
BRANCH   1   2
HETATM    2  C3  UNL     1      35.084  50.291  18.379  1.00  0.00     0.234 C 
HETATM    3  S1  UNL     1      34.783  51.482  19.741  1.00  0.00    -0.039 SA
BRANCH   2   4
HETATM    4  C2  UNL     1      34.030  50.531  17.370  1.00  0.00     0.025 C 
HETATM    5  C1  UNL     1      33.361  51.668  17.350  1.00  0.00     0.011 C 
ENDBRANCH   2   4
BRANCH   2   6
HETATM    6  C11 UNL     1      36.434  50.587  17.855  1.00  0.00     0.226 C 
HETATM    7  O3  UNL     1      36.944  49.827  17.017  1.00  0.00    -0.645 OA
HETATM    8  O4  UNL     1      37.103  51.693  18.302  1.00  0.00    -0.645 OA
ENDBRANCH   2   6
ENDBRANCH   1   2
BRANCH   1   9
HETATM    9  C4  UNL     1      33.867  48.210  18.914  1.00  0.00     0.295 C 
HETATM   10  O2  UNL     1      32.890  48.554  19.622  1.00  0.00    -0.259 OA
BRANCH   9  11
HETATM   11  C5  UNL     1      33.875  47.033  18.060  1.00  0.00     0.039 A 
HETATM   12  C6  UNL     1      34.623  46.990  16.912  1.00  0.00     0.017 A 
HETATM   13  C7  UNL     1      34.645  45.867  16.078  1.00  0.00     0.001 A 
HETATM   14  C8  UNL     1      33.900  44.778  16.412  1.00  0.00     0.000 A 
HETATM   15  C9  UNL     1      33.132  44.783  17.563  1.00  0.00     0.001 A 
HETATM   16  C10 UNL     1      33.132  45.901  18.362  1.00  0.00     0.017 A 
ENDBRANCH   9  11
ENDBRANCH   1   9
TORSDOF 5
ENDMDL
MODEL 3
REMARK VINA RESULT: -7.220265845      1.723      2.325
REMARK  5 active torsions:
REMARK  status: ('A' for Active; 'I' for Inactive)
REMARK    1  A    between atoms: C2_2  and  C3_3 
REMARK    2  A    between atoms: C3_3  and  O1_5 
REMARK    3  A    between atoms: C3_3  and  C11_14 
REMARK    4  A    between atoms: O1_5  and  C4_6 
REMARK    5  A    between atoms: C4_6  and  C5_8 
ROOT
HETATM    1  O1  UNL     1      34.152  49.704  19.626  1.00  0.00    -0.279 OA
ENDROOT
BRANCH   1   2
HETATM    2  C3  UNL     1      34.823  50.675  18.855  1.00  0.00     0.234 C 
HETATM    3  S1  UNL     1      33.892  50.806  17.280  1.00  0.00    -0.039 SA
BRANCH   2   4
HETATM    4  C2  UNL     1      36.198  50.264  18.497  1.00  0.00     0.025 C 
HETATM    5  C1  UNL     1      36.531  50.046  17.240  1.00  0.00     0.011 C 
ENDBRANCH   2   4
BRANCH   2   6
HETATM    6  C11 UNL     1      34.786  52.015  19.476  1.00  0.00     0.226 C 
HETATM    7  O3  UNL     1      35.504  52.920  19.022  1.00  0.00    -0.645 OA
HETATM    8  O4  UNL     1      33.961  52.241  20.544  1.00  0.00    -0.645 OA
ENDBRANCH   2   6
ENDBRANCH   1   2
BRANCH   1   9
HETATM    9  C4  UNL     1      34.610  48.411  19.817  1.00  0.00     0.295 C 
HETATM   10  O2  UNL     1      35.520  48.237  20.664  1.00  0.00    -0.259 OA
BRANCH   9  11
HETATM   11  C5  UNL     1      34.017  47.341  19.033  1.00  0.00     0.039 A 
HETATM   12  C6  UNL     1      33.107  46.474  19.582  1.00  0.00     0.017 A 
HETATM   13  C7  UNL     1      32.525  45.438  18.844  1.00  0.00     0.001 A 
HETATM   14  C8  UNL     1      32.869  45.279  17.537  1.00  0.00     0.000 A 
HETATM   15  C9  UNL     1      33.784  46.134  16.946  1.00  0.00     0.001 A 
HETATM   16  C10 UNL     1      34.338  47.142  17.698  1.00  0.00     0.017 A 
ENDBRANCH   9  11
ENDBRANCH   1   9
TORSDOF 5
ENDMDL
MODEL 4
REMARK VINA RESULT: -7.207634629      1.725      2.602
REMARK  5 active torsions:
REMARK  status: ('A' for Active; 'I' for Inactive)
REMARK    1  A    between atoms: C2_2  and  C3_3 
REMARK    2  A    between atoms: C3_3  and  O1_5 
REMARK    3  A    between atoms: C3_3  and  C11_14 
REMARK    4  A    between atoms: O1_5  and  C4_6 
REMARK    5  A    between atoms: C4_6  and  C5_8 
ROOT
HETATM    1  O1  UNL     1      34.147  49.702  19.630  1.00  0.00    -0.279 OA
ENDROOT
BRANCH   1   2
HETATM    2  C3  UNL     1      34.821  50.672  18.860  1.00  0.00     0.234 C 
HETATM    3  S1  UNL     1      33.890  50.810  17.286  1.00  0.00    -0.039 SA
BRANCH   2   4
HETATM    4  C2  UNL     1      36.194  50.257  18.500  1.00  0.00     0.025 C 
HETATM    5  C1  UNL     1      36.527  50.043  17.242  1.00  0.00     0.011 C 
ENDBRANCH   2   4
BRANCH   2   6
HETATM    6  C11 UNL     1      34.789  52.011  19.484  1.00  0.00     0.226 C 
HETATM    7  O3  UNL     1      35.513  52.913  19.033  1.00  0.00    -0.645 OA
HETATM    8  O4  UNL     1      33.964  52.238  20.551  1.00  0.00    -0.645 OA
ENDBRANCH   2   6
ENDBRANCH   1   2
BRANCH   1   9
HETATM    9  C4  UNL     1      34.605  48.410  19.825  1.00  0.00     0.295 C 
HETATM   10  O2  UNL     1      35.517  48.239  20.670  1.00  0.00    -0.259 OA
BRANCH   9  11
HETATM   11  C5  UNL     1      34.008  47.336  19.048  1.00  0.00     0.039 A 
HETATM   12  C6  UNL     1      34.335  47.141  17.731  1.00  0.00     0.017 A 
HETATM   13  C7  UNL     1      33.772  46.114  16.966  1.00  0.00     0.001 A 
HETATM   14  C8  UNL     1      32.868  45.277  17.544  1.00  0.00     0.000 A 
HETATM   15  C9  UNL     1      32.512  45.440  18.870  1.00  0.00     0.001 A 
HETATM   16  C10 UNL     1      33.083  46.459  19.595  1.00  0.00     0.017 A 
ENDBRANCH   9  11
ENDBRANCH   1   9
TORSDOF 5
ENDMDL
MODEL 5
REMARK VINA RESULT: -7.207042460      1.422      2.095
REMARK  5 active torsions:
REMARK  status: ('A' for Active; 'I' for Inactive)
REMARK    1  A    between atoms: C2_2  and  C3_3 
REMARK    2  A    between atoms: C3_3  and  O1_5 
REMARK    3  A    between atoms: C3_3  and  C11_14 
REMARK    4  A    between atoms: O1_5  and  C4_6 
REMARK    5  A    between atoms: C4_6  and  C5_8 
ROOT
HETATM    1  O1  UNL     1      35.025  49.056  19.021  1.00  0.00    -0.279 OA
ENDROOT
BRANCH   1   2
HETATM    2  C3  UNL     1      35.114  50.413  18.651  1.00  0.00     0.234 C 
HETATM    3  S1  UNL     1      33.789  50.693  17.414  1.00  0.00    -0.039 SA
BRANCH   2   4
HETATM    4  C2  UNL     1      36.391  50.735  17.979  1.00  0.00     0.025 C 
HETATM    5  C1  UNL     1      36.980  49.856  17.192  1.00  0.00     0.011 C 
ENDBRANCH   2   4
BRANCH   2   6
HETATM    6  C11 UNL     1      34.833  51.325  19.780  1.00  0.00     0.226 C 
HETATM    7  O3  UNL     1      34.919  52.552  19.610  1.00  0.00    -0.645 OA
HETATM    8  O4  UNL     1      34.483  50.806  20.996  1.00  0.00    -0.645 OA
ENDBRANCH   2   6
ENDBRANCH   1   2
BRANCH   1   9
HETATM    9  C4  UNL     1      33.879  48.289  18.892  1.00  0.00     0.295 C 
HETATM   10  O2  UNL     1      32.872  48.636  19.556  1.00  0.00    -0.259 OA
BRANCH   9  11
HETATM   11  C5  UNL     1      33.908  47.138  18.004  1.00  0.00     0.039 A 
HETATM   12  C6  UNL     1      33.159  46.019  18.262  1.00  0.00     0.017 A 
HETATM   13  C7  UNL     1      33.174  44.902  17.420  1.00  0.00     0.001 A 
HETATM   14  C8  UNL     1      33.956  44.921  16.307  1.00  0.00     0.000 A 
HETATM   15  C9  UNL     1      34.726  46.032  16.012  1.00  0.00     0.001 A 
HETATM   16  C10 UNL     1      34.690  47.113  16.858  1.00  0.00     0.017 A 
ENDBRANCH   9  11
ENDBRANCH   1   9
TORSDOF 5
ENDMDL
