MODEL 1
REMARK VINA RESULT: -8.203243621      0.000      0.000
REMARK  5 active torsions:
REMARK  status: ('A' for Active; 'I' for Inactive)
REMARK    1  A    between atoms: N1_1  and  C1_4 
REMARK    2  A    between atoms: N2_7  and  C4_8 
REMARK    3  A    between atoms: C5_9  and  C6_10 
REMARK    4  A    between atoms: C6_10  and  C7_12 
REMARK    5  A    between atoms: C11_16  and  O2_17 
ROOT
HETATM    1  C4  UNL     1      34.311  46.229  16.867  1.00  0.00     0.108 C 
HETATM    2  C5  UNL     1      34.520  47.338  17.552  1.00  0.00     0.073 C 
ENDROOT
BRANCH   2   3
HETATM    3  C6  UNL     1      35.178  48.455  16.922  1.00  0.00     0.183 C 
HETATM    4  O1  UNL     1      35.704  48.311  15.764  1.00  0.00    -0.288 OA
BRANCH   3   5
HETATM    5  C7  UNL     1      35.286  49.775  17.533  1.00  0.00     0.017 A 
HETATM    6  C8  UNL     1      34.193  50.454  18.026  1.00  0.00     0.015 A 
HETATM    7  C9  UNL     1      34.340  51.721  18.605  1.00  0.00     0.004 A 
HETATM    8  C10 UNL     1      35.570  52.335  18.706  1.00  0.00     0.036 A 
HETATM    9  C11 UNL     1      36.662  51.663  18.218  1.00  0.00     0.066 A 
HETATM   10  C12 UNL     1      36.504  50.417  17.650  1.00  0.00     0.052 A 
BRANCH   9  11
HETATM   11  O2  UNL     1      37.920  52.265  18.310  1.00  0.00    -0.361 OA
ATOM     12  H2  UNL     1      38.683  51.780  18.016  1.00  0.00     0.217 HD
ENDBRANCH   9  11
ENDBRANCH   3   5
ENDBRANCH   2   3
BRANCH   1  13
HETATM   13  N2  UNL     1      33.650  45.109  17.504  1.00  0.00    -0.302 N 
HETATM   14  C3  UNL     1      33.500  43.879  17.026  1.00  0.00     0.107 A 
HETATM   15  C2  UNL     1      32.850  42.989  17.786  1.00  0.00     0.056 A 
HETATM   16  C1  UNL     1      32.390  43.425  19.001  1.00  0.00     0.086 A 
HETATM   17  S1  UNL     1      32.891  45.051  19.014  1.00  0.00     0.009 SA
BRANCH  16  18
HETATM   18  N1  UNL     1      31.733  42.728  19.900  1.00  0.00    -0.392 N 
ATOM     19  H12 UNL     1      32.075  42.122  20.645  1.00  0.00     0.156 HD
ATOM     20  H11 UNL     1      30.722  42.667  20.016  1.00  0.00     0.156 HD
ENDBRANCH  16  18
ENDBRANCH   1  13
TORSDOF 5
ENDMDL
MODEL 2
REMARK VINA RESULT: -8.014721409      1.956      2.313
REMARK  5 active torsions:
REMARK  status: ('A' for Active; 'I' for Inactive)
REMARK    1  A    between atoms: N1_1  and  C1_4 
REMARK    2  A    between atoms: N2_7  and  C4_8 
REMARK    3  A    between atoms: C5_9  and  C6_10 
REMARK    4  A    between atoms: C6_10  and  C7_12 
REMARK    5  A    between atoms: C11_16  and  O2_17 
ROOT
HETATM    1  C4  UNL     1      33.280  46.260  19.365  1.00  0.00     0.108 C 
HETATM    2  C5  UNL     1      33.258  47.345  18.612  1.00  0.00     0.073 C 
ENDROOT
BRANCH   2   3
HETATM    3  C6  UNL     1      33.538  48.630  19.201  1.00  0.00     0.183 C 
HETATM    4  O1  UNL     1      32.823  49.051  20.176  1.00  0.00    -0.288 OA
BRANCH   3   5
HETATM    5  C7  UNL     1      34.613  49.506  18.748  1.00  0.00     0.017 A 
HETATM    6  C8  UNL     1      35.606  49.078  17.893  1.00  0.00     0.015 A 
HETATM    7  C9  UNL     1      36.621  49.953  17.483  1.00  0.00     0.004 A 
HETATM    8  C10 UNL     1      36.668  51.262  17.912  1.00  0.00     0.036 A 
HETATM    9  C11 UNL     1      35.682  51.693  18.762  1.00  0.00     0.066 A 
HETATM   10  C12 UNL     1      34.689  50.823  19.159  1.00  0.00     0.052 A 
BRANCH   9  11
HETATM   11  O2  UNL     1      35.709  53.017  19.210  1.00  0.00    -0.361 OA
ATOM     12  H2  UNL     1      34.891  53.496  19.273  1.00  0.00     0.217 HD
ENDBRANCH   9  11
ENDBRANCH   3   5
ENDBRANCH   2   3
BRANCH   1  13
HETATM   13  N2  UNL     1      32.997  44.971  18.769  1.00  0.00    -0.302 N 
HETATM   14  C3  UNL     1      33.512  44.464  17.654  1.00  0.00     0.107 A 
HETATM   15  C2  UNL     1      33.108  43.243  17.280  1.00  0.00     0.056 A 
HETATM   16  C1  UNL     1      32.192  42.616  18.083  1.00  0.00     0.086 A 
HETATM   17  S1  UNL     1      31.945  43.764  19.314  1.00  0.00     0.009 SA
BRANCH  16  18
HETATM   18  N1  UNL     1      31.664  41.426  17.909  1.00  0.00    -0.392 N 
ATOM     19  H12 UNL     1      30.690  41.146  17.794  1.00  0.00     0.156 HD
ATOM     20  H11 UNL     1      32.155  40.534  17.858  1.00  0.00     0.156 HD
ENDBRANCH  16  18
ENDBRANCH   1  13
TORSDOF 5
ENDMDL
MODEL 3
REMARK VINA RESULT: -7.962376794      3.470      7.221
REMARK  5 active torsions:
REMARK  status: ('A' for Active; 'I' for Inactive)
REMARK    1  A    between atoms: N1_1  and  C1_4 
REMARK    2  A    between atoms: N2_7  and  C4_8 
REMARK    3  A    between atoms: C5_9  and  C6_10 
REMARK    4  A    between atoms: C6_10  and  C7_12 
REMARK    5  A    between atoms: C11_16  and  O2_17 
ROOT
HETATM    1  C4  UNL     1      35.211  48.085  16.686  1.00  0.00     0.108 C 
HETATM    2  C5  UNL     1      34.499  47.240  17.408  1.00  0.00     0.073 C 
ENDROOT
BRANCH   2   3
HETATM    3  C6  UNL     1      34.104  45.974  16.844  1.00  0.00     0.183 C 
HETATM    4  O1  UNL     1      34.355  45.720  15.615  1.00  0.00    -0.288 OA
BRANCH   3   5
HETATM    5  C7  UNL     1      33.419  44.933  17.604  1.00  0.00     0.017 A 
HETATM    6  C8  UNL     1      33.173  43.681  17.086  1.00  0.00     0.015 A 
HETATM    7  C9  UNL     1      32.512  42.709  17.851  1.00  0.00     0.004 A 
HETATM    8  C10 UNL     1      32.086  42.964  19.136  1.00  0.00     0.036 A 
HETATM    9  C11 UNL     1      32.329  44.209  19.657  1.00  0.00     0.066 A 
HETATM   10  C12 UNL     1      32.980  45.156  18.895  1.00  0.00     0.052 A 
BRANCH   9  11
HETATM   11  O2  UNL     1      31.907  44.490  20.959  1.00  0.00    -0.361 OA
ATOM     12  H2  UNL     1      30.983  44.643  21.118  1.00  0.00     0.217 HD
ENDBRANCH   9  11
ENDBRANCH   3   5
ENDBRANCH   2   3
BRANCH   1  13
HETATM   13  N2  UNL     1      35.606  49.357  17.255  1.00  0.00    -0.302 N 
HETATM   14  C3  UNL     1      36.822  49.891  17.279  1.00  0.00     0.107 A 
HETATM   15  C2  UNL     1      36.966  51.087  17.863  1.00  0.00     0.056 A 
HETATM   16  C1  UNL     1      35.841  51.664  18.389  1.00  0.00     0.086 A 
HETATM   17  S1  UNL     1      34.645  50.505  18.041  1.00  0.00     0.009 SA
BRANCH  16  18
HETATM   18  N1  UNL     1      35.752  52.823  19.000  1.00  0.00    -0.392 N 
ATOM     19  H12 UNL     1      34.933  53.341  19.320  1.00  0.00     0.156 HD
ATOM     20  H11 UNL     1      36.519  53.438  19.274  1.00  0.00     0.156 HD
ENDBRANCH  16  18
ENDBRANCH   1  13
TORSDOF 5
ENDMDL
MODEL 4
REMARK VINA RESULT: -7.937468779      4.161      4.604
REMARK  5 active torsions:
REMARK  status: ('A' for Active; 'I' for Inactive)
REMARK    1  A    between atoms: N1_1  and  C1_4 
REMARK    2  A    between atoms: N2_7  and  C4_8 
REMARK    3  A    between atoms: C5_9  and  C6_10 
REMARK    4  A    between atoms: C6_10  and  C7_12 
REMARK    5  A    between atoms: C11_16  and  O2_17 
ROOT
HETATM    1  C4  UNL     1      33.524  47.931  20.956  1.00  0.00     0.108 C 
HETATM    2  C5  UNL     1      32.937  48.478  19.909  1.00  0.00     0.073 C 
ENDROOT
BRANCH   2   3
HETATM    3  C6  UNL     1      33.640  48.557  18.653  1.00  0.00     0.183 C 
HETATM    4  O1  UNL     1      33.310  47.780  17.691  1.00  0.00    -0.288 OA
BRANCH   3   5
HETATM    5  C7  UNL     1      34.733  49.490  18.400  1.00  0.00     0.017 A 
HETATM    6  C8  UNL     1      35.835  49.151  17.647  1.00  0.00     0.015 A 
HETATM    7  C9  UNL     1      36.863  50.079  17.427  1.00  0.00     0.004 A 
HETATM    8  C10 UNL     1      36.814  51.353  17.949  1.00  0.00     0.036 A 
HETATM    9  C11 UNL     1      35.718  51.696  18.699  1.00  0.00     0.066 A 
HETATM   10  C12 UNL     1      34.714  50.775  18.908  1.00  0.00     0.052 A 
BRANCH   9  11
HETATM   11  O2  UNL     1      35.646  52.983  19.238  1.00  0.00    -0.361 OA
ATOM     12  H2  UNL     1      34.977  53.172  19.886  1.00  0.00     0.217 HD
ENDBRANCH   9  11
ENDBRANCH   3   5
ENDBRANCH   2   3
BRANCH   1  13
HETATM   13  N2  UNL     1      32.813  47.855  22.216  1.00  0.00    -0.302 N 
HETATM   14  C3  UNL     1      32.421  46.760  22.860  1.00  0.00     0.107 A 
HETATM   15  C2  UNL     1      31.772  46.918  24.020  1.00  0.00     0.056 A 
HETATM   16  C1  UNL     1      31.566  48.202  24.449  1.00  0.00     0.086 A 
HETATM   17  S1  UNL     1      32.288  49.118  23.210  1.00  0.00     0.009 SA
BRANCH  16  18
HETATM   18  N1  UNL     1      30.958  48.586  25.548  1.00  0.00    -0.392 N 
ATOM     19  H12 UNL     1      30.970  49.485  26.030  1.00  0.00     0.156 HD
ATOM     20  H11 UNL     1      30.342  48.030  26.141  1.00  0.00     0.156 HD
ENDBRANCH  16  18
ENDBRANCH   1  13
TORSDOF 5
ENDMDL
MODEL 5
REMARK VINA RESULT: -7.894173200      3.462      7.429
REMARK  5 active torsions:
REMARK  status: ('A' for Active; 'I' for Inactive)
REMARK    1  A    between atoms: N1_1  and  C1_4 
REMARK    2  A    between atoms: N2_7  and  C4_8 
REMARK    3  A    between atoms: C5_9  and  C6_10 
REMARK    4  A    between atoms: C6_10  and  C7_12 
REMARK    5  A    between atoms: C11_16  and  O2_17 
ROOT
HETATM    1  C4  UNL     1      35.032  47.913  16.746  1.00  0.00     0.108 C 
HETATM    2  C5  UNL     1      34.448  47.047  17.553  1.00  0.00     0.073 C 
ENDROOT
BRANCH   2   3
HETATM    3  C6  UNL     1      34.007  45.775  17.040  1.00  0.00     0.183 C 
HETATM    4  O1  UNL     1      34.287  45.445  15.835  1.00  0.00    -0.288 OA
BRANCH   3   5
HETATM    5  C7  UNL     1      33.243  44.811  17.825  1.00  0.00     0.017 A 
HETATM    6  C8  UNL     1      32.816  45.075  19.108  1.00  0.00     0.015 A 
HETATM    7  C9  UNL     1      32.084  44.121  19.827  1.00  0.00     0.004 A 
HETATM    8  C10 UNL     1      31.765  42.893  19.288  1.00  0.00     0.036 A 
HETATM    9  C11 UNL     1      32.187  42.626  18.010  1.00  0.00     0.066 A 
HETATM   10  C12 UNL     1      32.906  43.573  17.313  1.00  0.00     0.052 A 
BRANCH   9  11
HETATM   11  O2  UNL     1      31.874  41.388  17.442  1.00  0.00    -0.361 OA
ATOM     12  H2  UNL     1      32.424  40.640  17.641  1.00  0.00     0.217 HD
ENDBRANCH   9  11
ENDBRANCH   3   5
ENDBRANCH   2   3
BRANCH   1  13
HETATM   13  N2  UNL     1      35.473  49.191  17.266  1.00  0.00    -0.302 N 
HETATM   14  C3  UNL     1      36.702  49.695  17.240  1.00  0.00     0.107 A 
HETATM   15  C2  UNL     1      36.891  50.904  17.783  1.00  0.00     0.056 A 
HETATM   16  C1  UNL     1      35.796  51.524  18.322  1.00  0.00     0.086 A 
HETATM   17  S1  UNL     1      34.562  50.386  18.043  1.00  0.00     0.009 SA
BRANCH  16  18
HETATM   18  N1  UNL     1      35.752  52.703  18.900  1.00  0.00    -0.392 N 
ATOM     19  H12 UNL     1      35.289  53.565  18.610  1.00  0.00     0.156 HD
ATOM     20  H11 UNL     1      36.192  52.977  19.779  1.00  0.00     0.156 HD
ENDBRANCH  16  18
ENDBRANCH   1  13
TORSDOF 5
ENDMDL
