MODEL 1
REMARK VINA RESULT: -8.578218315      0.000      0.000
REMARK  7 active torsions:
REMARK  status: ('A' for Active; 'I' for Inactive)
REMARK    1  A    between atoms: O1_2  and  C2_3 
REMARK    2  A    between atoms: C7_8  and  O2_9 
REMARK    3  A    between atoms: C8_11  and  C9_12 
REMARK    4  A    between atoms: C10_15  and  C11_16 
REMARK    5  A    between atoms: C16_22  and  O5_23 
REMARK    6  A    between atoms: N2_25  and  C18_26 
REMARK    7  A    between atoms: C18_26  and  C20_28 
ROOT
HETATM    1  C2  UNL     1       4.440  41.488  50.389  1.00  0.00     0.103 A 
HETATM    2  C3  UNL     1       4.146  42.323  51.438  1.00  0.00     0.070 A 
HETATM    3  C4  UNL     1       4.901  43.461  51.665  1.00  0.00     0.050 A 
HETATM    4  C5  UNL     1       5.958  43.763  50.831  1.00  0.00     0.011 A 
HETATM    5  C6  UNL     1       6.281  42.950  49.772  1.00  0.00     0.054 A 
HETATM    6  C7  UNL     1       5.497  41.809  49.573  1.00  0.00     0.100 A 
HETATM    7  C8  UNL     1       6.493  44.935  51.319  1.00  0.00     0.071 A 
HETATM    8  C10 UNL     1       5.749  45.335  52.446  1.00  0.00     0.089 A 
HETATM    9  N2  UNL     1       4.789  44.420  52.635  1.00  0.00    -0.328 N 
ENDROOT
BRANCH   8  10
HETATM   10  C11 UNL     1       5.999  46.563  53.222  1.00  0.00     0.137 A 
HETATM   11  O4  UNL     1       5.155  47.516  53.497  1.00  0.00    -0.310 OA
HETATM   12  C12 UNL     1       5.702  48.462  54.203  1.00  0.00     0.059 A 
HETATM   13  C13 UNL     1       5.039  49.721  54.706  1.00  0.00     0.077 C 
HETATM   14  C14 UNL     1       7.008  48.121  54.418  1.00  0.00     0.004 A 
HETATM   15  C15 UNL     1       8.038  48.905  55.185  1.00  0.00     0.054 C 
HETATM   16  C16 UNL     1       7.208  46.897  53.789  1.00  0.00     0.112 A 
BRANCH  16  17
HETATM   17  O5  UNL     1       8.409  46.227  53.781  1.00  0.00    -0.352 OA
HETATM   18  C17 UNL     1       9.644  46.814  53.579  1.00  0.00     0.210 C 
ENDBRANCH  16  17
ENDBRANCH   8  10
BRANCH   7  19
HETATM   19  C9  UNL     1       7.637  45.688  50.832  1.00  0.00     0.268 C 
HETATM   20  N1  UNL     1       8.877  45.056  50.602  1.00  0.00    -0.057 NA
HETATM   21  O3  UNL     1       7.558  46.919  50.604  1.00  0.00    -0.271 OA
ENDBRANCH   7  19
BRANCH   9  22
HETATM   22  C18 UNL     1       3.796  44.404  53.680  1.00  0.00     0.187 C 
HETATM   23  C19 UNL     1       2.545  45.177  53.378  1.00  0.00     0.044 C 
BRANCH  22  24
HETATM   24  C20 UNL     1       4.379  44.736  55.006  1.00  0.00     0.196 C 
HETATM   25  O6  UNL     1       3.829  45.582  55.747  1.00  0.00    -0.646 OA
HETATM   26  O7  UNL     1       5.535  44.127  55.456  1.00  0.00    -0.646 OA
ENDBRANCH  22  24
ENDBRANCH   9  22
BRANCH   6  27
HETATM   27  O2  UNL     1       5.827  40.994  48.503  1.00  0.00    -0.358 OA
ATOM     28  H2  UNL     1       6.078  41.374  47.669  1.00  0.00     0.217 HD
ENDBRANCH   6  27
BRANCH   1  29
HETATM   29  O1  UNL     1       3.700  40.359  50.155  1.00  0.00    -0.353 OA
HETATM   30  C1  UNL     1       2.530  40.323  49.396  1.00  0.00     0.210 C 
ENDBRANCH   1  29
TORSDOF 7
ENDMDL
MODEL 2
REMARK VINA RESULT: -8.362725353      1.496      4.053
REMARK  7 active torsions:
REMARK  status: ('A' for Active; 'I' for Inactive)
REMARK    1  A    between atoms: O1_2  and  C2_3 
REMARK    2  A    between atoms: C7_8  and  O2_9 
REMARK    3  A    between atoms: C8_11  and  C9_12 
REMARK    4  A    between atoms: C10_15  and  C11_16 
REMARK    5  A    between atoms: C16_22  and  O5_23 
REMARK    6  A    between atoms: N2_25  and  C18_26 
REMARK    7  A    between atoms: C18_26  and  C20_28 
ROOT
HETATM    1  C2  UNL     1       5.065  41.708  49.327  1.00  0.00     0.103 A 
HETATM    2  C3  UNL     1       5.922  42.769  49.491  1.00  0.00     0.070 A 
HETATM    3  C4  UNL     1       5.889  43.527  50.648  1.00  0.00     0.050 A 
HETATM    4  C5  UNL     1       4.991  43.217  51.649  1.00  0.00     0.011 A 
HETATM    5  C6  UNL     1       4.120  42.164  51.519  1.00  0.00     0.054 A 
HETATM    6  C7  UNL     1       4.180  41.420  50.336  1.00  0.00     0.100 A 
HETATM    7  C8  UNL     1       5.210  44.145  52.644  1.00  0.00     0.071 A 
HETATM    8  C10 UNL     1       6.245  45.008  52.236  1.00  0.00     0.089 A 
HETATM    9  N2  UNL     1       6.639  44.610  51.019  1.00  0.00    -0.328 N 
ENDROOT
BRANCH   8  10
HETATM   10  C11 UNL     1       6.786  46.110  53.051  1.00  0.00     0.137 A 
HETATM   11  O4  UNL     1       7.998  46.240  53.511  1.00  0.00    -0.310 OA
HETATM   12  C12 UNL     1       8.144  47.334  54.199  1.00  0.00     0.059 A 
HETATM   13  C13 UNL     1       9.399  47.820  54.881  1.00  0.00     0.077 C 
HETATM   14  C14 UNL     1       6.943  47.988  54.202  1.00  0.00     0.004 A 
HETATM   15  C15 UNL     1       6.624  49.298  54.869  1.00  0.00     0.054 C 
HETATM   16  C16 UNL     1       6.062  47.206  53.465  1.00  0.00     0.112 A 
BRANCH  16  17
HETATM   17  O5  UNL     1       4.744  47.534  53.245  1.00  0.00    -0.352 OA
HETATM   18  C17 UNL     1       3.816  47.794  54.236  1.00  0.00     0.210 C 
ENDBRANCH  16  17
ENDBRANCH   8  10
BRANCH   7  19
HETATM   19  C9  UNL     1       4.526  44.295  53.918  1.00  0.00     0.268 C 
HETATM   20  N1  UNL     1       3.132  44.506  53.972  1.00  0.00    -0.057 NA
HETATM   21  O3  UNL     1       5.151  44.242  55.004  1.00  0.00    -0.271 OA
ENDBRANCH   7  19
BRANCH   9  22
HETATM   22  C18 UNL     1       7.664  45.207  50.198  1.00  0.00     0.187 C 
HETATM   23  C19 UNL     1       7.380  45.200  48.724  1.00  0.00     0.044 C 
BRANCH  22  24
HETATM   24  C20 UNL     1       9.015  44.686  50.531  1.00  0.00     0.196 C 
HETATM   25  O6  UNL     1       9.358  43.535  50.177  1.00  0.00    -0.646 OA
HETATM   26  O7  UNL     1       9.926  45.450  51.237  1.00  0.00    -0.646 OA
ENDBRANCH  22  24
ENDBRANCH   9  22
BRANCH   6  27
HETATM   27  O2  UNL     1       3.299  40.358  50.211  1.00  0.00    -0.358 OA
ATOM     28  H2  UNL     1       2.365  40.494  50.323  1.00  0.00     0.217 HD
ENDBRANCH   6  27
BRANCH   1  29
HETATM   29  O1  UNL     1       5.088  40.951  48.185  1.00  0.00    -0.353 OA
HETATM   30  C1  UNL     1       5.128  41.473  46.891  1.00  0.00     0.210 C 
ENDBRANCH   1  29
TORSDOF 7
ENDMDL
MODEL 3
REMARK VINA RESULT: -7.916591673      1.440      3.677
REMARK  7 active torsions:
REMARK  status: ('A' for Active; 'I' for Inactive)
REMARK    1  A    between atoms: O1_2  and  C2_3 
REMARK    2  A    between atoms: C7_8  and  O2_9 
REMARK    3  A    between atoms: C8_11  and  C9_12 
REMARK    4  A    between atoms: C10_15  and  C11_16 
REMARK    5  A    between atoms: C16_22  and  O5_23 
REMARK    6  A    between atoms: N2_25  and  C18_26 
REMARK    7  A    between atoms: C18_26  and  C20_28 
ROOT
HETATM    1  C2  UNL     1       5.127  41.688  49.488  1.00  0.00     0.103 A 
HETATM    2  C3  UNL     1       5.921  42.794  49.660  1.00  0.00     0.070 A 
HETATM    3  C4  UNL     1       5.765  43.606  50.770  1.00  0.00     0.050 A 
HETATM    4  C5  UNL     1       4.805  43.304  51.714  1.00  0.00     0.011 A 
HETATM    5  C6  UNL     1       3.993  42.205  51.574  1.00  0.00     0.054 A 
HETATM    6  C7  UNL     1       4.178  41.408  50.440  1.00  0.00     0.100 A 
HETATM    7  C8  UNL     1       4.904  44.288  52.673  1.00  0.00     0.071 A 
HETATM    8  C10 UNL     1       5.930  45.179  52.301  1.00  0.00     0.089 A 
HETATM    9  N2  UNL     1       6.435  44.741  51.139  1.00  0.00    -0.328 N 
ENDROOT
BRANCH   8  10
HETATM   10  C11 UNL     1       6.356  46.344  53.095  1.00  0.00     0.137 A 
HETATM   11  O4  UNL     1       5.607  47.289  53.589  1.00  0.00    -0.310 OA
HETATM   12  C12 UNL     1       6.303  48.173  54.240  1.00  0.00     0.059 A 
HETATM   13  C13 UNL     1       5.783  49.403  54.943  1.00  0.00     0.077 C 
HETATM   14  C14 UNL     1       7.615  47.796  54.182  1.00  0.00     0.004 A 
HETATM   15  C15 UNL     1       8.793  48.508  54.791  1.00  0.00     0.054 C 
HETATM   16  C16 UNL     1       7.659  46.618  53.445  1.00  0.00     0.112 A 
BRANCH  16  17
HETATM   17  O5  UNL     1       8.817  45.930  53.166  1.00  0.00    -0.352 OA
HETATM   18  C17 UNL     1       9.932  46.471  52.553  1.00  0.00     0.210 C 
ENDBRANCH  16  17
ENDBRANCH   8  10
BRANCH   7  19
HETATM   19  C9  UNL     1       4.116  44.469  53.881  1.00  0.00     0.268 C 
HETATM   20  N1  UNL     1       2.733  44.741  53.811  1.00  0.00    -0.057 NA
HETATM   21  O3  UNL     1       4.638  44.388  55.019  1.00  0.00    -0.271 OA
ENDBRANCH   7  19
BRANCH   9  22
HETATM   22  C18 UNL     1       7.495  45.344  50.369  1.00  0.00     0.187 C 
HETATM   23  C19 UNL     1       7.040  46.297  49.303  1.00  0.00     0.044 C 
BRANCH  22  24
HETATM   24  C20 UNL     1       8.464  44.333  49.871  1.00  0.00     0.196 C 
HETATM   25  O6  UNL     1       8.548  44.085  48.646  1.00  0.00    -0.646 OA
HETATM   26  O7  UNL     1       9.292  43.643  50.735  1.00  0.00    -0.646 OA
ENDBRANCH  22  24
ENDBRANCH   9  22
BRANCH   6  27
HETATM   27  O2  UNL     1       3.356  40.301  50.304  1.00  0.00    -0.358 OA
ATOM     28  H2  UNL     1       3.520  39.662  49.620  1.00  0.00     0.217 HD
ENDBRANCH   6  27
BRANCH   1  29
HETATM   29  O1  UNL     1       5.273  40.877  48.393  1.00  0.00    -0.353 OA
HETATM   30  C1  UNL     1       5.197  41.315  47.069  1.00  0.00     0.210 C 
ENDBRANCH   1  29
TORSDOF 7
ENDMDL
MODEL 4
REMARK VINA RESULT: -7.725910226      1.454      2.439
REMARK  7 active torsions:
REMARK  status: ('A' for Active; 'I' for Inactive)
REMARK    1  A    between atoms: O1_2  and  C2_3 
REMARK    2  A    between atoms: C7_8  and  O2_9 
REMARK    3  A    between atoms: C8_11  and  C9_12 
REMARK    4  A    between atoms: C10_15  and  C11_16 
REMARK    5  A    between atoms: C16_22  and  O5_23 
REMARK    6  A    between atoms: N2_25  and  C18_26 
REMARK    7  A    between atoms: C18_26  and  C20_28 
ROOT
HETATM    1  C2  UNL     1       3.749  41.342  49.924  1.00  0.00     0.103 A 
HETATM    2  C3  UNL     1       3.792  42.208  50.989  1.00  0.00     0.070 A 
HETATM    3  C4  UNL     1       4.822  43.125  51.110  1.00  0.00     0.050 A 
HETATM    4  C5  UNL     1       5.816  43.173  50.153  1.00  0.00     0.011 A 
HETATM    5  C6  UNL     1       5.805  42.322  49.075  1.00  0.00     0.054 A 
HETATM    6  C7  UNL     1       4.749  41.408  48.986  1.00  0.00     0.100 A 
HETATM    7  C8  UNL     1       6.673  44.172  50.559  1.00  0.00     0.071 A 
HETATM    8  C10 UNL     1       6.186  44.724  51.760  1.00  0.00     0.089 A 
HETATM    9  N2  UNL     1       5.060  44.068  52.072  1.00  0.00    -0.328 N 
ENDROOT
BRANCH   8  10
HETATM   10  C11 UNL     1       6.816  45.843  52.483  1.00  0.00     0.137 A 
HETATM   11  O4  UNL     1       8.073  45.980  52.797  1.00  0.00    -0.310 OA
HETATM   12  C12 UNL     1       8.296  47.089  53.440  1.00  0.00     0.059 A 
HETATM   13  C13 UNL     1       9.621  47.586  53.963  1.00  0.00     0.077 C 
HETATM   14  C14 UNL     1       7.104  47.745  53.567  1.00  0.00     0.004 A 
HETATM   15  C15 UNL     1       6.862  49.070  54.237  1.00  0.00     0.054 C 
HETATM   16  C16 UNL     1       6.144  46.949  52.952  1.00  0.00     0.112 A 
BRANCH  16  17
HETATM   17  O5  UNL     1       4.810  47.275  52.878  1.00  0.00    -0.352 OA
HETATM   18  C17 UNL     1       4.010  47.592  53.960  1.00  0.00     0.210 C 
ENDBRANCH  16  17
ENDBRANCH   8  10
BRANCH   7  19
HETATM   19  C9  UNL     1       7.901  44.631  49.931  1.00  0.00     0.268 C 
HETATM   20  N1  UNL     1       9.053  43.817  49.910  1.00  0.00    -0.057 NA
HETATM   21  O3  UNL     1       7.975  45.761  49.391  1.00  0.00    -0.271 OA
ENDBRANCH   7  19
BRANCH   9  22
HETATM   22  C18 UNL     1       4.222  44.278  53.227  1.00  0.00     0.187 C 
HETATM   23  C19 UNL     1       4.549  43.419  54.413  1.00  0.00     0.044 C 
BRANCH  22  24
HETATM   24  C20 UNL     1       2.778  44.259  52.876  1.00  0.00     0.196 C 
HETATM   25  O6  UNL     1       2.001  43.449  53.430  1.00  0.00    -0.646 OA
HETATM   26  O7  UNL     1       2.255  45.126  51.936  1.00  0.00    -0.646 OA
ENDBRANCH  22  24
ENDBRANCH   9  22
BRANCH   6  27
HETATM   27  O2  UNL     1       4.744  40.553  47.896  1.00  0.00    -0.358 OA
ATOM     28  H2  UNL     1       4.204  40.745  47.138  1.00  0.00     0.217 HD
ENDBRANCH   6  27
BRANCH   1  29
HETATM   29  O1  UNL     1       2.734  40.431  49.795  1.00  0.00    -0.353 OA
HETATM   30  C1  UNL     1       1.463  40.727  49.299  1.00  0.00     0.210 C 
ENDBRANCH   1  29
TORSDOF 7
ENDMDL
MODEL 5
REMARK VINA RESULT: -7.686924102      2.373      5.916
REMARK  7 active torsions:
REMARK  status: ('A' for Active; 'I' for Inactive)
REMARK    1  A    between atoms: O1_2  and  C2_3 
REMARK    2  A    between atoms: C7_8  and  O2_9 
REMARK    3  A    between atoms: C8_11  and  C9_12 
REMARK    4  A    between atoms: C10_15  and  C11_16 
REMARK    5  A    between atoms: C16_22  and  O5_23 
REMARK    6  A    between atoms: N2_25  and  C18_26 
REMARK    7  A    between atoms: C18_26  and  C20_28 
ROOT
HETATM    1  C2  UNL     1       7.584  45.551  51.135  1.00  0.00     0.103 A 
HETATM    2  C3  UNL     1       6.358  45.798  51.702  1.00  0.00     0.070 A 
HETATM    3  C4  UNL     1       5.328  44.881  51.579  1.00  0.00     0.050 A 
HETATM    4  C5  UNL     1       5.532  43.707  50.884  1.00  0.00     0.011 A 
HETATM    5  C6  UNL     1       6.745  43.427  50.304  1.00  0.00     0.054 A 
HETATM    6  C7  UNL     1       7.762  44.376  50.447  1.00  0.00     0.100 A 
HETATM    7  C8  UNL     1       4.336  43.027  50.946  1.00  0.00     0.071 A 
HETATM    8  C10 UNL     1       3.416  43.797  51.684  1.00  0.00     0.089 A 
HETATM    9  N2  UNL     1       4.046  44.920  52.055  1.00  0.00    -0.328 N 
ENDROOT
BRANCH   8  10
HETATM   10  C11 UNL     1       2.036  43.384  51.994  1.00  0.00     0.137 A 
HETATM   11  O4  UNL     1       1.120  42.980  51.161  1.00  0.00    -0.310 OA
HETATM   12  C12 UNL     1       0.005  42.693  51.765  1.00  0.00     0.059 A 
HETATM   13  C13 UNL     1      -1.272  42.198  51.131  1.00  0.00     0.077 C 
HETATM   14  C14 UNL     1       0.183  42.919  53.101  1.00  0.00     0.004 A 
HETATM   15  C15 UNL     1      -0.828  42.727  54.199  1.00  0.00     0.054 C 
HETATM   16  C16 UNL     1       1.491  43.365  53.258  1.00  0.00     0.112 A 
BRANCH  16  17
HETATM   17  O5  UNL     1       2.046  43.702  54.470  1.00  0.00    -0.352 OA
HETATM   18  C17 UNL     1       1.502  44.601  55.369  1.00  0.00     0.210 C 
ENDBRANCH  16  17
ENDBRANCH   8  10
BRANCH   7  19
HETATM   19  C9  UNL     1       3.985  41.742  50.363  1.00  0.00     0.268 C 
HETATM   20  N1  UNL     1       3.455  41.658  49.058  1.00  0.00    -0.057 NA
HETATM   21  O3  UNL     1       4.142  40.672  50.999  1.00  0.00    -0.271 OA
ENDBRANCH   7  19
BRANCH   9  22
HETATM   22  C18 UNL     1       3.496  46.015  52.816  1.00  0.00     0.187 C 
HETATM   23  C19 UNL     1       3.030  47.184  51.997  1.00  0.00     0.044 C 
BRANCH  22  24
HETATM   24  C20 UNL     1       4.382  46.411  53.941  1.00  0.00     0.196 C 
HETATM   25  O6  UNL     1       4.732  47.605  54.085  1.00  0.00    -0.646 OA
HETATM   26  O7  UNL     1       4.842  45.482  54.855  1.00  0.00    -0.646 OA
ENDBRANCH  22  24
ENDBRANCH   9  22
BRANCH   6  27
HETATM   27  O2  UNL     1       8.984  44.088  49.861  1.00  0.00    -0.358 OA
ATOM     28  H2  UNL     1       9.071  44.077  48.915  1.00  0.00     0.217 HD
ENDBRANCH   6  27
BRANCH   1  29
HETATM   29  O1  UNL     1       8.610  46.452  51.249  1.00  0.00    -0.353 OA
HETATM   30  C1  UNL     1       9.411  46.598  52.383  1.00  0.00     0.210 C 
ENDBRANCH   1  29
TORSDOF 7
ENDMDL
