MODEL 1
REMARK VINA RESULT: -8.188116665      0.000      0.000
REMARK  11 active torsions:
REMARK  status: ('A' for Active; 'I' for Inactive)
REMARK    1  A    between atoms: C2_2  and  O1_4 
REMARK    2  A    between atoms: O1_4  and  C4_5 
REMARK       I    between atoms: C4_5  and  N1_7 
REMARK    3  A    between atoms: N1_7  and  C5_9 
REMARK    4  A    between atoms: C5_9  and  C7_11 
REMARK    5  A    between atoms: C7_11  and  O4_13 
REMARK    6  A    between atoms: O4_13  and  C8_14 
REMARK    7  A    between atoms: C8_14  and  C9_15 
REMARK    8  A    between atoms: C11_17  and  C12_18 
REMARK    9  A    between atoms: C13_23  and  C14_24 
REMARK   10  A    between atoms: C14_24  and  O8_26 
REMARK   11  A    between atoms: O8_26  and  C15_27 
ROOT
HETATM    1  C9  UNL     1       5.449  47.008  54.487  1.00  0.00     0.001 A 
HETATM    2  C10 UNL     1       4.430  47.920  54.643  1.00  0.00     0.048 A 
HETATM    3  C11 UNL     1       5.025  49.166  54.744  1.00  0.00     0.111 A 
HETATM    4  N2  UNL     1       6.353  48.988  54.651  1.00  0.00    -0.345 N 
ATOM      5  H2  UNL     1       7.038  49.743  54.694  1.00  0.00     0.166 HD
HETATM    6  C13 UNL     1       6.659  47.714  54.495  1.00  0.00     0.117 A 
ENDROOT
BRANCH   1   7
HETATM    7  C8  UNL     1       5.367  45.552  54.362  1.00  0.00     0.220 C 
BRANCH   7   8
HETATM    8  O4  UNL     1       4.321  45.133  53.532  1.00  0.00    -0.315 OA
BRANCH   8   9
HETATM    9  C7  UNL     1       3.121  44.596  53.923  1.00  0.00     0.281 C 
HETATM   10  O3  UNL     1       2.609  44.982  55.004  1.00  0.00    -0.263 OA
BRANCH   9  11
HETATM   11  C5  UNL     1       2.423  43.565  53.081  1.00  0.00     0.182 C 
HETATM   12  C6  UNL     1       1.332  42.926  53.890  1.00  0.00     0.043 C 
BRANCH  11  13
HETATM   13  N1  UNL     1       3.331  42.553  52.634  1.00  0.00    -0.323 N 
HETATM   14  C4  UNL     1       3.254  42.047  51.317  1.00  0.00     0.361 C 
HETATM   15  O2  UNL     1       2.397  42.470  50.519  1.00  0.00    -0.238 OA
ATOM     16  H1  UNL     1       4.041  42.194  53.273  1.00  0.00     0.165 HD
BRANCH  14  17
HETATM   17  O1  UNL     1       4.139  41.076  50.913  1.00  0.00    -0.299 OA
BRANCH  17  18
HETATM   18  C2  UNL     1       5.260  41.325  50.089  1.00  0.00     0.125 C 
HETATM   19  C1  UNL     1       5.880  42.676  50.368  1.00  0.00     0.040 C 
HETATM   20  C3  UNL     1       4.947  41.173  48.631  1.00  0.00     0.040 C 
ENDBRANCH  17  18
ENDBRANCH  14  17
ENDBRANCH  11  13
ENDBRANCH   9  11
ENDBRANCH   8   9
ENDBRANCH   7   8
ENDBRANCH   1   7
BRANCH   6  21
HETATM   21  C14 UNL     1       7.974  47.148  54.360  1.00  0.00     0.311 C 
HETATM   22  O7  UNL     1       8.962  47.463  55.079  1.00  0.00    -0.258 OA
BRANCH  21  23
HETATM   23  O8  UNL     1       8.257  46.173  53.384  1.00  0.00    -0.306 OA
BRANCH  23  24
HETATM   24  C15 UNL     1       8.517  46.511  52.045  1.00  0.00     0.060 C 
HETATM   25  C16 UNL     1       9.908  46.010  51.711  1.00  0.00     0.046 C 
HETATM   26  C17 UNL     1       7.539  45.881  51.086  1.00  0.00     0.046 C 
HETATM   27  C18 UNL     1       8.511  48.002  51.804  1.00  0.00     0.046 C 
ENDBRANCH  23  24
ENDBRANCH  21  23
ENDBRANCH   6  21
BRANCH   3  28
HETATM   28  C12 UNL     1       4.304  50.420  54.922  1.00  0.00     0.226 C 
HETATM   29  O5  UNL     1       4.267  51.008  56.030  1.00  0.00    -0.643 OA
HETATM   30  O6  UNL     1       3.630  50.999  53.859  1.00  0.00    -0.643 OA
ENDBRANCH   3  28
TORSDOF 11
ENDMDL
MODEL 2
REMARK VINA RESULT: -8.045442482      1.026      1.358
REMARK  11 active torsions:
REMARK  status: ('A' for Active; 'I' for Inactive)
REMARK    1  A    between atoms: C2_2  and  O1_4 
REMARK    2  A    between atoms: O1_4  and  C4_5 
REMARK       I    between atoms: C4_5  and  N1_7 
REMARK    3  A    between atoms: N1_7  and  C5_9 
REMARK    4  A    between atoms: C5_9  and  C7_11 
REMARK    5  A    between atoms: C7_11  and  O4_13 
REMARK    6  A    between atoms: O4_13  and  C8_14 
REMARK    7  A    between atoms: C8_14  and  C9_15 
REMARK    8  A    between atoms: C11_17  and  C12_18 
REMARK    9  A    between atoms: C13_23  and  C14_24 
REMARK   10  A    between atoms: C14_24  and  O8_26 
REMARK   11  A    between atoms: O8_26  and  C15_27 
ROOT
HETATM    1  C9  UNL     1       5.585  46.986  54.492  1.00  0.00     0.001 A 
HETATM    2  C10 UNL     1       4.537  47.866  54.636  1.00  0.00     0.048 A 
HETATM    3  C11 UNL     1       5.092  49.130  54.740  1.00  0.00     0.111 A 
HETATM    4  N2  UNL     1       6.425  48.993  54.662  1.00  0.00    -0.345 N 
ATOM      5  H2  UNL     1       7.087  49.769  54.711  1.00  0.00     0.166 HD
HETATM    6  C13 UNL     1       6.773  47.729  54.513  1.00  0.00     0.117 A 
ENDROOT
BRANCH   1   7
HETATM    7  C8  UNL     1       5.549  45.527  54.370  1.00  0.00     0.220 C 
BRANCH   7   8
HETATM    8  O4  UNL     1       4.334  44.974  54.790  1.00  0.00    -0.315 OA
BRANCH   8   9
HETATM    9  C7  UNL     1       3.228  44.729  54.015  1.00  0.00     0.281 C 
HETATM   10  O3  UNL     1       2.127  44.520  54.583  1.00  0.00    -0.263 OA
BRANCH   9  11
HETATM   11  C5  UNL     1       3.321  44.711  52.515  1.00  0.00     0.182 C 
HETATM   12  C6  UNL     1       2.294  45.646  51.948  1.00  0.00     0.043 C 
BRANCH  11  13
HETATM   13  N1  UNL     1       3.101  43.396  51.994  1.00  0.00    -0.323 N 
HETATM   14  C4  UNL     1       4.143  42.694  51.347  1.00  0.00     0.361 C 
HETATM   15  O2  UNL     1       5.272  43.203  51.218  1.00  0.00    -0.238 OA
ATOM     16  H1  UNL     1       2.183  42.962  52.091  1.00  0.00     0.165 HD
BRANCH  14  17
HETATM   17  O1  UNL     1       3.905  41.433  50.856  1.00  0.00    -0.299 OA
BRANCH  17  18
HETATM   18  C2  UNL     1       3.465  41.170  49.538  1.00  0.00     0.125 C 
HETATM   19  C1  UNL     1       2.611  39.923  49.465  1.00  0.00     0.040 C 
HETATM   20  C3  UNL     1       4.597  41.099  48.559  1.00  0.00     0.040 C 
ENDBRANCH  17  18
ENDBRANCH  14  17
ENDBRANCH  11  13
ENDBRANCH   9  11
ENDBRANCH   8   9
ENDBRANCH   7   8
ENDBRANCH   1   7
BRANCH   6  21
HETATM   21  C14 UNL     1       8.106  47.204  54.393  1.00  0.00     0.311 C 
HETATM   22  O7  UNL     1       9.078  47.560  55.114  1.00  0.00    -0.258 OA
BRANCH  21  23
HETATM   23  O8  UNL     1       8.427  46.224  53.433  1.00  0.00    -0.306 OA
BRANCH  23  24
HETATM   24  C15 UNL     1       8.609  46.542  52.076  1.00  0.00     0.060 C 
HETATM   25  C16 UNL     1       9.995  46.073  51.681  1.00  0.00     0.046 C 
HETATM   26  C17 UNL     1       7.603  45.867  51.180  1.00  0.00     0.046 C 
HETATM   27  C18 UNL     1       8.549  48.028  51.808  1.00  0.00     0.046 C 
ENDBRANCH  23  24
ENDBRANCH  21  23
ENDBRANCH   6  21
BRANCH   3  28
HETATM   28  C12 UNL     1       4.330  50.361  54.906  1.00  0.00     0.226 C 
HETATM   29  O5  UNL     1       4.288  50.967  56.005  1.00  0.00    -0.643 OA
HETATM   30  O6  UNL     1       3.622  50.899  53.844  1.00  0.00    -0.643 OA
ENDBRANCH   3  28
TORSDOF 11
ENDMDL
MODEL 3
REMARK VINA RESULT: -7.936141155      2.163      4.186
REMARK  11 active torsions:
REMARK  status: ('A' for Active; 'I' for Inactive)
REMARK    1  A    between atoms: C2_2  and  O1_4 
REMARK    2  A    between atoms: O1_4  and  C4_5 
REMARK       I    between atoms: C4_5  and  N1_7 
REMARK    3  A    between atoms: N1_7  and  C5_9 
REMARK    4  A    between atoms: C5_9  and  C7_11 
REMARK    5  A    between atoms: C7_11  and  O4_13 
REMARK    6  A    between atoms: O4_13  and  C8_14 
REMARK    7  A    between atoms: C8_14  and  C9_15 
REMARK    8  A    between atoms: C11_17  and  C12_18 
REMARK    9  A    between atoms: C13_23  and  C14_24 
REMARK   10  A    between atoms: C14_24  and  O8_26 
REMARK   11  A    between atoms: O8_26  and  C15_27 
ROOT
HETATM    1  C9  UNL     1       5.532  45.816  51.623  1.00  0.00     0.001 A 
HETATM    2  C10 UNL     1       6.056  45.128  50.553  1.00  0.00     0.048 A 
HETATM    3  C11 UNL     1       7.423  45.056  50.760  1.00  0.00     0.111 A 
HETATM    4  N2  UNL     1       7.691  45.685  51.916  1.00  0.00    -0.345 N 
ATOM      5  H2  UNL     1       8.625  45.785  52.314  1.00  0.00     0.166 HD
HETATM    6  C13 UNL     1       6.592  46.159  52.473  1.00  0.00     0.117 A 
ENDROOT
BRANCH   1   7
HETATM    7  C8  UNL     1       4.140  46.191  51.880  1.00  0.00     0.220 C 
BRANCH   7   8
HETATM    8  O4  UNL     1       3.452  45.243  52.646  1.00  0.00    -0.315 OA
BRANCH   8   9
HETATM    9  C7  UNL     1       2.170  44.796  52.448  1.00  0.00     0.281 C 
HETATM   10  O3  UNL     1       1.243  45.639  52.359  1.00  0.00    -0.263 OA
BRANCH   9  11
HETATM   11  C5  UNL     1       1.871  43.327  52.336  1.00  0.00     0.182 C 
HETATM   12  C6  UNL     1       1.293  42.843  53.633  1.00  0.00     0.043 C 
BRANCH  11  13
HETATM   13  N1  UNL     1       3.051  42.575  52.036  1.00  0.00    -0.323 N 
HETATM   14  C4  UNL     1       3.144  41.827  50.840  1.00  0.00     0.361 C 
HETATM   15  O2  UNL     1       2.204  41.808  50.024  1.00  0.00    -0.238 OA
ATOM     16  H1  UNL     1       3.833  42.579  52.692  1.00  0.00     0.165 HD
BRANCH  14  17
HETATM   17  O1  UNL     1       4.289  41.114  50.577  1.00  0.00    -0.299 OA
BRANCH  17  18
HETATM   18  C2  UNL     1       5.380  41.621  49.835  1.00  0.00     0.125 C 
HETATM   19  C1  UNL     1       5.232  41.351  48.354  1.00  0.00     0.040 C 
HETATM   20  C3  UNL     1       6.699  41.119  50.338  1.00  0.00     0.040 C 
ENDBRANCH  17  18
ENDBRANCH  14  17
ENDBRANCH  11  13
ENDBRANCH   9  11
ENDBRANCH   8   9
ENDBRANCH   7   8
ENDBRANCH   1   7
BRANCH   6  21
HETATM   21  C14 UNL     1       6.490  46.886  53.709  1.00  0.00     0.311 C 
HETATM   22  O7  UNL     1       5.415  47.359  54.170  1.00  0.00    -0.258 OA
BRANCH  21  23
HETATM   23  O8  UNL     1       7.619  47.126  54.516  1.00  0.00    -0.306 OA
BRANCH  23  24
HETATM   24  C15 UNL     1       8.536  48.152  54.230  1.00  0.00     0.060 C 
HETATM   25  C16 UNL     1       9.877  47.501  53.956  1.00  0.00     0.046 C 
HETATM   26  C17 UNL     1       8.142  48.962  53.021  1.00  0.00     0.046 C 
HETATM   27  C18 UNL     1       8.730  49.105  55.386  1.00  0.00     0.046 C 
ENDBRANCH  23  24
ENDBRANCH  21  23
ENDBRANCH   6  21
BRANCH   3  28
HETATM   28  C12 UNL     1       8.368  44.407  49.860  1.00  0.00     0.226 C 
HETATM   29  O5  UNL     1       8.011  43.955  48.744  1.00  0.00    -0.643 OA
HETATM   30  O6  UNL     1       9.699  44.268  50.218  1.00  0.00    -0.643 OA
ENDBRANCH   3  28
TORSDOF 11
ENDMDL
MODEL 4
REMARK VINA RESULT: -7.923551501      2.106      3.845
REMARK  11 active torsions:
REMARK  status: ('A' for Active; 'I' for Inactive)
REMARK    1  A    between atoms: C2_2  and  O1_4 
REMARK    2  A    between atoms: O1_4  and  C4_5 
REMARK       I    between atoms: C4_5  and  N1_7 
REMARK    3  A    between atoms: N1_7  and  C5_9 
REMARK    4  A    between atoms: C5_9  and  C7_11 
REMARK    5  A    between atoms: C7_11  and  O4_13 
REMARK    6  A    between atoms: O4_13  and  C8_14 
REMARK    7  A    between atoms: C8_14  and  C9_15 
REMARK    8  A    between atoms: C11_17  and  C12_18 
REMARK    9  A    between atoms: C13_23  and  C14_24 
REMARK   10  A    between atoms: C14_24  and  O8_26 
REMARK   11  A    between atoms: O8_26  and  C15_27 
ROOT
HETATM    1  C9  UNL     1       5.832  46.913  54.665  1.00  0.00     0.001 A 
HETATM    2  C10 UNL     1       4.738  47.738  54.789  1.00  0.00     0.048 A 
HETATM    3  C11 UNL     1       5.216  49.037  54.771  1.00  0.00     0.111 A 
HETATM    4  N2  UNL     1       6.552  48.974  54.641  1.00  0.00    -0.345 N 
ATOM      5  H2  UNL     1       7.165  49.789  54.600  1.00  0.00     0.166 HD
HETATM    6  C13 UNL     1       6.971  47.725  54.574  1.00  0.00     0.117 A 
ENDROOT
BRANCH   1   7
HETATM    7  C8  UNL     1       5.883  45.450  54.657  1.00  0.00     0.220 C 
BRANCH   7   8
HETATM    8  O4  UNL     1       4.646  44.863  54.372  1.00  0.00    -0.315 OA
BRANCH   8   9
HETATM    9  C7  UNL     1       4.134  44.578  53.131  1.00  0.00     0.281 C 
HETATM   10  O3  UNL     1       4.859  43.972  52.303  1.00  0.00    -0.263 OA
BRANCH   9  11
HETATM   11  C5  UNL     1       2.733  44.976  52.761  1.00  0.00     0.182 C 
HETATM   12  C6  UNL     1       2.777  46.246  51.964  1.00  0.00     0.043 C 
BRANCH  11  13
HETATM   13  N1  UNL     1       1.923  45.178  53.925  1.00  0.00    -0.323 N 
HETATM   14  C4  UNL     1       1.098  44.142  54.416  1.00  0.00     0.361 C 
HETATM   15  O2  UNL     1       1.058  43.033  53.850  1.00  0.00    -0.238 OA
ATOM     16  H1  UNL     1       1.942  46.079  54.403  1.00  0.00     0.165 HD
BRANCH  14  17
HETATM   17  O1  UNL     1       0.331  44.362  55.535  1.00  0.00    -0.299 OA
BRANCH  17  18
HETATM   18  C2  UNL     1      -0.291  45.596  55.835  1.00  0.00     0.125 C 
HETATM   19  C1  UNL     1       0.182  46.161  57.156  1.00  0.00     0.040 C 
HETATM   20  C3  UNL     1      -1.786  45.511  55.796  1.00  0.00     0.040 C 
ENDBRANCH  17  18
ENDBRANCH  14  17
ENDBRANCH  11  13
ENDBRANCH   9  11
ENDBRANCH   8   9
ENDBRANCH   7   8
ENDBRANCH   1   7
BRANCH   6  21
HETATM   21  C14 UNL     1       8.329  47.272  54.434  1.00  0.00     0.311 C 
HETATM   22  O7  UNL     1       9.293  47.683  55.136  1.00  0.00    -0.258 OA
BRANCH  21  23
HETATM   23  O8  UNL     1       8.686  46.307  53.472  1.00  0.00    -0.306 OA
BRANCH  23  24
HETATM   24  C15 UNL     1       8.697  46.594  52.096  1.00  0.00     0.060 C 
HETATM   25  C16 UNL     1      10.001  46.068  51.532  1.00  0.00     0.046 C 
HETATM   26  C17 UNL     1       7.558  45.940  51.356  1.00  0.00     0.046 C 
HETATM   27  C18 UNL     1       8.652  48.076  51.805  1.00  0.00     0.046 C 
ENDBRANCH  23  24
ENDBRANCH  21  23
ENDBRANCH   6  21
BRANCH   3  28
HETATM   28  C12 UNL     1       4.387  50.231  54.877  1.00  0.00     0.226 C 
HETATM   29  O5  UNL     1       4.317  50.893  55.941  1.00  0.00    -0.643 OA
HETATM   30  O6  UNL     1       3.643  50.668  53.793  1.00  0.00    -0.643 OA
ENDBRANCH   3  28
TORSDOF 11
ENDMDL
MODEL 5
REMARK VINA RESULT: -7.783024553      2.102      4.212
REMARK  11 active torsions:
REMARK  status: ('A' for Active; 'I' for Inactive)
REMARK    1  A    between atoms: C2_2  and  O1_4 
REMARK    2  A    between atoms: O1_4  and  C4_5 
REMARK       I    between atoms: C4_5  and  N1_7 
REMARK    3  A    between atoms: N1_7  and  C5_9 
REMARK    4  A    between atoms: C5_9  and  C7_11 
REMARK    5  A    between atoms: C7_11  and  O4_13 
REMARK    6  A    between atoms: O4_13  and  C8_14 
REMARK    7  A    between atoms: C8_14  and  C9_15 
REMARK    8  A    between atoms: C11_17  and  C12_18 
REMARK    9  A    between atoms: C13_23  and  C14_24 
REMARK   10  A    between atoms: C14_24  and  O8_26 
REMARK   11  A    between atoms: O8_26  and  C15_27 
ROOT
HETATM    1  C9  UNL     1       4.519  46.317  53.312  1.00  0.00     0.001 A 
HETATM    2  C10 UNL     1       3.339  45.634  53.501  1.00  0.00     0.048 A 
HETATM    3  C11 UNL     1       2.977  45.826  54.823  1.00  0.00     0.111 A 
HETATM    4  N2  UNL     1       3.918  46.598  55.392  1.00  0.00    -0.345 N 
ATOM      5  H2  UNL     1       3.902  46.899  56.367  1.00  0.00     0.166 HD
HETATM    6  C13 UNL     1       4.864  46.920  54.530  1.00  0.00     0.117 A 
ENDROOT
BRANCH   1   7
HETATM    7  C8  UNL     1       5.340  46.415  52.104  1.00  0.00     0.220 C 
BRANCH   7   8
HETATM    8  O4  UNL     1       6.209  45.330  51.945  1.00  0.00    -0.315 OA
BRANCH   8   9
HETATM    9  C7  UNL     1       7.201  45.198  51.006  1.00  0.00     0.281 C 
HETATM   10  O3  UNL     1       7.927  46.191  50.750  1.00  0.00    -0.263 OA
BRANCH   9  11
HETATM   11  C5  UNL     1       7.424  43.893  50.294  1.00  0.00     0.182 C 
HETATM   12  C6  UNL     1       8.346  44.119  49.133  1.00  0.00     0.043 C 
BRANCH  11  13
HETATM   13  N1  UNL     1       6.193  43.341  49.817  1.00  0.00    -0.323 N 
HETATM   14  C4  UNL     1       5.962  41.948  49.867  1.00  0.00     0.361 C 
HETATM   15  O2  UNL     1       6.822  41.173  50.325  1.00  0.00    -0.238 OA
ATOM     16  H1  UNL     1       5.475  43.960  49.438  1.00  0.00     0.165 HD
BRANCH  14  17
HETATM   17  O1  UNL     1       4.770  41.444  49.402  1.00  0.00    -0.299 OA
BRANCH  17  18
HETATM   18  C2  UNL     1       3.714  41.017  50.240  1.00  0.00     0.125 C 
HETATM   19  C1  UNL     1       2.642  40.281  49.468  1.00  0.00     0.040 C 
HETATM   20  C3  UNL     1       3.122  42.140  51.036  1.00  0.00     0.040 C 
ENDBRANCH  17  18
ENDBRANCH  14  17
ENDBRANCH  11  13
ENDBRANCH   9  11
ENDBRANCH   8   9
ENDBRANCH   7   8
ENDBRANCH   1   7
BRANCH   6  21
HETATM   21  C14 UNL     1       6.025  47.730  54.778  1.00  0.00     0.311 C 
HETATM   22  O7  UNL     1       5.994  48.974  54.986  1.00  0.00    -0.258 OA
BRANCH  21  23
HETATM   23  O8  UNL     1       7.318  47.171  54.808  1.00  0.00    -0.306 OA
BRANCH  23  24
HETATM   24  C15 UNL     1       8.425  47.823  54.237  1.00  0.00     0.060 C 
HETATM   25  C16 UNL     1       9.392  46.753  53.773  1.00  0.00     0.046 C 
HETATM   26  C17 UNL     1       8.050  48.675  53.052  1.00  0.00     0.046 C 
HETATM   27  C18 UNL     1       9.166  48.695  55.224  1.00  0.00     0.046 C 
ENDBRANCH  23  24
ENDBRANCH  21  23
ENDBRANCH   6  21
BRANCH   3  28
HETATM   28  C12 UNL     1       1.782  45.272  55.447  1.00  0.00     0.226 C 
HETATM   29  O5  UNL     1       1.299  44.171  55.085  1.00  0.00    -0.643 OA
HETATM   30  O6  UNL     1       1.141  45.955  56.468  1.00  0.00    -0.643 OA
ENDBRANCH   3  28
TORSDOF 11
ENDMDL
