MODEL 1
REMARK VINA RESULT: -9.577628647      0.000      0.000
REMARK  9 active torsions:
REMARK  status: ('A' for Active; 'I' for Inactive)
REMARK    1  A    between atoms: C2_2  and  C4_4 
REMARK    2  A    between atoms: C4_4  and  C6_6 
REMARK    3  A    between atoms: C6_6  and  O1_7 
REMARK    4  A    between atoms: C6_6  and  C7_9 
REMARK    5  A    between atoms: C7_9  and  C8_10 
REMARK    6  A    between atoms: C9_11  and  O2_12 
REMARK    7  A    between atoms: C10_15  and  C11_16 
REMARK    8  A    between atoms: C11_16  and  C12_18 
REMARK    9  A    between atoms: C22_30  and  O7_31 
ROOT
HETATM    1  C8  UNL     1       3.969  41.956  50.441  1.00  0.00     0.039 A 
HETATM    2  C9  UNL     1       2.835  42.400  51.082  1.00  0.00     0.193 A 
HETATM    3  O3  UNL     1       3.152  43.343  51.905  1.00  0.00    -0.281 OA
HETATM    4  C10 UNL     1       4.425  43.608  51.902  1.00  0.00     0.160 A 
HETATM    5  C22 UNL     1       4.996  42.751  50.984  1.00  0.00     0.114 A 
ENDROOT
BRANCH   4   6
HETATM    6  C11 UNL     1       5.152  44.591  52.682  1.00  0.00     0.219 C 
HETATM    7  O4  UNL     1       5.407  44.408  53.896  1.00  0.00    -0.287 OA
BRANCH   6   8
HETATM    8  C12 UNL     1       5.605  45.837  52.046  1.00  0.00     0.239 C 
HETATM    9  O5  UNL     1       6.482  45.587  50.952  1.00  0.00    -0.329 OA
HETATM   10  C13 UNL     1       7.785  45.733  51.405  1.00  0.00     0.122 C 
HETATM   11  C14 UNL     1       7.821  46.375  52.571  1.00  0.00    -0.011 C 
HETATM   12  C17 UNL     1       9.159  45.389  50.980  1.00  0.00     0.183 C 
HETATM   13  C15 UNL     1       9.251  46.497  53.000  1.00  0.00     0.050 C 
HETATM   14  C18 UNL     1       6.439  46.680  52.916  1.00  0.00    -0.011 C 
HETATM   15  C16 UNL     1      10.036  46.335  51.739  1.00  0.00     0.091 C 
HETATM   16  C19 UNL     1       6.055  47.542  53.815  1.00  0.00    -0.078 C 
HETATM   17  C20 UNL     1       6.998  48.342  54.642  1.00  0.00     0.043 C 
HETATM   18  C21 UNL     1       4.608  47.775  54.056  1.00  0.00     0.043 C 
HETATM   19  O6  UNL     1       9.549  44.525  50.183  1.00  0.00    -0.290 OA
ENDBRANCH   6   8
ENDBRANCH   4   6
BRANCH   5  20
HETATM   20  O7  UNL     1       6.298  42.588  50.574  1.00  0.00    -0.357 OA
ATOM     21  H7  UNL     1       6.974  42.345  51.196  1.00  0.00     0.217 HD
ENDBRANCH   5  20
BRANCH   2  22
HETATM   22  O2  UNL     1       1.547  41.925  50.891  1.00  0.00    -0.340 OA
ATOM     23  H2  UNL     1       1.109  41.266  51.415  1.00  0.00     0.220 HD
ENDBRANCH   2  22
BRANCH   1  24
HETATM   24  C7  UNL     1       4.115  40.891  49.418  1.00  0.00     0.079 C 
BRANCH  24  25
HETATM   25  C6  UNL     1       4.667  41.393  48.106  1.00  0.00     0.130 C 
BRANCH  25  26
HETATM   26  C4  UNL     1       3.874  40.827  46.972  1.00  0.00     0.038 C 
HETATM   27  C5  UNL     1       2.540  40.281  47.400  1.00  0.00     0.017 C 
BRANCH  26  28
HETATM   28  C2  UNL     1       3.647  41.855  45.896  1.00  0.00    -0.087 C 
HETATM   29  C1  UNL     1       4.600  42.195  45.051  1.00  0.00     0.014 C 
HETATM   30  C3  UNL     1       2.316  42.513  45.776  1.00  0.00     0.043 C 
ENDBRANCH  26  28
ENDBRANCH  25  26
BRANCH  25  31
HETATM   31  O1  UNL     1       6.007  41.136  47.987  1.00  0.00    -0.395 OA
ATOM     32  H1  UNL     1       6.237  40.792  47.131  1.00  0.00     0.210 HD
ENDBRANCH  25  31
ENDBRANCH  24  25
ENDBRANCH   1  24
TORSDOF 9
ENDMDL
MODEL 2
REMARK VINA RESULT: -9.101733954      1.238      1.514
REMARK  9 active torsions:
REMARK  status: ('A' for Active; 'I' for Inactive)
REMARK    1  A    between atoms: C2_2  and  C4_4 
REMARK    2  A    between atoms: C4_4  and  C6_6 
REMARK    3  A    between atoms: C6_6  and  O1_7 
REMARK    4  A    between atoms: C6_6  and  C7_9 
REMARK    5  A    between atoms: C7_9  and  C8_10 
REMARK    6  A    between atoms: C9_11  and  O2_12 
REMARK    7  A    between atoms: C10_15  and  C11_16 
REMARK    8  A    between atoms: C11_16  and  C12_18 
REMARK    9  A    between atoms: C22_30  and  O7_31 
ROOT
HETATM    1  C8  UNL     1       3.278  42.968  51.751  1.00  0.00     0.039 A 
HETATM    2  C9  UNL     1       2.517  43.299  52.850  1.00  0.00     0.193 A 
HETATM    3  O3  UNL     1       3.167  44.142  53.579  1.00  0.00    -0.281 OA
HETATM    4  C10 UNL     1       4.333  44.440  53.089  1.00  0.00     0.160 A 
HETATM    5  C22 UNL     1       4.457  43.718  51.920  1.00  0.00     0.114 A 
ENDROOT
BRANCH   4   6
HETATM    6  C11 UNL     1       5.340  45.339  53.617  1.00  0.00     0.219 C 
HETATM    7  O4  UNL     1       5.855  45.158  54.746  1.00  0.00    -0.287 OA
BRANCH   6   8
HETATM    8  C12 UNL     1       5.776  46.497  52.821  1.00  0.00     0.239 C 
HETATM    9  O5  UNL     1       6.422  46.099  51.615  1.00  0.00    -0.329 OA
HETATM   10  C13 UNL     1       7.792  46.148  51.827  1.00  0.00     0.122 C 
HETATM   11  C14 UNL     1       8.087  46.852  52.918  1.00  0.00    -0.011 C 
HETATM   12  C17 UNL     1       9.036  45.650  51.200  1.00  0.00     0.183 C 
HETATM   13  C15 UNL     1       9.575  46.863  53.086  1.00  0.00     0.050 C 
HETATM   14  C18 UNL     1       6.818  47.307  53.470  1.00  0.00    -0.011 C 
HETATM   15  C16 UNL     1      10.108  46.552  51.725  1.00  0.00     0.091 C 
HETATM   16  C19 UNL     1       6.672  48.253  54.353  1.00  0.00    -0.078 C 
HETATM   17  C20 UNL     1       7.810  49.009  54.945  1.00  0.00     0.043 C 
HETATM   18  C21 UNL     1       5.315  48.637  54.821  1.00  0.00     0.043 C 
HETATM   19  O6  UNL     1       9.206  44.707  50.416  1.00  0.00    -0.290 OA
ENDBRANCH   6   8
ENDBRANCH   4   6
BRANCH   5  20
HETATM   20  O7  UNL     1       5.473  43.642  50.996  1.00  0.00    -0.357 OA
ATOM     21  H7  UNL     1       6.122  44.333  50.934  1.00  0.00     0.217 HD
ENDBRANCH   5  20
BRANCH   2  22
HETATM   22  O2  UNL     1       1.252  42.816  53.144  1.00  0.00    -0.340 OA
ATOM     23  H2  UNL     1       0.433  43.282  53.029  1.00  0.00     0.220 HD
ENDBRANCH   2  22
BRANCH   1  24
HETATM   24  C7  UNL     1       2.965  42.040  50.636  1.00  0.00     0.079 C 
BRANCH  24  25
HETATM   25  C6  UNL     1       4.194  41.464  49.975  1.00  0.00     0.130 C 
BRANCH  25  26
HETATM   26  C4  UNL     1       3.796  40.646  48.789  1.00  0.00     0.038 C 
HETATM   27  C5  UNL     1       2.355  40.217  48.825  1.00  0.00     0.017 C 
BRANCH  26  28
HETATM   28  C2  UNL     1       4.042  41.389  47.503  1.00  0.00    -0.087 C 
HETATM   29  C1  UNL     1       5.248  41.795  47.158  1.00  0.00     0.014 C 
HETATM   30  C3  UNL     1       2.900  41.682  46.593  1.00  0.00     0.043 C 
ENDBRANCH  26  28
ENDBRANCH  25  26
BRANCH  25  31
HETATM   31  O1  UNL     1       4.965  40.760  50.862  1.00  0.00    -0.395 OA
ATOM     32  H1  UNL     1       5.051  41.202  51.699  1.00  0.00     0.210 HD
ENDBRANCH  25  31
ENDBRANCH  24  25
ENDBRANCH   1  24
TORSDOF 9
ENDMDL
MODEL 3
REMARK VINA RESULT: -9.065251497      1.261      2.151
REMARK  9 active torsions:
REMARK  status: ('A' for Active; 'I' for Inactive)
REMARK    1  A    between atoms: C2_2  and  C4_4 
REMARK    2  A    between atoms: C4_4  and  C6_6 
REMARK    3  A    between atoms: C6_6  and  O1_7 
REMARK    4  A    between atoms: C6_6  and  C7_9 
REMARK    5  A    between atoms: C7_9  and  C8_10 
REMARK    6  A    between atoms: C9_11  and  O2_12 
REMARK    7  A    between atoms: C10_15  and  C11_16 
REMARK    8  A    between atoms: C11_16  and  C12_18 
REMARK    9  A    between atoms: C22_30  and  O7_31 
ROOT
HETATM    1  C8  UNL     1       4.209  41.491  50.304  1.00  0.00     0.039 A 
HETATM    2  C9  UNL     1       5.509  41.782  49.956  1.00  0.00     0.193 A 
HETATM    3  O3  UNL     1       5.914  42.802  50.637  1.00  0.00    -0.281 OA
HETATM    4  C10 UNL     1       5.006  43.263  51.443  1.00  0.00     0.160 A 
HETATM    5  C22 UNL     1       3.895  42.464  51.273  1.00  0.00     0.114 A 
ENDROOT
BRANCH   4   6
HETATM    6  C11 UNL     1       5.086  44.385  52.358  1.00  0.00     0.219 C 
HETATM    7  O4  UNL     1       4.860  44.251  53.584  1.00  0.00    -0.287 OA
BRANCH   6   8
HETATM    8  C12 UNL     1       5.439  45.719  51.848  1.00  0.00     0.239 C 
HETATM    9  O5  UNL     1       6.583  45.679  51.000  1.00  0.00    -0.329 OA
HETATM   10  C13 UNL     1       7.689  46.038  51.756  1.00  0.00     0.122 C 
HETATM   11  C14 UNL     1       7.325  46.626  52.894  1.00  0.00    -0.011 C 
HETATM   12  C17 UNL     1       9.164  45.967  51.678  1.00  0.00     0.183 C 
HETATM   13  C15 UNL     1       8.563  46.986  53.658  1.00  0.00     0.050 C 
HETATM   14  C18 UNL     1       5.869  46.661  52.893  1.00  0.00    -0.011 C 
HETATM   15  C16 UNL     1       9.643  47.023  52.625  1.00  0.00     0.091 C 
HETATM   16  C19 UNL     1       5.128  47.400  53.668  1.00  0.00    -0.078 C 
HETATM   17  C20 UNL     1       5.681  48.322  54.698  1.00  0.00     0.043 C 
HETATM   18  C21 UNL     1       3.648  47.357  53.551  1.00  0.00     0.043 C 
HETATM   19  O6  UNL     1       9.887  45.222  51.002  1.00  0.00    -0.290 OA
ENDBRANCH   6   8
ENDBRANCH   4   6
BRANCH   5  20
HETATM   20  O7  UNL     1       2.652  42.489  51.861  1.00  0.00    -0.357 OA
ATOM     21  H7  UNL     1       2.529  42.158  52.743  1.00  0.00     0.217 HD
ENDBRANCH   5  20
BRANCH   2  22
HETATM   22  O2  UNL     1       6.279  41.101  49.028  1.00  0.00    -0.340 OA
ATOM     23  H2  UNL     1       7.072  41.420  48.615  1.00  0.00     0.220 HD
ENDBRANCH   2  22
BRANCH   1  24
HETATM   24  C7  UNL     1       3.317  40.420  49.797  1.00  0.00     0.079 C 
BRANCH  24  25
HETATM   25  C6  UNL     1       2.968  40.575  48.336  1.00  0.00     0.130 C 
BRANCH  25  26
HETATM   26  C4  UNL     1       1.577  40.084  48.092  1.00  0.00     0.038 C 
HETATM   27  C5  UNL     1       0.679  40.238  49.288  1.00  0.00     0.017 C 
BRANCH  26  28
HETATM   28  C2  UNL     1       0.944  40.791  46.924  1.00  0.00    -0.087 C 
HETATM   29  C1  UNL     1       0.093  40.181  46.123  1.00  0.00     0.014 C 
HETATM   30  C3  UNL     1       1.283  42.216  46.656  1.00  0.00     0.043 C 
ENDBRANCH  26  28
ENDBRANCH  25  26
BRANCH  25  31
HETATM   31  O1  UNL     1       3.888  39.963  47.526  1.00  0.00    -0.395 OA
ATOM     32  H1  UNL     1       4.651  40.507  47.367  1.00  0.00     0.210 HD
ENDBRANCH  25  31
ENDBRANCH  24  25
ENDBRANCH   1  24
TORSDOF 9
ENDMDL
MODEL 4
REMARK VINA RESULT: -9.014641167      2.358      7.707
REMARK  9 active torsions:
REMARK  status: ('A' for Active; 'I' for Inactive)
REMARK    1  A    between atoms: C2_2  and  C4_4 
REMARK    2  A    between atoms: C4_4  and  C6_6 
REMARK    3  A    between atoms: C6_6  and  O1_7 
REMARK    4  A    between atoms: C6_6  and  C7_9 
REMARK    5  A    between atoms: C7_9  and  C8_10 
REMARK    6  A    between atoms: C9_11  and  O2_12 
REMARK    7  A    between atoms: C10_15  and  C11_16 
REMARK    8  A    between atoms: C11_16  and  C12_18 
REMARK    9  A    between atoms: C22_30  and  O7_31 
ROOT
HETATM    1  C8  UNL     1       5.477  47.015  54.222  1.00  0.00     0.039 A 
HETATM    2  C9  UNL     1       4.378  47.819  54.425  1.00  0.00     0.193 A 
HETATM    3  O3  UNL     1       3.359  47.306  53.821  1.00  0.00    -0.281 OA
HETATM    4  C10 UNL     1       3.643  46.200  53.201  1.00  0.00     0.160 A 
HETATM    5  C22 UNL     1       4.984  45.965  53.423  1.00  0.00     0.114 A 
ENDROOT
BRANCH   4   6
HETATM    6  C11 UNL     1       2.771  45.344  52.420  1.00  0.00     0.219 C 
HETATM    7  O4  UNL     1       2.229  45.747  51.364  1.00  0.00    -0.287 OA
BRANCH   6   8
HETATM    8  C12 UNL     1       2.506  43.968  52.868  1.00  0.00     0.239 C 
HETATM    9  O5  UNL     1       3.647  43.130  52.712  1.00  0.00    -0.329 OA
HETATM   10  C13 UNL     1       3.500  42.421  51.529  1.00  0.00     0.122 C 
HETATM   11  C14 UNL     1       2.242  42.467  51.093  1.00  0.00    -0.011 C 
HETATM   12  C17 UNL     1       4.325  41.622  50.597  1.00  0.00     0.183 C 
HETATM   13  C15 UNL     1       2.156  41.685  49.817  1.00  0.00     0.050 C 
HETATM   14  C18 UNL     1       1.500  43.263  52.060  1.00  0.00    -0.011 C 
HETATM   15  C16 UNL     1       3.340  40.774  49.855  1.00  0.00     0.091 C 
HETATM   16  C19 UNL     1       0.202  43.308  52.167  1.00  0.00    -0.078 C 
HETATM   17  C20 UNL     1      -0.722  42.545  51.285  1.00  0.00     0.043 C 
HETATM   18  C21 UNL     1      -0.433  44.149  53.215  1.00  0.00     0.043 C 
HETATM   19  O6  UNL     1       5.552  41.617  50.429  1.00  0.00    -0.290 OA
ENDBRANCH   6   8
ENDBRANCH   4   6
BRANCH   5  20
HETATM   20  O7  UNL     1       5.814  44.950  53.012  1.00  0.00    -0.357 OA
ATOM     21  H7  UNL     1       6.599  44.737  53.504  1.00  0.00     0.217 HD
ENDBRANCH   5  20
BRANCH   2  22
HETATM   22  O2  UNL     1       4.348  48.994  55.158  1.00  0.00    -0.340 OA
ATOM     23  H2  UNL     1       3.660  49.648  55.141  1.00  0.00     0.220 HD
ENDBRANCH   2  22
BRANCH   1  24
HETATM   24  C7  UNL     1       6.869  47.185  54.707  1.00  0.00     0.079 C 
BRANCH  24  25
HETATM   25  C6  UNL     1       7.456  48.537  54.380  1.00  0.00     0.130 C 
BRANCH  25  26
HETATM   26  C4  UNL     1       8.880  48.382  53.952  1.00  0.00     0.038 C 
HETATM   27  C5  UNL     1       9.754  47.781  55.017  1.00  0.00     0.017 C 
BRANCH  26  28
HETATM   28  C2  UNL     1       8.990  47.538  52.710  1.00  0.00    -0.087 C 
HETATM   29  C1  UNL     1       8.469  47.924  51.562  1.00  0.00     0.014 C 
HETATM   30  C3  UNL     1       9.699  46.230  52.771  1.00  0.00     0.043 C 
ENDBRANCH  26  28
ENDBRANCH  25  26
BRANCH  25  31
HETATM   31  O1  UNL     1       7.315  49.417  55.420  1.00  0.00    -0.395 OA
ATOM     32  H1  UNL     1       7.418  48.999  56.267  1.00  0.00     0.210 HD
ENDBRANCH  25  31
ENDBRANCH  24  25
ENDBRANCH   1  24
TORSDOF 9
ENDMDL
MODEL 5
REMARK VINA RESULT: -8.986409949      4.109      5.766
REMARK  9 active torsions:
REMARK  status: ('A' for Active; 'I' for Inactive)
REMARK    1  A    between atoms: C2_2  and  C4_4 
REMARK    2  A    between atoms: C4_4  and  C6_6 
REMARK    3  A    between atoms: C6_6  and  O1_7 
REMARK    4  A    between atoms: C6_6  and  C7_9 
REMARK    5  A    between atoms: C7_9  and  C8_10 
REMARK    6  A    between atoms: C9_11  and  O2_12 
REMARK    7  A    between atoms: C10_15  and  C11_16 
REMARK    8  A    between atoms: C11_16  and  C12_18 
REMARK    9  A    between atoms: C22_30  and  O7_31 
ROOT
HETATM    1  C8  UNL     1       1.173  45.150  54.516  1.00  0.00     0.039 A 
HETATM    2  C9  UNL     1       0.943  46.149  53.597  1.00  0.00     0.193 A 
HETATM    3  O3  UNL     1       2.021  46.845  53.447  1.00  0.00    -0.281 OA
HETATM    4  C10 UNL     1       3.002  46.422  54.187  1.00  0.00     0.160 A 
HETATM    5  C22 UNL     1       2.517  45.341  54.891  1.00  0.00     0.114 A 
ENDROOT
BRANCH   4   6
HETATM    6  C11 UNL     1       4.351  46.942  54.292  1.00  0.00     0.219 C 
HETATM    7  O4  UNL     1       4.576  48.172  54.386  1.00  0.00    -0.287 OA
BRANCH   6   8
HETATM    8  C12 UNL     1       5.493  46.015  54.289  1.00  0.00     0.239 C 
HETATM    9  O5  UNL     1       6.536  46.453  55.154  1.00  0.00    -0.329 OA
HETATM   10  C13 UNL     1       7.488  47.105  54.383  1.00  0.00     0.122 C 
HETATM   11  C14 UNL     1       7.328  46.832  53.089  1.00  0.00    -0.011 C 
HETATM   12  C17 UNL     1       8.636  48.018  54.565  1.00  0.00     0.183 C 
HETATM   13  C15 UNL     1       8.383  47.565  52.318  1.00  0.00     0.050 C 
HETATM   14  C18 UNL     1       6.188  45.931  52.995  1.00  0.00    -0.011 C 
HETATM   15  C16 UNL     1       9.453  47.848  53.322  1.00  0.00     0.091 C 
HETATM   16  C19 UNL     1       5.882  45.202  51.959  1.00  0.00    -0.078 C 
HETATM   17  C20 UNL     1       6.665  45.202  50.694  1.00  0.00     0.043 C 
HETATM   18  C21 UNL     1       4.698  44.305  52.001  1.00  0.00     0.043 C 
HETATM   19  O6  UNL     1       8.907  48.773  55.509  1.00  0.00    -0.290 OA
ENDBRANCH   6   8
ENDBRANCH   4   6
BRANCH   5  20
HETATM   20  O7  UNL     1       3.109  44.512  55.814  1.00  0.00    -0.357 OA
ATOM     21  H7  UNL     1       4.051  44.527  55.945  1.00  0.00     0.217 HD
ENDBRANCH   5  20
BRANCH   2  22
HETATM   22  O2  UNL     1      -0.246  46.387  52.927  1.00  0.00    -0.340 OA
ATOM     23  H2  UNL     1      -0.337  46.789  52.072  1.00  0.00     0.220 HD
ENDBRANCH   2  22
BRANCH   1  24
HETATM   24  C7  UNL     1       0.247  44.106  55.021  1.00  0.00     0.079 C 
BRANCH  24  25
HETATM   25  C6  UNL     1       0.001  42.995  54.029  1.00  0.00     0.130 C 
BRANCH  25  26
HETATM   26  C4  UNL     1      -1.422  42.544  54.117  1.00  0.00     0.038 C 
HETATM   27  C5  UNL     1      -2.294  43.490  54.895  1.00  0.00     0.017 C 
BRANCH  26  28
HETATM   28  C2  UNL     1      -2.022  42.357  52.749  1.00  0.00    -0.087 C 
HETATM   29  C1  UNL     1      -2.080  41.171  52.175  1.00  0.00     0.014 C 
HETATM   30  C3  UNL     1      -2.564  43.534  52.016  1.00  0.00     0.043 C 
ENDBRANCH  26  28
ENDBRANCH  25  26
BRANCH  25  31
HETATM   31  O1  UNL     1       0.888  41.964  54.191  1.00  0.00    -0.395 OA
ATOM     32  H1  UNL     1       1.627  42.203  54.738  1.00  0.00     0.210 HD
ENDBRANCH  25  31
ENDBRANCH  24  25
ENDBRANCH   1  24
TORSDOF 9
ENDMDL
