MODEL 1
REMARK VINA RESULT: -10.347583511      0.000      0.000
REMARK  16 active torsions:
REMARK  status: ('A' for Active; 'I' for Inactive)
REMARK    1  A    between atoms: C3_3  and  N1_4 
REMARK       I    between atoms: N1_4  and  C4_6 
REMARK       I    between atoms: C4_6  and  N2_8 
REMARK    2  A    between atoms: N2_8  and  C5_10 
REMARK    3  A    between atoms: C5_10  and  C6_11 
REMARK    4  A    between atoms: C6_11  and  C7_12 
REMARK    5  A    between atoms: C7_12  and  C8_13 
REMARK    6  A    between atoms: C8_13  and  C9_14 
REMARK    7  A    between atoms: C8_13  and  C11_16 
REMARK    8  A    between atoms: C13_20  and  C14_21 
REMARK    9  A    between atoms: C16_23  and  C17_24 
REMARK   10  A    between atoms: C17_24  and  C18_25 
REMARK   11  A    between atoms: C18_25  and  C19_26 
REMARK   12  A    between atoms: C19_26  and  O2_27 
REMARK   13  A    between atoms: C19_26  and  N4_29 
REMARK   14  A    between atoms: N4_29  and  C20_31 
REMARK   15  A    between atoms: C20_31  and  C21_32 
REMARK   16  A    between atoms: C21_32  and  C22_33 
ROOT
HETATM    1  C1  UNL     1      -0.013  65.443  70.208  1.00  0.00     0.014 C 
HETATM    2  C2  UNL     1      -0.565  65.904  69.235  1.00  0.00    -0.098 C 
HETATM    3  C3  UNL     1      -1.240  66.448  68.060  1.00  0.00     0.217 C 
ENDROOT
BRANCH   3   4
HETATM    4  N1  UNL     1      -0.358  66.333  66.920  1.00  0.00    -0.333 N 
HETATM    5  C4  UNL     1      -0.322  67.336  65.933  1.00  0.00     0.320 C 
HETATM    6  O1  UNL     1      -1.059  68.338  66.037  1.00  0.00    -0.247 OA
HETATM    7  N2  UNL     1       0.556  67.212  64.809  1.00  0.00    -0.319 N 
ATOM      8  H2  UNL     1       1.152  66.388  64.734  1.00  0.00     0.170 HD
ATOM      9  H1  UNL     1       0.245  65.516  66.829  1.00  0.00     0.165 HD
BRANCH   7  10
HETATM   10  C5  UNL     1       0.618  68.202  63.796  1.00  0.00     0.092 C 
BRANCH  10  11
HETATM   11  C6  UNL     1       1.663  68.206  62.786  1.00  0.00     0.014 C 
BRANCH  11  12
HETATM   12  C7  UNL     1       3.042  67.810  63.053  1.00  0.00    -0.012 C 
BRANCH  12  13
HETATM   13  C8  UNL     1       3.916  68.410  64.061  1.00  0.00     0.064 C 
BRANCH  13  14
HETATM   14  C9  UNL     1       5.233  68.910  63.700  1.00  0.00    -0.024 C 
HETATM   15  C10 UNL     1       5.821  68.491  62.591  1.00  0.00     0.008 C 
ENDBRANCH  13  14
BRANCH  13  16
HETATM   16  C11 UNL     1       3.990  67.496  65.274  1.00  0.00    -0.029 A 
HETATM   17  C12 UNL     1       4.591  66.277  65.386  1.00  0.00     0.096 A 
HETATM   18  N3  UNL     1       4.411  65.825  66.669  1.00  0.00    -0.365 N 
HETATM   19  C13 UNL     1       3.718  66.696  67.407  1.00  0.00     0.038 A 
ATOM     20  H3  UNL     1       4.764  64.934  67.017  1.00  0.00     0.165 HD
HETATM   21  C28 UNL     1       3.453  67.760  66.506  1.00  0.00     0.039 A 
BRANCH  19  22
HETATM   22  C14 UNL     1       3.294  66.728  68.780  1.00  0.00    -0.035 C 
HETATM   23  C15 UNL     1       2.267  67.824  69.158  1.00  0.00     0.050 C 
HETATM   24  C16 UNL     1       3.619  65.973  69.777  1.00  0.00     0.009 C 
BRANCH  24  25
HETATM   25  C17 UNL     1       4.500  64.856  69.891  1.00  0.00     0.005 C 
BRANCH  25  26
HETATM   26  C18 UNL     1       4.274  63.618  69.642  1.00  0.00     0.055 C 
BRANCH  26  27
HETATM   27  C19 UNL     1       3.287  62.882  68.965  1.00  0.00     0.135 C 
BRANCH  27  28
HETATM   28  O2  UNL     1       3.233  63.107  67.659  1.00  0.00    -0.346 OA
ATOM     29  H2  UNL     1       3.508  62.373  67.122  1.00  0.00     0.219 HD
ENDBRANCH  27  28
BRANCH  27  30
HETATM   30  N4  UNL     1       2.333  61.952  69.362  1.00  0.00    -0.371 N 
ATOM     31  H4  UNL     1       2.236  61.089  68.826  1.00  0.00     0.161 HD
BRANCH  30  32
HETATM   32  C20 UNL     1       1.454  62.166  70.530  1.00  0.00     0.128 C 
BRANCH  32  33
HETATM   33  C21 UNL     1       2.157  62.076  71.839  1.00  0.00     0.077 C 
BRANCH  33  34
HETATM   34  C22 UNL     1       2.362  60.630  72.173  1.00  0.00     0.012 A 
HETATM   35  C23 UNL     1       1.254  59.818  72.339  1.00  0.00     0.025 A 
HETATM   36  C24 UNL     1       1.431  58.482  72.646  1.00  0.00     0.003 A 
HETATM   37  C25 UNL     1       2.717  58.020  72.775  1.00  0.00     0.017 A 
HETATM   38  C26 UNL     1       3.828  58.840  72.608  1.00  0.00     0.090 A 
HETATM   39  N5  UNL     1       3.607  60.153  72.304  1.00  0.00    -0.364 N 
HETATM   40  C27 UNL     1       4.770  60.996  72.135  1.00  0.00     0.155 C 
ENDBRANCH  33  34
ENDBRANCH  32  33
ENDBRANCH  30  32
ENDBRANCH  27  30
ENDBRANCH  26  27
ENDBRANCH  25  26
ENDBRANCH  24  25
ENDBRANCH  19  22
ENDBRANCH  13  16
ENDBRANCH  12  13
ENDBRANCH  11  12
ENDBRANCH  10  11
ENDBRANCH   7  10
ENDBRANCH   3   4
TORSDOF 16
ENDMDL
MODEL 2
REMARK VINA RESULT: -9.635131141      1.865      2.788
REMARK  16 active torsions:
REMARK  status: ('A' for Active; 'I' for Inactive)
REMARK    1  A    between atoms: C3_3  and  N1_4 
REMARK       I    between atoms: N1_4  and  C4_6 
REMARK       I    between atoms: C4_6  and  N2_8 
REMARK    2  A    between atoms: N2_8  and  C5_10 
REMARK    3  A    between atoms: C5_10  and  C6_11 
REMARK    4  A    between atoms: C6_11  and  C7_12 
REMARK    5  A    between atoms: C7_12  and  C8_13 
REMARK    6  A    between atoms: C8_13  and  C9_14 
REMARK    7  A    between atoms: C8_13  and  C11_16 
REMARK    8  A    between atoms: C13_20  and  C14_21 
REMARK    9  A    between atoms: C16_23  and  C17_24 
REMARK   10  A    between atoms: C17_24  and  C18_25 
REMARK   11  A    between atoms: C18_25  and  C19_26 
REMARK   12  A    between atoms: C19_26  and  O2_27 
REMARK   13  A    between atoms: C19_26  and  N4_29 
REMARK   14  A    between atoms: N4_29  and  C20_31 
REMARK   15  A    between atoms: C20_31  and  C21_32 
REMARK   16  A    between atoms: C21_32  and  C22_33 
ROOT
HETATM    1  C1  UNL     1       0.301  63.488  71.112  1.00  0.00     0.014 C 
HETATM    2  C2  UNL     1       0.366  64.596  70.630  1.00  0.00    -0.098 C 
HETATM    3  C3  UNL     1       0.432  65.937  70.056  1.00  0.00     0.217 C 
ENDROOT
BRANCH   3   4
HETATM    4  N1  UNL     1       0.109  65.858  68.648  1.00  0.00    -0.333 N 
HETATM    5  C4  UNL     1       0.468  66.895  67.768  1.00  0.00     0.320 C 
HETATM    6  O1  UNL     1       1.072  67.898  68.200  1.00  0.00    -0.247 OA
HETATM    7  N2  UNL     1       0.144  66.806  66.376  1.00  0.00    -0.319 N 
ATOM      8  H2  UNL     1      -0.351  65.982  66.034  1.00  0.00     0.170 HD
ATOM      9  H1  UNL     1      -0.385  65.041  68.289  1.00  0.00     0.165 HD
BRANCH   7  10
HETATM   10  C5  UNL     1       0.490  67.831  65.460  1.00  0.00     0.092 C 
BRANCH  10  11
HETATM   11  C6  UNL     1       1.767  67.846  64.768  1.00  0.00     0.014 C 
BRANCH  11  12
HETATM   12  C7  UNL     1       3.012  68.292  65.385  1.00  0.00    -0.012 C 
BRANCH  12  13
HETATM   13  C8  UNL     1       4.239  67.501  65.486  1.00  0.00     0.064 C 
BRANCH  13  14
HETATM   14  C9  UNL     1       5.091  67.298  64.325  1.00  0.00    -0.024 C 
HETATM   15  C10 UNL     1       5.466  68.332  63.589  1.00  0.00     0.008 C 
ENDBRANCH  13  14
BRANCH  13  16
HETATM   16  C11 UNL     1       3.934  66.182  66.179  1.00  0.00    -0.029 A 
HETATM   17  C12 UNL     1       3.365  65.058  65.658  1.00  0.00     0.096 A 
HETATM   18  N3  UNL     1       3.294  64.112  66.649  1.00  0.00    -0.365 N 
HETATM   19  C13 UNL     1       3.794  64.566  67.802  1.00  0.00     0.038 A 
ATOM     20  H3  UNL     1       2.908  63.177  66.522  1.00  0.00     0.165 HD
HETATM   21  C28 UNL     1       4.199  65.890  67.491  1.00  0.00     0.039 A 
BRANCH  19  22
HETATM   22  C14 UNL     1       3.986  63.989  69.104  1.00  0.00    -0.035 C 
HETATM   23  C15 UNL     1       4.750  64.856  70.135  1.00  0.00     0.050 C 
HETATM   24  C16 UNL     1       3.610  62.848  69.581  1.00  0.00     0.009 C 
BRANCH  24  25
HETATM   25  C17 UNL     1       2.886  61.759  69.011  1.00  0.00     0.005 C 
BRANCH  25  26
HETATM   26  C18 UNL     1       2.927  60.512  69.315  1.00  0.00     0.055 C 
BRANCH  26  27
HETATM   27  C19 UNL     1       3.837  59.651  69.950  1.00  0.00     0.135 C 
BRANCH  27  28
HETATM   28  O2  UNL     1       3.963  58.464  69.374  1.00  0.00    -0.346 OA
ATOM     29  H2  UNL     1       3.362  57.803  69.698  1.00  0.00     0.219 HD
ENDBRANCH  27  28
BRANCH  27  30
HETATM   30  N4  UNL     1       4.653  59.764  71.070  1.00  0.00    -0.371 N 
ATOM     31  H4  UNL     1       5.658  59.871  70.937  1.00  0.00     0.161 HD
BRANCH  30  32
HETATM   32  C20 UNL     1       4.117  59.732  72.447  1.00  0.00     0.128 C 
BRANCH  32  33
HETATM   33  C21 UNL     1       3.303  60.926  72.805  1.00  0.00     0.077 C 
BRANCH  33  34
HETATM   34  C22 UNL     1       1.929  60.468  73.191  1.00  0.00     0.012 A 
HETATM   35  C23 UNL     1       1.512  59.207  72.805  1.00  0.00     0.025 A 
HETATM   36  C24 UNL     1       0.247  58.774  73.156  1.00  0.00     0.003 A 
HETATM   37  C25 UNL     1      -0.546  59.630  73.879  1.00  0.00     0.017 A 
HETATM   38  C26 UNL     1      -0.122  60.897  74.264  1.00  0.00     0.090 A 
HETATM   39  N5  UNL     1       1.136  61.284  73.897  1.00  0.00    -0.364 N 
HETATM   40  C27 UNL     1       1.564  62.605  74.301  1.00  0.00     0.155 C 
ENDBRANCH  33  34
ENDBRANCH  32  33
ENDBRANCH  30  32
ENDBRANCH  27  30
ENDBRANCH  26  27
ENDBRANCH  25  26
ENDBRANCH  24  25
ENDBRANCH  19  22
ENDBRANCH  13  16
ENDBRANCH  12  13
ENDBRANCH  11  12
ENDBRANCH  10  11
ENDBRANCH   7  10
ENDBRANCH   3   4
TORSDOF 16
ENDMDL
MODEL 3
REMARK VINA RESULT: -9.534938371      2.098      3.452
REMARK  16 active torsions:
REMARK  status: ('A' for Active; 'I' for Inactive)
REMARK    1  A    between atoms: C3_3  and  N1_4 
REMARK       I    between atoms: N1_4  and  C4_6 
REMARK       I    between atoms: C4_6  and  N2_8 
REMARK    2  A    between atoms: N2_8  and  C5_10 
REMARK    3  A    between atoms: C5_10  and  C6_11 
REMARK    4  A    between atoms: C6_11  and  C7_12 
REMARK    5  A    between atoms: C7_12  and  C8_13 
REMARK    6  A    between atoms: C8_13  and  C9_14 
REMARK    7  A    between atoms: C8_13  and  C11_16 
REMARK    8  A    between atoms: C13_20  and  C14_21 
REMARK    9  A    between atoms: C16_23  and  C17_24 
REMARK   10  A    between atoms: C17_24  and  C18_25 
REMARK   11  A    between atoms: C18_25  and  C19_26 
REMARK   12  A    between atoms: C19_26  and  O2_27 
REMARK   13  A    between atoms: C19_26  and  N4_29 
REMARK   14  A    between atoms: N4_29  and  C20_31 
REMARK   15  A    between atoms: C20_31  and  C21_32 
REMARK   16  A    between atoms: C21_32  and  C22_33 
ROOT
HETATM    1  C1  UNL     1       1.143  63.138  72.270  1.00  0.00     0.014 C 
HETATM    2  C2  UNL     1       0.724  63.818  71.360  1.00  0.00    -0.098 C 
HETATM    3  C3  UNL     1       0.225  64.628  70.253  1.00  0.00     0.217 C 
ENDROOT
BRANCH   3   4
HETATM    4  N1  UNL     1       1.018  65.834  70.163  1.00  0.00    -0.333 N 
HETATM    5  C4  UNL     1       0.966  66.646  69.015  1.00  0.00     0.320 C 
HETATM    6  O1  UNL     1       0.228  66.328  68.060  1.00  0.00    -0.247 OA
HETATM    7  N2  UNL     1       1.756  67.838  68.937  1.00  0.00    -0.319 N 
ATOM      8  H2  UNL     1       2.356  68.088  69.723  1.00  0.00     0.170 HD
ATOM      9  H1  UNL     1       1.624  66.098  70.940  1.00  0.00     0.165 HD
BRANCH   7  10
HETATM   10  C5  UNL     1       1.728  68.680  67.797  1.00  0.00     0.092 C 
BRANCH  10  11
HETATM   11  C6  UNL     1       1.753  68.148  66.446  1.00  0.00     0.014 C 
BRANCH  11  12
HETATM   12  C7  UNL     1       2.922  68.218  65.575  1.00  0.00    -0.012 C 
BRANCH  12  13
HETATM   13  C8  UNL     1       4.189  67.522  65.799  1.00  0.00     0.064 C 
BRANCH  13  14
HETATM   14  C9  UNL     1       5.176  67.413  64.737  1.00  0.00    -0.024 C 
HETATM   15  C10 UNL     1       5.500  68.478  64.020  1.00  0.00     0.008 C 
ENDBRANCH  13  14
BRANCH  13  16
HETATM   16  C11 UNL     1       3.915  66.168  66.433  1.00  0.00    -0.029 A 
HETATM   17  C12 UNL     1       3.298  65.081  65.889  1.00  0.00     0.096 A 
HETATM   18  N3  UNL     1       3.283  64.079  66.826  1.00  0.00    -0.365 N 
HETATM   19  C13 UNL     1       3.865  64.459  67.965  1.00  0.00     0.038 A 
ATOM     20  H3  UNL     1       2.877  63.157  66.671  1.00  0.00     0.165 HD
HETATM   21  C28 UNL     1       4.265  65.796  67.704  1.00  0.00     0.039 A 
BRANCH  19  22
HETATM   22  C14 UNL     1       4.138  63.806  69.215  1.00  0.00    -0.035 C 
HETATM   23  C15 UNL     1       5.068  64.560  70.198  1.00  0.00     0.050 C 
HETATM   24  C16 UNL     1       3.721  62.675  69.680  1.00  0.00     0.009 C 
BRANCH  24  25
HETATM   25  C17 UNL     1       2.858  61.673  69.143  1.00  0.00     0.005 C 
BRANCH  25  26
HETATM   26  C18 UNL     1       2.801  60.421  69.418  1.00  0.00     0.055 C 
BRANCH  26  27
HETATM   27  C19 UNL     1       3.684  59.449  69.917  1.00  0.00     0.135 C 
BRANCH  27  28
HETATM   28  O2  UNL     1       3.932  58.450  69.081  1.00  0.00    -0.346 OA
ATOM     29  H2  UNL     1       4.834  58.395  68.790  1.00  0.00     0.219 HD
ENDBRANCH  27  28
BRANCH  27  30
HETATM   30  N4  UNL     1       4.373  59.294  71.115  1.00  0.00    -0.371 N 
ATOM     31  H4  UNL     1       5.373  59.495  71.136  1.00  0.00     0.161 HD
BRANCH  30  32
HETATM   32  C20 UNL     1       3.711  58.847  72.358  1.00  0.00     0.128 C 
BRANCH  32  33
HETATM   33  C21 UNL     1       2.693  57.780  72.151  1.00  0.00     0.077 C 
BRANCH  33  34
HETATM   34  C22 UNL     1       1.414  58.207  72.804  1.00  0.00     0.012 A 
HETATM   35  C23 UNL     1       0.966  59.503  72.615  1.00  0.00     0.025 A 
HETATM   36  C24 UNL     1      -0.213  59.907  73.213  1.00  0.00     0.003 A 
HETATM   37  C25 UNL     1      -0.891  58.990  73.977  1.00  0.00     0.017 A 
HETATM   38  C26 UNL     1      -0.437  57.689  74.164  1.00  0.00     0.090 A 
HETATM   39  N5  UNL     1       0.732  57.332  73.554  1.00  0.00    -0.364 N 
HETATM   40  C27 UNL     1       1.195  55.977  73.759  1.00  0.00     0.155 C 
ENDBRANCH  33  34
ENDBRANCH  32  33
ENDBRANCH  30  32
ENDBRANCH  27  30
ENDBRANCH  26  27
ENDBRANCH  25  26
ENDBRANCH  24  25
ENDBRANCH  19  22
ENDBRANCH  13  16
ENDBRANCH  12  13
ENDBRANCH  11  12
ENDBRANCH  10  11
ENDBRANCH   7  10
ENDBRANCH   3   4
TORSDOF 16
ENDMDL
MODEL 4
REMARK VINA RESULT: -9.385534059      1.515      2.282
REMARK  16 active torsions:
REMARK  status: ('A' for Active; 'I' for Inactive)
REMARK    1  A    between atoms: C3_3  and  N1_4 
REMARK       I    between atoms: N1_4  and  C4_6 
REMARK       I    between atoms: C4_6  and  N2_8 
REMARK    2  A    between atoms: N2_8  and  C5_10 
REMARK    3  A    between atoms: C5_10  and  C6_11 
REMARK    4  A    between atoms: C6_11  and  C7_12 
REMARK    5  A    between atoms: C7_12  and  C8_13 
REMARK    6  A    between atoms: C8_13  and  C9_14 
REMARK    7  A    between atoms: C8_13  and  C11_16 
REMARK    8  A    between atoms: C13_20  and  C14_21 
REMARK    9  A    between atoms: C16_23  and  C17_24 
REMARK   10  A    between atoms: C17_24  and  C18_25 
REMARK   11  A    between atoms: C18_25  and  C19_26 
REMARK   12  A    between atoms: C19_26  and  O2_27 
REMARK   13  A    between atoms: C19_26  and  N4_29 
REMARK   14  A    between atoms: N4_29  and  C20_31 
REMARK   15  A    between atoms: C20_31  and  C21_32 
REMARK   16  A    between atoms: C21_32  and  C22_33 
ROOT
HETATM    1  C1  UNL     1      -2.270  66.376  67.894  1.00  0.00     0.014 C 
HETATM    2  C2  UNL     1      -2.253  67.166  66.977  1.00  0.00    -0.098 C 
HETATM    3  C3  UNL     1      -2.239  68.109  65.863  1.00  0.00     0.217 C 
ENDROOT
BRANCH   3   4
HETATM    4  N1  UNL     1      -0.892  68.197  65.343  1.00  0.00    -0.333 N 
HETATM    5  C4  UNL     1      -0.656  68.235  63.956  1.00  0.00     0.320 C 
HETATM    6  O1  UNL     1      -1.616  68.192  63.160  1.00  0.00    -0.247 OA
HETATM    7  N2  UNL     1       0.682  68.323  63.453  1.00  0.00    -0.319 N 
ATOM      8  H2  UNL     1       1.459  68.355  64.114  1.00  0.00     0.170 HD
ATOM      9  H1  UNL     1      -0.103  68.230  65.989  1.00  0.00     0.165 HD
BRANCH   7  10
HETATM   10  C5  UNL     1       0.957  68.364  62.063  1.00  0.00     0.092 C 
BRANCH  10  11
HETATM   11  C6  UNL     1       2.307  68.231  61.541  1.00  0.00     0.014 C 
BRANCH  11  12
HETATM   12  C7  UNL     1       3.438  67.774  62.342  1.00  0.00    -0.012 C 
BRANCH  12  13
HETATM   13  C8  UNL     1       3.972  68.455  63.521  1.00  0.00     0.064 C 
BRANCH  13  14
HETATM   14  C9  UNL     1       5.374  68.836  63.590  1.00  0.00    -0.024 C 
HETATM   15  C10 UNL     1       6.191  68.540  62.592  1.00  0.00     0.008 C 
ENDBRANCH  13  14
BRANCH  13  16
HETATM   16  C11 UNL     1       3.546  67.704  64.773  1.00  0.00    -0.029 A 
HETATM   17  C12 UNL     1       3.572  66.361  65.011  1.00  0.00     0.096 A 
HETATM   18  N3  UNL     1       3.103  66.140  66.281  1.00  0.00    -0.365 N 
HETATM   19  C13 UNL     1       2.769  67.280  66.891  1.00  0.00     0.038 A 
ATOM     20  H3  UNL     1       3.019  65.217  66.707  1.00  0.00     0.165 HD
HETATM   21  C28 UNL     1       3.056  68.274  65.918  1.00  0.00     0.039 A 
BRANCH  19  22
HETATM   22  C14 UNL     1       2.272  67.606  68.199  1.00  0.00    -0.035 C 
HETATM   23  C15 UNL     1       1.238  68.757  68.275  1.00  0.00     0.050 C 
HETATM   24  C16 UNL     1       2.535  67.084  69.351  1.00  0.00     0.009 C 
BRANCH  24  25
HETATM   25  C17 UNL     1       3.396  66.019  69.751  1.00  0.00     0.005 C 
BRANCH  25  26
HETATM   26  C18 UNL     1       3.121  64.778  69.928  1.00  0.00     0.055 C 
BRANCH  26  27
HETATM   27  C19 UNL     1       3.498  63.560  69.336  1.00  0.00     0.135 C 
BRANCH  27  28
HETATM   28  O2  UNL     1       3.268  63.489  68.033  1.00  0.00    -0.346 OA
ATOM     29  H2  UNL     1       2.579  64.065  67.723  1.00  0.00     0.219 HD
ENDBRANCH  27  28
BRANCH  27  30
HETATM   30  N4  UNL     1       4.069  62.388  69.818  1.00  0.00    -0.371 N 
ATOM     31  H4  UNL     1       4.861  61.985  69.318  1.00  0.00     0.161 HD
BRANCH  30  32
HETATM   32  C20 UNL     1       3.572  61.703  71.029  1.00  0.00     0.128 C 
BRANCH  32  33
HETATM   33  C21 UNL     1       2.628  60.587  70.748  1.00  0.00     0.077 C 
BRANCH  33  34
HETATM   34  C22 UNL     1       1.352  60.840  71.492  1.00  0.00     0.012 A 
HETATM   35  C23 UNL     1       0.671  62.024  71.268  1.00  0.00     0.025 A 
HETATM   36  C24 UNL     1      -0.507  62.268  71.948  1.00  0.00     0.003 A 
HETATM   37  C25 UNL     1      -0.949  61.310  72.827  1.00  0.00     0.017 A 
HETATM   38  C26 UNL     1      -0.261  60.123  73.049  1.00  0.00     0.090 A 
HETATM   39  N5  UNL     1       0.898  59.922  72.355  1.00  0.00    -0.364 N 
HETATM   40  C27 UNL     1       1.606  58.684  72.596  1.00  0.00     0.155 C 
ENDBRANCH  33  34
ENDBRANCH  32  33
ENDBRANCH  30  32
ENDBRANCH  27  30
ENDBRANCH  26  27
ENDBRANCH  25  26
ENDBRANCH  24  25
ENDBRANCH  19  22
ENDBRANCH  13  16
ENDBRANCH  12  13
ENDBRANCH  11  12
ENDBRANCH  10  11
ENDBRANCH   7  10
ENDBRANCH   3   4
TORSDOF 16
ENDMDL
MODEL 5
REMARK VINA RESULT: -9.277147944      2.324      8.722
REMARK  16 active torsions:
REMARK  status: ('A' for Active; 'I' for Inactive)
REMARK    1  A    between atoms: C3_3  and  N1_4 
REMARK       I    between atoms: N1_4  and  C4_6 
REMARK       I    between atoms: C4_6  and  N2_8 
REMARK    2  A    between atoms: N2_8  and  C5_10 
REMARK    3  A    between atoms: C5_10  and  C6_11 
REMARK    4  A    between atoms: C6_11  and  C7_12 
REMARK    5  A    between atoms: C7_12  and  C8_13 
REMARK    6  A    between atoms: C8_13  and  C9_14 
REMARK    7  A    between atoms: C8_13  and  C11_16 
REMARK    8  A    between atoms: C13_20  and  C14_21 
REMARK    9  A    between atoms: C16_23  and  C17_24 
REMARK   10  A    between atoms: C17_24  and  C18_25 
REMARK   11  A    between atoms: C18_25  and  C19_26 
REMARK   12  A    between atoms: C19_26  and  O2_27 
REMARK   13  A    between atoms: C19_26  and  N4_29 
REMARK   14  A    between atoms: N4_29  and  C20_31 
REMARK   15  A    between atoms: C20_31  and  C21_32 
REMARK   16  A    between atoms: C21_32  and  C22_33 
ROOT
HETATM    1  C1  UNL     1      -0.021  62.942  70.521  1.00  0.00     0.014 C 
HETATM    2  C2  UNL     1      -0.088  63.056  71.724  1.00  0.00    -0.098 C 
HETATM    3  C3  UNL     1      -0.167  63.209  73.174  1.00  0.00     0.217 C 
ENDROOT
BRANCH   3   4
HETATM    4  N1  UNL     1       1.090  62.795  73.756  1.00  0.00    -0.333 N 
HETATM    5  C4  UNL     1       1.500  61.450  73.707  1.00  0.00     0.320 C 
HETATM    6  O1  UNL     1       0.773  60.598  73.156  1.00  0.00    -0.247 OA
HETATM    7  N2  UNL     1       2.747  61.053  74.287  1.00  0.00    -0.319 N 
ATOM      8  H2  UNL     1       3.332  61.758  74.736  1.00  0.00     0.170 HD
ATOM      9  H1  UNL     1       1.687  63.487  74.209  1.00  0.00     0.165 HD
BRANCH   7  10
HETATM   10  C5  UNL     1       3.192  59.707  74.256  1.00  0.00     0.092 C 
BRANCH  10  11
HETATM   11  C6  UNL     1       4.144  59.233  73.266  1.00  0.00     0.014 C 
BRANCH  11  12
HETATM   12  C7  UNL     1       4.260  59.799  71.926  1.00  0.00    -0.012 C 
BRANCH  12  13
HETATM   13  C8  UNL     1       3.279  59.643  70.852  1.00  0.00     0.064 C 
BRANCH  13  14
HETATM   14  C9  UNL     1       3.284  58.460  70.006  1.00  0.00    -0.024 C 
HETATM   15  C10 UNL     1       3.503  57.267  70.535  1.00  0.00     0.008 C 
ENDBRANCH  13  14
BRANCH  13  16
HETATM   16  C11 UNL     1       3.237  60.913  70.018  1.00  0.00    -0.029 A 
HETATM   17  C12 UNL     1       2.674  61.109  68.791  1.00  0.00     0.096 A 
HETATM   18  N3  UNL     1       2.873  62.417  68.429  1.00  0.00    -0.365 N 
HETATM   19  C13 UNL     1       3.542  63.093  69.367  1.00  0.00     0.038 A 
ATOM     20  H3  UNL     1       2.548  62.824  67.553  1.00  0.00     0.165 HD
HETATM   21  C28 UNL     1       3.771  62.122  70.377  1.00  0.00     0.039 A 
BRANCH  19  22
HETATM   22  C14 UNL     1       3.969  64.458  69.501  1.00  0.00    -0.035 C 
HETATM   23  C15 UNL     1       5.497  64.710  69.439  1.00  0.00     0.050 C 
HETATM   24  C16 UNL     1       3.283  65.542  69.655  1.00  0.00     0.009 C 
BRANCH  24  25
HETATM   25  C17 UNL     1       1.881  65.787  69.751  1.00  0.00     0.005 C 
BRANCH  25  26
HETATM   26  C18 UNL     1       1.209  66.810  69.365  1.00  0.00     0.055 C 
BRANCH  26  27
HETATM   27  C19 UNL     1       1.482  68.003  68.676  1.00  0.00     0.135 C 
BRANCH  27  28
HETATM   28  O2  UNL     1       2.132  68.913  69.388  1.00  0.00    -0.346 OA
ATOM     29  H2  UNL     1       1.814  69.801  69.276  1.00  0.00     0.219 HD
ENDBRANCH  27  28
BRANCH  27  30
HETATM   30  N4  UNL     1       1.219  68.456  67.388  1.00  0.00    -0.371 N 
ATOM     31  H4  UNL     1       0.648  69.293  67.268  1.00  0.00     0.161 HD
BRANCH  30  32
HETATM   32  C20 UNL     1       1.736  67.770  66.186  1.00  0.00     0.128 C 
BRANCH  32  33
HETATM   33  C21 UNL     1       3.217  67.612  66.170  1.00  0.00     0.077 C 
BRANCH  33  34
HETATM   34  C22 UNL     1       3.560  66.402  65.354  1.00  0.00     0.012 A 
HETATM   35  C23 UNL     1       3.318  65.147  65.884  1.00  0.00     0.025 A 
HETATM   36  C24 UNL     1       3.629  64.025  65.140  1.00  0.00     0.003 A 
HETATM   37  C25 UNL     1       4.173  64.214  63.894  1.00  0.00     0.017 A 
HETATM   38  C26 UNL     1       4.414  65.477  63.365  1.00  0.00     0.090 A 
HETATM   39  N5  UNL     1       4.091  66.559  64.134  1.00  0.00    -0.364 N 
HETATM   40  C27 UNL     1       4.349  67.867  63.575  1.00  0.00     0.155 C 
ENDBRANCH  33  34
ENDBRANCH  32  33
ENDBRANCH  30  32
ENDBRANCH  27  30
ENDBRANCH  26  27
ENDBRANCH  25  26
ENDBRANCH  24  25
ENDBRANCH  19  22
ENDBRANCH  13  16
ENDBRANCH  12  13
ENDBRANCH  11  12
ENDBRANCH  10  11
ENDBRANCH   7  10
ENDBRANCH   3   4
TORSDOF 16
ENDMDL
