MODEL 1
REMARK VINA RESULT: -10.262498942      0.000      0.000
REMARK  13 active torsions:
REMARK  status: ('A' for Active; 'I' for Inactive)
REMARK       I    between atoms: N1_3  and  C3_5 
REMARK       I    between atoms: C3_5  and  N5_32 
REMARK    1  A    between atoms: N2_6  and  C4_8 
REMARK    2  A    between atoms: C4_8  and  C5_9 
REMARK    3  A    between atoms: C5_9  and  C6_10 
REMARK    4  A    between atoms: C6_10  and  C7_11 
REMARK    5  A    between atoms: C7_11  and  N3_12 
REMARK    6  A    between atoms: C7_11  and  C17_24 
REMARK       I    between atoms: N3_12  and  C8_14 
REMARK    7  A    between atoms: C8_14  and  C9_16 
REMARK    8  A    between atoms: C9_16  and  C10_17 
REMARK    9  A    between atoms: C10_17  and  C11_18 
REMARK   10  A    between atoms: N4_28  and  C21_29 
REMARK   11  A    between atoms: N5_32  and  C24_34 
REMARK   12  A    between atoms: C24_34  and  C27_37 
REMARK   13  A    between atoms: C27_37  and  O2_38 
ROOT
HETATM    1  C7  UNL     1       2.940  66.425  67.959  1.00  0.00     0.119 C 
ENDROOT
BRANCH   1   2
HETATM    2  C6  UNL     1       3.408  66.104  69.349  1.00  0.00     0.032 C 
BRANCH   2   3
HETATM    3  C5  UNL     1       4.105  64.786  69.468  1.00  0.00     0.022 C 
BRANCH   3   4
HETATM    4  C4  UNL     1       3.386  63.721  68.636  1.00  0.00     0.138 C 
BRANCH   4   5
HETATM    5  N2  UNL     1       3.537  62.412  69.211  1.00  0.00    -0.226 N 
HETATM    6  C3  UNL     1       2.595  61.809  69.850  1.00  0.00     0.674 C 
HETATM    7  N1  UNL     1       2.725  60.520  70.424  1.00  0.00    -0.206 N 
HETATM    8  N5  UNL     1       1.350  62.479  69.989  1.00  0.00    -0.216 N 
HETATM    9  C2  UNL     1       3.762  60.123  71.063  1.00  0.00     0.074 C 
ATOM     10  H1  UNL     1       1.946  59.869  70.323  1.00  0.00     0.183 HD
HETATM   11  C1  UNL     1       4.971  60.961  71.290  1.00  0.00     0.055 C 
ATOM     12  H5  UNL     1       0.815  62.669  69.142  1.00  0.00     0.178 HD
ATOM     13  H2  UNL     1       4.434  61.937  69.107  1.00  0.00     0.177 HD
BRANCH   8  14
HETATM   14  C24 UNL     1       0.799  62.903  71.235  1.00  0.00     0.061 C 
HETATM   15  C25 UNL     1      -0.404  62.059  71.618  1.00  0.00     0.041 C 
HETATM   16  C26 UNL     1       1.784  62.805  72.381  1.00  0.00     0.041 C 
BRANCH  14  17
HETATM   17  C27 UNL     1       0.343  64.339  71.132  1.00  0.00     0.194 C 
BRANCH  17  18
HETATM   18  O2  UNL     1       0.096  64.652  69.800  1.00  0.00    -0.398 OA
ATOM     19  H2  UNL     1      -0.817  64.892  69.695  1.00  0.00     0.209 HD
ENDBRANCH  17  18
ENDBRANCH  14  17
ENDBRANCH   8  14
ENDBRANCH   4   5
ENDBRANCH   3   4
ENDBRANCH   2   3
ENDBRANCH   1   2
BRANCH   1  20
HETATM   20  N3  UNL     1       4.010  66.858  67.097  1.00  0.00    -0.352 N 
HETATM   21  C8  UNL     1       4.236  66.249  65.842  1.00  0.00     0.218 C 
HETATM   22  O1  UNL     1       3.483  65.309  65.479  1.00  0.00    -0.274 OA
ATOM     23  H3  UNL     1       4.617  67.621  67.398  1.00  0.00     0.163 HD
BRANCH  21  24
HETATM   24  C9  UNL     1       5.340  66.714  64.979  1.00  0.00     0.107 C 
BRANCH  24  25
HETATM   25  C10 UNL     1       5.086  68.160  64.607  1.00  0.00     0.047 C 
BRANCH  25  26
HETATM   26  C11 UNL     1       4.045  68.210  63.539  1.00  0.00    -0.058 A 
HETATM   27  C12 UNL     1       4.466  68.240  62.221  1.00  0.00     0.007 A 
HETATM   28  C13 UNL     1       3.480  68.286  61.248  1.00  0.00     0.001 A 
HETATM   29  C14 UNL     1       2.134  68.303  61.544  1.00  0.00     0.000 A 
HETATM   30  C15 UNL     1       1.733  68.273  62.858  1.00  0.00     0.001 A 
HETATM   31  C16 UNL     1       2.702  68.227  63.834  1.00  0.00     0.007 A 
ENDBRANCH  25  26
ENDBRANCH  24  25
ENDBRANCH  21  24
ENDBRANCH   1  20
BRANCH   1  32
HETATM   32  C17 UNL     1       1.839  67.400  67.895  1.00  0.00    -0.020 A 
HETATM   33  C18 UNL     1       2.041  68.659  68.395  1.00  0.00     0.012 A 
HETATM   34  C19 UNL     1       1.014  69.567  68.334  1.00  0.00     0.018 A 
HETATM   35  C20 UNL     1      -0.208  69.187  67.765  1.00  0.00     0.090 A 
HETATM   36  N4  UNL     1      -0.391  67.953  67.279  1.00  0.00    -0.366 N 
HETATM   37  C23 UNL     1       0.618  67.070  67.342  1.00  0.00     0.099 A 
BRANCH  36  38
HETATM   38  C21 UNL     1      -1.640  67.580  66.701  1.00  0.00     0.123 C 
HETATM   39  C22 UNL     1      -2.369  66.510  67.472  1.00  0.00     0.027 C 
ENDBRANCH  36  38
ENDBRANCH   1  32
TORSDOF 13
ENDMDL
MODEL 2
REMARK VINA RESULT: -10.119609125      0.838      1.136
REMARK  13 active torsions:
REMARK  status: ('A' for Active; 'I' for Inactive)
REMARK       I    between atoms: N1_3  and  C3_5 
REMARK       I    between atoms: C3_5  and  N5_32 
REMARK    1  A    between atoms: N2_6  and  C4_8 
REMARK    2  A    between atoms: C4_8  and  C5_9 
REMARK    3  A    between atoms: C5_9  and  C6_10 
REMARK    4  A    between atoms: C6_10  and  C7_11 
REMARK    5  A    between atoms: C7_11  and  N3_12 
REMARK    6  A    between atoms: C7_11  and  C17_24 
REMARK       I    between atoms: N3_12  and  C8_14 
REMARK    7  A    between atoms: C8_14  and  C9_16 
REMARK    8  A    between atoms: C9_16  and  C10_17 
REMARK    9  A    between atoms: C10_17  and  C11_18 
REMARK   10  A    between atoms: N4_28  and  C21_29 
REMARK   11  A    between atoms: N5_32  and  C24_34 
REMARK   12  A    between atoms: C24_34  and  C27_37 
REMARK   13  A    between atoms: C27_37  and  O2_38 
ROOT
HETATM    1  C7  UNL     1       3.086  66.226  68.035  1.00  0.00     0.119 C 
ENDROOT
BRANCH   1   2
HETATM    2  C6  UNL     1       3.603  65.955  69.419  1.00  0.00     0.032 C 
BRANCH   2   3
HETATM    3  C5  UNL     1       4.264  64.622  69.572  1.00  0.00     0.022 C 
BRANCH   3   4
HETATM    4  C4  UNL     1       3.560  63.570  68.709  1.00  0.00     0.138 C 
BRANCH   4   5
HETATM    5  N2  UNL     1       3.589  62.274  69.330  1.00  0.00    -0.226 N 
HETATM    6  C3  UNL     1       2.571  61.751  69.921  1.00  0.00     0.674 C 
HETATM    7  N1  UNL     1       2.581  60.476  70.539  1.00  0.00    -0.206 N 
HETATM    8  N5  UNL     1       1.365  62.500  69.956  1.00  0.00    -0.216 N 
HETATM    9  C2  UNL     1       3.547  60.037  71.257  1.00  0.00     0.074 C 
ATOM     10  H1  UNL     1       1.771  59.872  70.404  1.00  0.00     0.183 HD
HETATM   11  C1  UNL     1       4.789  60.806  71.542  1.00  0.00     0.055 C 
ATOM     12  H5  UNL     1       0.899  62.696  69.070  1.00  0.00     0.178 HD
ATOM     13  H2  UNL     1       4.459  61.742  69.301  1.00  0.00     0.177 HD
BRANCH   8  14
HETATM   14  C24 UNL     1       0.761  62.998  71.150  1.00  0.00     0.061 C 
HETATM   15  C25 UNL     1       0.320  64.441  70.980  1.00  0.00     0.041 C 
HETATM   16  C26 UNL     1      -0.465  62.213  71.564  1.00  0.00     0.041 C 
BRANCH  14  17
HETATM   17  C27 UNL     1       1.754  62.949  72.286  1.00  0.00     0.194 C 
BRANCH  17  18
HETATM   18  O2  UNL     1       1.384  61.951  73.182  1.00  0.00    -0.398 OA
ATOM     19  H2  UNL     1       1.623  62.211  74.063  1.00  0.00     0.209 HD
ENDBRANCH  17  18
ENDBRANCH  14  17
ENDBRANCH   8  14
ENDBRANCH   4   5
ENDBRANCH   3   4
ENDBRANCH   2   3
ENDBRANCH   1   2
BRANCH   1  20
HETATM   20  N3  UNL     1       4.108  66.712  67.144  1.00  0.00    -0.352 N 
HETATM   21  C8  UNL     1       4.301  66.143  65.866  1.00  0.00     0.218 C 
HETATM   22  O1  UNL     1       3.559  65.192  65.507  1.00  0.00    -0.274 OA
ATOM     23  H3  UNL     1       4.706  67.483  67.442  1.00  0.00     0.163 HD
BRANCH  21  24
HETATM   24  C9  UNL     1       5.356  66.661  64.973  1.00  0.00     0.107 C 
BRANCH  24  25
HETATM   25  C10 UNL     1       5.056  68.113  64.662  1.00  0.00     0.047 C 
BRANCH  25  26
HETATM   26  C11 UNL     1       3.992  68.175  63.619  1.00  0.00    -0.058 A 
HETATM   27  C12 UNL     1       4.382  68.204  62.291  1.00  0.00     0.007 A 
HETATM   28  C13 UNL     1       3.375  68.261  61.341  1.00  0.00     0.001 A 
HETATM   29  C14 UNL     1       2.036  68.290  61.667  1.00  0.00     0.000 A 
HETATM   30  C15 UNL     1       1.665  68.261  62.990  1.00  0.00     0.001 A 
HETATM   31  C16 UNL     1       2.656  68.204  63.943  1.00  0.00     0.007 A 
ENDBRANCH  25  26
ENDBRANCH  24  25
ENDBRANCH  21  24
ENDBRANCH   1  20
BRANCH   1  32
HETATM   32  C17 UNL     1       1.925  67.130  67.983  1.00  0.00    -0.020 A 
HETATM   33  C18 UNL     1       2.115  68.464  68.231  1.00  0.00     0.012 A 
HETATM   34  C19 UNL     1       1.033  69.306  68.181  1.00  0.00     0.018 A 
HETATM   35  C20 UNL     1      -0.232  68.784  67.879  1.00  0.00     0.090 A 
HETATM   36  N4  UNL     1      -0.403  67.478  67.639  1.00  0.00    -0.366 N 
HETATM   37  C23 UNL     1       0.662  66.661  67.689  1.00  0.00     0.099 A 
BRANCH  36  38
HETATM   38  C21 UNL     1      -1.695  66.961  67.332  1.00  0.00     0.123 C 
HETATM   39  C22 UNL     1      -2.483  67.823  66.380  1.00  0.00     0.027 C 
ENDBRANCH  36  38
ENDBRANCH   1  32
TORSDOF 13
ENDMDL
MODEL 3
REMARK VINA RESULT: -10.054975353      1.538      2.531
REMARK  13 active torsions:
REMARK  status: ('A' for Active; 'I' for Inactive)
REMARK       I    between atoms: N1_3  and  C3_5 
REMARK       I    between atoms: C3_5  and  N5_32 
REMARK    1  A    between atoms: N2_6  and  C4_8 
REMARK    2  A    between atoms: C4_8  and  C5_9 
REMARK    3  A    between atoms: C5_9  and  C6_10 
REMARK    4  A    between atoms: C6_10  and  C7_11 
REMARK    5  A    between atoms: C7_11  and  N3_12 
REMARK    6  A    between atoms: C7_11  and  C17_24 
REMARK       I    between atoms: N3_12  and  C8_14 
REMARK    7  A    between atoms: C8_14  and  C9_16 
REMARK    8  A    between atoms: C9_16  and  C10_17 
REMARK    9  A    between atoms: C10_17  and  C11_18 
REMARK   10  A    between atoms: N4_28  and  C21_29 
REMARK   11  A    between atoms: N5_32  and  C24_34 
REMARK   12  A    between atoms: C24_34  and  C27_37 
REMARK   13  A    between atoms: C27_37  and  O2_38 
ROOT
HETATM    1  C7  UNL     1       3.081  66.275  67.980  1.00  0.00     0.119 C 
ENDROOT
BRANCH   1   2
HETATM    2  C6  UNL     1       3.609  66.010  69.360  1.00  0.00     0.032 C 
BRANCH   2   3
HETATM    3  C5  UNL     1       4.805  65.112  69.393  1.00  0.00     0.022 C 
BRANCH   3   4
HETATM    4  C4  UNL     1       4.405  63.700  69.833  1.00  0.00     0.138 C 
BRANCH   4   5
HETATM    5  N2  UNL     1       3.223  63.717  70.650  1.00  0.00    -0.226 N 
HETATM    6  C3  UNL     1       2.820  62.700  71.330  1.00  0.00     0.674 C 
HETATM    7  N1  UNL     1       1.658  62.698  72.140  1.00  0.00    -0.206 N 
HETATM    8  N5  UNL     1       3.589  61.508  71.263  1.00  0.00    -0.216 N 
HETATM    9  C2  UNL     1       0.545  63.232  71.796  1.00  0.00     0.074 C 
ATOM     10  H1  UNL     1       1.710  62.245  73.052  1.00  0.00     0.183 HD
HETATM   11  C1  UNL     1       0.321  63.926  70.499  1.00  0.00     0.055 C 
ATOM     12  H5  UNL     1       4.538  61.531  71.636  1.00  0.00     0.178 HD
ATOM     13  H2  UNL     1       2.676  64.578  70.693  1.00  0.00     0.177 HD
BRANCH   8  14
HETATM   14  C24 UNL     1       3.121  60.280  70.708  1.00  0.00     0.061 C 
HETATM   15  C25 UNL     1       2.087  59.629  71.610  1.00  0.00     0.041 C 
HETATM   16  C26 UNL     1       2.470  60.453  69.352  1.00  0.00     0.041 C 
BRANCH  14  17
HETATM   17  C27 UNL     1       4.273  59.315  70.553  1.00  0.00     0.194 C 
BRANCH  17  18
HETATM   18  O2  UNL     1       4.006  58.440  69.505  1.00  0.00    -0.398 OA
ATOM     19  H2  UNL     1       3.222  58.723  69.048  1.00  0.00     0.209 HD
ENDBRANCH  17  18
ENDBRANCH  14  17
ENDBRANCH   8  14
ENDBRANCH   4   5
ENDBRANCH   3   4
ENDBRANCH   2   3
ENDBRANCH   1   2
BRANCH   1  20
HETATM   20  N3  UNL     1       4.091  66.779  67.084  1.00  0.00    -0.352 N 
HETATM   21  C8  UNL     1       4.354  66.153  65.845  1.00  0.00     0.218 C 
HETATM   22  O1  UNL     1       3.687  65.136  65.525  1.00  0.00    -0.274 OA
ATOM     23  H3  UNL     1       4.628  67.604  67.350  1.00  0.00     0.163 HD
BRANCH  21  24
HETATM   24  C9  UNL     1       5.395  66.692  64.947  1.00  0.00     0.107 C 
BRANCH  24  25
HETATM   25  C10 UNL     1       5.071  68.140  64.645  1.00  0.00     0.047 C 
BRANCH  25  26
HETATM   26  C11 UNL     1       4.005  68.191  63.602  1.00  0.00    -0.058 A 
HETATM   27  C12 UNL     1       4.395  68.242  62.275  1.00  0.00     0.007 A 
HETATM   28  C13 UNL     1       3.387  68.288  61.325  1.00  0.00     0.001 A 
HETATM   29  C14 UNL     1       2.048  68.284  61.651  1.00  0.00     0.000 A 
HETATM   30  C15 UNL     1       1.677  68.233  62.973  1.00  0.00     0.001 A 
HETATM   31  C16 UNL     1       2.669  68.187  63.926  1.00  0.00     0.007 A 
ENDBRANCH  25  26
ENDBRANCH  24  25
ENDBRANCH  21  24
ENDBRANCH   1  20
BRANCH   1  32
HETATM   32  C17 UNL     1       1.906  67.161  67.934  1.00  0.00    -0.020 A 
HETATM   33  C18 UNL     1       2.082  68.503  68.141  1.00  0.00     0.012 A 
HETATM   34  C19 UNL     1       0.986  69.327  68.098  1.00  0.00     0.018 A 
HETATM   35  C20 UNL     1      -0.279  68.779  67.844  1.00  0.00     0.090 A 
HETATM   36  N4  UNL     1      -0.435  67.465  67.644  1.00  0.00    -0.366 N 
HETATM   37  C23 UNL     1       0.642  66.665  67.688  1.00  0.00     0.099 A 
BRANCH  36  38
HETATM   38  C21 UNL     1      -1.728  66.921  67.386  1.00  0.00     0.123 C 
HETATM   39  C22 UNL     1      -2.576  67.775  66.480  1.00  0.00     0.027 C 
ENDBRANCH  36  38
ENDBRANCH   1  32
TORSDOF 13
ENDMDL
MODEL 4
REMARK VINA RESULT: -9.971224380      1.365      2.394
REMARK  13 active torsions:
REMARK  status: ('A' for Active; 'I' for Inactive)
REMARK       I    between atoms: N1_3  and  C3_5 
REMARK       I    between atoms: C3_5  and  N5_32 
REMARK    1  A    between atoms: N2_6  and  C4_8 
REMARK    2  A    between atoms: C4_8  and  C5_9 
REMARK    3  A    between atoms: C5_9  and  C6_10 
REMARK    4  A    between atoms: C6_10  and  C7_11 
REMARK    5  A    between atoms: C7_11  and  N3_12 
REMARK    6  A    between atoms: C7_11  and  C17_24 
REMARK       I    between atoms: N3_12  and  C8_14 
REMARK    7  A    between atoms: C8_14  and  C9_16 
REMARK    8  A    between atoms: C9_16  and  C10_17 
REMARK    9  A    between atoms: C10_17  and  C11_18 
REMARK   10  A    between atoms: N4_28  and  C21_29 
REMARK   11  A    between atoms: N5_32  and  C24_34 
REMARK   12  A    between atoms: C24_34  and  C27_37 
REMARK   13  A    between atoms: C27_37  and  O2_38 
ROOT
HETATM    1  C7  UNL     1       2.962  66.562  67.846  1.00  0.00     0.119 C 
ENDROOT
BRANCH   1   2
HETATM    2  C6  UNL     1       3.509  66.261  69.211  1.00  0.00     0.032 C 
BRANCH   2   3
HETATM    3  C5  UNL     1       4.406  65.066  69.258  1.00  0.00     0.022 C 
BRANCH   3   4
HETATM    4  C4  UNL     1       3.593  63.777  69.111  1.00  0.00     0.138 C 
BRANCH   4   5
HETATM    5  N2  UNL     1       2.561  63.687  70.108  1.00  0.00    -0.226 N 
HETATM    6  C3  UNL     1       2.628  62.898  71.124  1.00  0.00     0.674 C 
HETATM    7  N1  UNL     1       1.621  62.796  72.115  1.00  0.00    -0.206 N 
HETATM    8  N5  UNL     1       3.782  62.080  71.257  1.00  0.00    -0.216 N 
HETATM    9  C2  UNL     1       0.366  62.779  71.862  1.00  0.00     0.074 C 
ATOM     10  H1  UNL     1       1.914  62.731  73.091  1.00  0.00     0.183 HD
HETATM   11  C1  UNL     1      -0.206  62.863  70.490  1.00  0.00     0.055 C 
ATOM     12  H5  UNL     1       4.679  62.543  71.407  1.00  0.00     0.178 HD
ATOM     13  H2  UNL     1       1.735  64.277  70.005  1.00  0.00     0.177 HD
BRANCH   8  14
HETATM   14  C24 UNL     1       3.769  60.655  71.194  1.00  0.00     0.061 C 
HETATM   15  C25 UNL     1       2.868  60.164  70.075  1.00  0.00     0.041 C 
HETATM   16  C26 UNL     1       5.139  60.062  70.944  1.00  0.00     0.041 C 
BRANCH  14  17
HETATM   17  C27 UNL     1       3.245  60.089  72.493  1.00  0.00     0.194 C 
BRANCH  17  18
HETATM   18  O2  UNL     1       3.653  60.897  73.548  1.00  0.00    -0.398 OA
ATOM     19  H2  UNL     1       4.316  60.444  74.056  1.00  0.00     0.209 HD
ENDBRANCH  17  18
ENDBRANCH  14  17
ENDBRANCH   8  14
ENDBRANCH   4   5
ENDBRANCH   3   4
ENDBRANCH   2   3
ENDBRANCH   1   2
BRANCH   1  20
HETATM   20  N3  UNL     1       3.973  67.027  66.931  1.00  0.00    -0.352 N 
HETATM   21  C8  UNL     1       4.343  66.269  65.797  1.00  0.00     0.218 C 
HETATM   22  O1  UNL     1       3.773  65.167  65.591  1.00  0.00    -0.274 OA
ATOM     23  H3  UNL     1       4.432  67.921  67.105  1.00  0.00     0.163 HD
BRANCH  21  24
HETATM   24  C9  UNL     1       5.383  66.770  64.876  1.00  0.00     0.107 C 
BRANCH  24  25
HETATM   25  C10 UNL     1       5.072  68.212  64.534  1.00  0.00     0.047 C 
BRANCH  25  26
HETATM   26  C11 UNL     1       4.017  68.244  63.479  1.00  0.00    -0.058 A 
HETATM   27  C12 UNL     1       4.421  68.298  62.157  1.00  0.00     0.007 A 
HETATM   28  C13 UNL     1       3.422  68.325  61.196  1.00  0.00     0.001 A 
HETATM   29  C14 UNL     1       2.080  68.302  61.507  1.00  0.00     0.000 A 
HETATM   30  C15 UNL     1       1.696  68.248  62.825  1.00  0.00     0.001 A 
HETATM   31  C16 UNL     1       2.677  68.220  63.789  1.00  0.00     0.007 A 
ENDBRANCH  25  26
ENDBRANCH  24  25
ENDBRANCH  21  24
ENDBRANCH   1  20
BRANCH   1  32
HETATM   32  C17 UNL     1       1.828  67.501  67.834  1.00  0.00    -0.020 A 
HETATM   33  C18 UNL     1       2.007  68.759  68.345  1.00  0.00     0.012 A 
HETATM   34  C19 UNL     1       0.949  69.633  68.333  1.00  0.00     0.018 A 
HETATM   35  C20 UNL     1      -0.280  69.220  67.802  1.00  0.00     0.090 A 
HETATM   36  N4  UNL     1      -0.440  67.987  67.305  1.00  0.00    -0.366 N 
HETATM   37  C23 UNL     1       0.600  67.138  67.321  1.00  0.00     0.099 A 
BRANCH  36  38
HETATM   38  C21 UNL     1      -1.696  67.581  66.767  1.00  0.00     0.123 C 
HETATM   39  C22 UNL     1      -2.320  66.419  67.495  1.00  0.00     0.027 C 
ENDBRANCH  36  38
ENDBRANCH   1  32
TORSDOF 13
ENDMDL
MODEL 5
REMARK VINA RESULT: -9.898975414      1.786      2.950
REMARK  13 active torsions:
REMARK  status: ('A' for Active; 'I' for Inactive)
REMARK       I    between atoms: N1_3  and  C3_5 
REMARK       I    between atoms: C3_5  and  N5_32 
REMARK    1  A    between atoms: N2_6  and  C4_8 
REMARK    2  A    between atoms: C4_8  and  C5_9 
REMARK    3  A    between atoms: C5_9  and  C6_10 
REMARK    4  A    between atoms: C6_10  and  C7_11 
REMARK    5  A    between atoms: C7_11  and  N3_12 
REMARK    6  A    between atoms: C7_11  and  C17_24 
REMARK       I    between atoms: N3_12  and  C8_14 
REMARK    7  A    between atoms: C8_14  and  C9_16 
REMARK    8  A    between atoms: C9_16  and  C10_17 
REMARK    9  A    between atoms: C10_17  and  C11_18 
REMARK   10  A    between atoms: N4_28  and  C21_29 
REMARK   11  A    between atoms: N5_32  and  C24_34 
REMARK   12  A    between atoms: C24_34  and  C27_37 
REMARK   13  A    between atoms: C27_37  and  O2_38 
ROOT
HETATM    1  C7  UNL     1       3.413  65.654  68.351  1.00  0.00     0.119 C 
ENDROOT
BRANCH   1   2
HETATM    2  C6  UNL     1       4.081  65.556  69.692  1.00  0.00     0.032 C 
BRANCH   2   3
HETATM    3  C5  UNL     1       4.804  64.267  69.920  1.00  0.00     0.022 C 
BRANCH   3   4
HETATM    4  C4  UNL     1       3.837  63.083  69.824  1.00  0.00     0.138 C 
BRANCH   4   5
HETATM    5  N2  UNL     1       2.824  63.146  70.841  1.00  0.00    -0.226 N 
HETATM    6  C3  UNL     1       2.783  62.344  71.849  1.00  0.00     0.674 C 
HETATM    7  N1  UNL     1       1.793  62.390  72.860  1.00  0.00    -0.206 N 
HETATM    8  N5  UNL     1       3.795  61.351  71.949  1.00  0.00    -0.216 N 
HETATM    9  C2  UNL     1       0.546  62.577  72.632  1.00  0.00     0.074 C 
ATOM     10  H1  UNL     1       2.090  62.268  73.828  1.00  0.00     0.183 HD
HETATM   11  C1  UNL     1      -0.032  62.769  71.274  1.00  0.00     0.055 C 
ATOM     12  H5  UNL     1       4.756  61.663  72.085  1.00  0.00     0.178 HD
ATOM     13  H2  UNL     1       2.101  63.861  70.762  1.00  0.00     0.177 HD
BRANCH   8  14
HETATM   14  C24 UNL     1       3.554  59.947  71.874  1.00  0.00     0.061 C 
HETATM   15  C25 UNL     1       3.811  59.274  73.210  1.00  0.00     0.041 C 
HETATM   16  C26 UNL     1       2.130  59.611  71.483  1.00  0.00     0.041 C 
BRANCH  14  17
HETATM   17  C27 UNL     1       4.477  59.322  70.855  1.00  0.00     0.194 C 
BRANCH  17  18
HETATM   18  O2  UNL     1       5.643  60.075  70.764  1.00  0.00    -0.398 OA
ATOM     19  H2  UNL     1       6.151  59.783  70.016  1.00  0.00     0.209 HD
ENDBRANCH  17  18
ENDBRANCH  14  17
ENDBRANCH   8  14
ENDBRANCH   4   5
ENDBRANCH   3   4
ENDBRANCH   2   3
ENDBRANCH   1   2
BRANCH   1  20
HETATM   20  N3  UNL     1       4.135  66.493  67.430  1.00  0.00    -0.352 N 
HETATM   21  C8  UNL     1       4.465  66.046  66.131  1.00  0.00     0.218 C 
HETATM   22  O1  UNL     1       4.117  64.889  65.781  1.00  0.00    -0.274 OA
ATOM     23  H3  UNL     1       4.414  67.430  67.720  1.00  0.00     0.163 HD
BRANCH  21  24
HETATM   24  C9  UNL     1       5.205  66.928  65.207  1.00  0.00     0.107 C 
BRANCH  24  25
HETATM   25  C10 UNL     1       4.458  68.240  65.089  1.00  0.00     0.047 C 
BRANCH  25  26
HETATM   26  C11 UNL     1       3.699  68.253  63.805  1.00  0.00    -0.058 A 
HETATM   27  C12 UNL     1       2.320  68.156  63.864  1.00  0.00     0.007 A 
HETATM   28  C13 UNL     1       1.637  68.171  62.657  1.00  0.00     0.001 A 
HETATM   29  C14 UNL     1       2.271  68.275  61.438  1.00  0.00     0.000 A 
HETATM   30  C15 UNL     1       3.641  68.371  61.397  1.00  0.00     0.001 A 
HETATM   31  C16 UNL     1       4.330  68.357  62.588  1.00  0.00     0.007 A 
ENDBRANCH  25  26
ENDBRANCH  24  25
ENDBRANCH  21  24
ENDBRANCH   1  20
BRANCH   1  32
HETATM   32  C17 UNL     1       2.006  66.083  68.399  1.00  0.00    -0.020 A 
HETATM   33  C18 UNL     1       1.275  65.828  69.529  1.00  0.00     0.012 A 
HETATM   34  C19 UNL     1      -0.037  66.228  69.572  1.00  0.00     0.018 A 
HETATM   35  C20 UNL     1      -0.593  66.885  68.466  1.00  0.00     0.090 A 
HETATM   36  N4  UNL     1       0.134  67.129  67.368  1.00  0.00    -0.366 N 
HETATM   37  C23 UNL     1       1.416  66.733  67.334  1.00  0.00     0.099 A 
BRANCH  36  38
HETATM   38  C21 UNL     1      -0.445  67.799  66.251  1.00  0.00     0.123 C 
HETATM   39  C22 UNL     1      -1.907  68.118  66.426  1.00  0.00     0.027 C 
ENDBRANCH  36  38
ENDBRANCH   1  32
TORSDOF 13
ENDMDL
