MODEL 1
REMARK VINA RESULT: -10.516798112      0.000      0.000
REMARK  17 active torsions:
REMARK  status: ('A' for Active; 'I' for Inactive)
REMARK    1  A    between atoms: C2_2  and  C3_3 
REMARK    2  A    between atoms: C3_3  and  C4_4 
REMARK    3  A    between atoms: C3_3  and  C6_6 
REMARK    4  A    between atoms: C6_6  and  C7_7 
REMARK    5  A    between atoms: C7_7  and  N3_13 
REMARK    6  A    between atoms: N1_8  and  N2_10 
REMARK    7  A    between atoms: N3_13  and  C9_15 
REMARK    8  A    between atoms: C9_15  and  C10_16 
REMARK    9  A    between atoms: C10_16  and  C11_17 
REMARK   10  A    between atoms: C15_21  and  C16_22 
REMARK   11  A    between atoms: C16_22  and  C17_23 
REMARK   12  A    between atoms: C21_27  and  C22_28 
REMARK   13  A    between atoms: C22_28  and  N4_29 
REMARK   14  A    between atoms: N4_29  and  C25_32 
REMARK   15  A    between atoms: C25_32  and  C26_33 
REMARK   16  A    between atoms: C26_33  and  C27_34 
REMARK   17  A    between atoms: C27_34  and  N5_35 
ROOT
HETATM    1  C11 UNL     1       4.025  60.908  70.731  1.00  0.00    -0.056 A 
HETATM    2  C12 UNL     1       3.040  60.671  69.788  1.00  0.00     0.007 A 
HETATM    3  C13 UNL     1       2.688  61.714  68.961  1.00  0.00     0.001 A 
HETATM    4  C14 UNL     1       3.270  62.957  69.036  1.00  0.00     0.007 A 
HETATM    5  C15 UNL     1       4.252  63.200  69.972  1.00  0.00    -0.053 A 
HETATM    6  C30 UNL     1       4.615  62.167  70.807  1.00  0.00     0.014 A 
ENDROOT
BRANCH   5   7
HETATM    7  C16 UNL     1       4.922  64.498  70.102  1.00  0.00     0.077 C 
BRANCH   7   8
HETATM    8  C17 UNL     1       4.424  65.536  69.172  1.00  0.00    -0.053 A 
HETATM    9  C18 UNL     1       3.480  66.425  69.622  1.00  0.00     0.007 A 
HETATM   10  C19 UNL     1       3.001  67.387  68.759  1.00  0.00     0.001 A 
HETATM   11  C20 UNL     1       3.450  67.469  67.471  1.00  0.00     0.009 A 
HETATM   12  C21 UNL     1       4.393  66.587  67.009  1.00  0.00    -0.032 A 
HETATM   13  C29 UNL     1       4.869  65.626  67.874  1.00  0.00     0.016 A 
BRANCH  12  14
HETATM   14  C22 UNL     1       4.882  66.661  65.635  1.00  0.00     0.275 C 
BRANCH  14  15
HETATM   15  N4  UNL     1       4.035  65.933  64.664  1.00  0.00    -0.071 N 
HETATM   16  C23 UNL     1       4.382  64.539  64.667  1.00  0.00     0.272 C 
HETATM   17  C24 UNL     1       2.635  66.042  65.111  1.00  0.00     0.272 C 
BRANCH  15  18
HETATM   18  C25 UNL     1       4.162  66.600  63.413  1.00  0.00     0.238 C 
BRANCH  18  19
HETATM   19  C26 UNL     1       3.839  68.042  63.347  1.00  0.00     0.047 C 
BRANCH  19  20
HETATM   20  C27 UNL     1       2.940  68.462  62.222  1.00  0.00     0.123 C 
BRANCH  20  21
HETATM   21  N5  UNL     1       1.581  68.502  62.795  1.00  0.00    -0.367 N 
HETATM   22  C28 UNL     1       0.551  68.475  61.986  1.00  0.00     0.196 C 
HETATM   23  N6  UNL     1       0.745  68.410  60.581  1.00  0.00    -0.067 NA
HETATM   24  N7  UNL     1      -0.724  68.517  62.589  1.00  0.00    -0.067 NA
ATOM     25  H5  UNL     1       1.446  68.550  63.804  1.00  0.00     0.161 HD
ENDBRANCH  20  21
ENDBRANCH  19  20
ENDBRANCH  18  19
ENDBRANCH  15  18
ENDBRANCH  14  15
ENDBRANCH  12  14
ENDBRANCH   7   8
ENDBRANCH   5   7
BRANCH   1  26
HETATM   26  C10 UNL     1       4.476  59.860  71.644  1.00  0.00     0.058 C 
BRANCH  26  27
HETATM   27  C9  UNL     1       4.290  60.279  73.070  1.00  0.00     0.125 C 
BRANCH  27  28
HETATM   28  N3  UNL     1       2.984  60.036  73.602  1.00  0.00    -0.378 N 
ATOM     29  H3  UNL     1       2.594  59.095  73.646  1.00  0.00     0.160 HD
BRANCH  28  30
HETATM   30  C7  UNL     1       2.241  61.180  74.073  1.00  0.00     0.091 C 
HETATM   31  N1  UNL     1       2.073  61.284  75.338  1.00  0.00    -0.294 N 
ATOM     32  H1  UNL     1       1.546  62.086  75.682  1.00  0.00     0.188 HD
BRANCH  30  33
HETATM   33  C6  UNL     1       1.705  62.160  73.138  1.00  0.00     0.082 C 
BRANCH  33  34
HETATM   34  C3  UNL     1       0.715  61.682  72.140  1.00  0.00    -0.008 C 
BRANCH  34  35
HETATM   35  C2  UNL     1      -0.266  60.705  72.684  1.00  0.00     0.000 C 
HETATM   36  C1  UNL     1      -1.489  61.441  73.244  1.00  0.00     0.005 C 
ENDBRANCH  34  35
BRANCH  34  37
HETATM   37  C4  UNL     1      -0.012  62.784  71.396  1.00  0.00     0.000 C 
HETATM   38  C5  UNL     1       0.777  64.063  71.381  1.00  0.00     0.005 C 
ENDBRANCH  34  37
ENDBRANCH  33  34
ENDBRANCH  30  33
BRANCH  31  39
HETATM   39  N2  UNL     1       2.558  60.385  76.266  1.00  0.00    -0.340 N 
HETATM   40  C8  UNL     1       2.184  60.445  77.671  1.00  0.00     0.167 C 
ATOM     41  H2  UNL     1       3.199  59.655  75.957  1.00  0.00     0.179 HD
ENDBRANCH  31  39
ENDBRANCH  28  30
ENDBRANCH  27  28
ENDBRANCH  26  27
ENDBRANCH   1  26
TORSDOF 17
ENDMDL
MODEL 2
REMARK VINA RESULT: -10.452757843      1.769      2.486
REMARK  17 active torsions:
REMARK  status: ('A' for Active; 'I' for Inactive)
REMARK    1  A    between atoms: C2_2  and  C3_3 
REMARK    2  A    between atoms: C3_3  and  C4_4 
REMARK    3  A    between atoms: C3_3  and  C6_6 
REMARK    4  A    between atoms: C6_6  and  C7_7 
REMARK    5  A    between atoms: C7_7  and  N3_13 
REMARK    6  A    between atoms: N1_8  and  N2_10 
REMARK    7  A    between atoms: N3_13  and  C9_15 
REMARK    8  A    between atoms: C9_15  and  C10_16 
REMARK    9  A    between atoms: C10_16  and  C11_17 
REMARK   10  A    between atoms: C15_21  and  C16_22 
REMARK   11  A    between atoms: C16_22  and  C17_23 
REMARK   12  A    between atoms: C21_27  and  C22_28 
REMARK   13  A    between atoms: C22_28  and  N4_29 
REMARK   14  A    between atoms: N4_29  and  C25_32 
REMARK   15  A    between atoms: C25_32  and  C26_33 
REMARK   16  A    between atoms: C26_33  and  C27_34 
REMARK   17  A    between atoms: C27_34  and  N5_35 
ROOT
HETATM    1  C11 UNL     1       3.775  60.952  71.145  1.00  0.00    -0.056 A 
HETATM    2  C12 UNL     1       2.846  60.656  70.162  1.00  0.00     0.007 A 
HETATM    3  C13 UNL     1       2.659  61.584  69.163  1.00  0.00     0.001 A 
HETATM    4  C14 UNL     1       3.349  62.771  69.108  1.00  0.00     0.007 A 
HETATM    5  C15 UNL     1       4.277  63.073  70.081  1.00  0.00    -0.053 A 
HETATM    6  C30 UNL     1       4.475  62.155  71.088  1.00  0.00     0.014 A 
ENDROOT
BRANCH   5   7
HETATM    7  C16 UNL     1       5.056  64.316  70.078  1.00  0.00     0.077 C 
BRANCH   7   8
HETATM    8  C17 UNL     1       4.463  65.405  69.272  1.00  0.00    -0.053 A 
HETATM    9  C18 UNL     1       3.520  66.216  69.853  1.00  0.00     0.007 A 
HETATM   10  C19 UNL     1       2.952  67.225  69.106  1.00  0.00     0.001 A 
HETATM   11  C20 UNL     1       3.312  67.430  67.803  1.00  0.00     0.009 A 
HETATM   12  C21 UNL     1       4.253  66.626  67.211  1.00  0.00    -0.032 A 
HETATM   13  C29 UNL     1       4.818  65.618  67.960  1.00  0.00     0.016 A 
BRANCH  12  14
HETATM   14  C22 UNL     1       4.648  66.830  65.820  1.00  0.00     0.275 C 
BRANCH  14  15
HETATM   15  N4  UNL     1       3.822  66.073  64.851  1.00  0.00    -0.071 N 
HETATM   16  C23 UNL     1       4.232  66.391  63.512  1.00  0.00     0.272 C 
HETATM   17  C24 UNL     1       4.075  64.637  65.063  1.00  0.00     0.272 C 
BRANCH  15  18
HETATM   18  C25 UNL     1       2.459  66.341  65.162  1.00  0.00     0.238 C 
BRANCH  18  19
HETATM   19  C26 UNL     1       1.805  67.501  64.519  1.00  0.00     0.047 C 
BRANCH  19  20
HETATM   20  C27 UNL     1       0.505  67.941  65.125  1.00  0.00     0.123 C 
BRANCH  20  21
HETATM   21  N5  UNL     1       0.236  66.991  66.220  1.00  0.00    -0.367 N 
HETATM   22  C28 UNL     1      -0.609  67.331  67.162  1.00  0.00     0.196 C 
HETATM   23  N6  UNL     1      -1.252  68.595  67.125  1.00  0.00    -0.067 NA
HETATM   24  N7  UNL     1      -0.826  66.383  68.185  1.00  0.00    -0.067 NA
ATOM     25  H5  UNL     1       0.701  66.083  66.244  1.00  0.00     0.161 HD
ENDBRANCH  20  21
ENDBRANCH  19  20
ENDBRANCH  18  19
ENDBRANCH  15  18
ENDBRANCH  14  15
ENDBRANCH  12  14
ENDBRANCH   7   8
ENDBRANCH   5   7
BRANCH   1  26
HETATM   26  C10 UNL     1       4.054  60.024  72.238  1.00  0.00     0.058 C 
BRANCH  26  27
HETATM   27  C9  UNL     1       2.951  60.046  73.251  1.00  0.00     0.125 C 
BRANCH  27  28
HETATM   28  N3  UNL     1       3.022  61.119  74.194  1.00  0.00    -0.378 N 
ATOM     29  H3  UNL     1       3.806  61.208  74.840  1.00  0.00     0.160 HD
BRANCH  28  30
HETATM   30  C7  UNL     1       1.938  62.071  74.192  1.00  0.00     0.091 C 
HETATM   31  N1  UNL     1       1.348  62.284  75.308  1.00  0.00    -0.294 N 
ATOM     32  H1  UNL     1       0.577  62.951  75.319  1.00  0.00     0.188 HD
BRANCH  30  33
HETATM   33  C6  UNL     1       1.538  62.746  72.965  1.00  0.00     0.082 C 
BRANCH  33  34
HETATM   34  C3  UNL     1       0.141  62.550  72.500  1.00  0.00    -0.008 C 
BRANCH  34  35
HETATM   35  C2  UNL     1      -0.105  63.031  71.114  1.00  0.00     0.000 C 
HETATM   36  C1  UNL     1       0.503  64.426  70.924  1.00  0.00     0.005 C 
ENDBRANCH  34  35
BRANCH  34  37
HETATM   37  C4  UNL     1      -0.383  61.138  72.658  1.00  0.00     0.000 C 
HETATM   38  C5  UNL     1      -1.629  61.094  73.498  1.00  0.00     0.005 C 
ENDBRANCH  34  37
ENDBRANCH  33  34
ENDBRANCH  30  33
BRANCH  31  39
HETATM   39  N2  UNL     1       1.686  61.671  76.498  1.00  0.00    -0.340 N 
HETATM   40  C8  UNL     1       1.103  62.074  77.769  1.00  0.00     0.167 C 
ATOM     41  H2  UNL     1       2.365  60.911  76.486  1.00  0.00     0.179 HD
ENDBRANCH  31  39
ENDBRANCH  28  30
ENDBRANCH  27  28
ENDBRANCH  26  27
ENDBRANCH   1  26
TORSDOF 17
ENDMDL
MODEL 3
REMARK VINA RESULT: -10.308806297      1.588      2.181
REMARK  17 active torsions:
REMARK  status: ('A' for Active; 'I' for Inactive)
REMARK    1  A    between atoms: C2_2  and  C3_3 
REMARK    2  A    between atoms: C3_3  and  C4_4 
REMARK    3  A    between atoms: C3_3  and  C6_6 
REMARK    4  A    between atoms: C6_6  and  C7_7 
REMARK    5  A    between atoms: C7_7  and  N3_13 
REMARK    6  A    between atoms: N1_8  and  N2_10 
REMARK    7  A    between atoms: N3_13  and  C9_15 
REMARK    8  A    between atoms: C9_15  and  C10_16 
REMARK    9  A    between atoms: C10_16  and  C11_17 
REMARK   10  A    between atoms: C15_21  and  C16_22 
REMARK   11  A    between atoms: C16_22  and  C17_23 
REMARK   12  A    between atoms: C21_27  and  C22_28 
REMARK   13  A    between atoms: C22_28  and  N4_29 
REMARK   14  A    between atoms: N4_29  and  C25_32 
REMARK   15  A    between atoms: C25_32  and  C26_33 
REMARK   16  A    between atoms: C26_33  and  C27_34 
REMARK   17  A    between atoms: C27_34  and  N5_35 
ROOT
HETATM    1  C11 UNL     1       4.119  60.707  70.710  1.00  0.00    -0.056 A 
HETATM    2  C12 UNL     1       2.940  60.568  69.997  1.00  0.00     0.007 A 
HETATM    3  C13 UNL     1       2.431  61.692  69.385  1.00  0.00     0.001 A 
HETATM    4  C14 UNL     1       3.042  62.921  69.454  1.00  0.00     0.007 A 
HETATM    5  C15 UNL     1       4.216  63.067  70.160  1.00  0.00    -0.053 A 
HETATM    6  C30 UNL     1       4.737  61.953  70.779  1.00  0.00     0.014 A 
ENDROOT
BRANCH   5   7
HETATM    7  C16 UNL     1       4.926  64.347  70.267  1.00  0.00     0.077 C 
BRANCH   7   8
HETATM    8  C17 UNL     1       4.437  65.393  69.342  1.00  0.00    -0.053 A 
HETATM    9  C18 UNL     1       3.479  66.269  69.786  1.00  0.00     0.007 A 
HETATM   10  C19 UNL     1       3.008  67.239  68.927  1.00  0.00     0.001 A 
HETATM   11  C20 UNL     1       3.480  67.341  67.648  1.00  0.00     0.009 A 
HETATM   12  C21 UNL     1       4.438  66.472  67.192  1.00  0.00    -0.032 A 
HETATM   13  C29 UNL     1       4.906  65.503  68.053  1.00  0.00     0.016 A 
BRANCH  12  14
HETATM   14  C22 UNL     1       4.953  66.566  65.829  1.00  0.00     0.275 C 
BRANCH  14  15
HETATM   15  N4  UNL     1       3.911  66.406  64.790  1.00  0.00    -0.071 N 
HETATM   16  C23 UNL     1       4.512  65.948  63.568  1.00  0.00     0.272 C 
HETATM   17  C24 UNL     1       2.976  65.361  65.241  1.00  0.00     0.272 C 
BRANCH  15  18
HETATM   18  C25 UNL     1       3.205  67.639  64.708  1.00  0.00     0.238 C 
BRANCH  18  19
HETATM   19  C26 UNL     1       1.751  67.603  64.439  1.00  0.00     0.047 C 
BRANCH  19  20
HETATM   20  C27 UNL     1       1.278  68.425  63.277  1.00  0.00     0.123 C 
BRANCH  20  21
HETATM   21  N5  UNL     1       2.420  68.492  62.346  1.00  0.00    -0.367 N 
HETATM   22  C28 UNL     1       2.189  68.484  61.057  1.00  0.00     0.196 C 
HETATM   23  N6  UNL     1       0.859  68.411  60.569  1.00  0.00    -0.067 NA
HETATM   24  N7  UNL     1       3.319  68.548  60.215  1.00  0.00    -0.067 NA
ATOM     25  H5  UNL     1       3.375  68.543  62.702  1.00  0.00     0.161 HD
ENDBRANCH  20  21
ENDBRANCH  19  20
ENDBRANCH  18  19
ENDBRANCH  15  18
ENDBRANCH  14  15
ENDBRANCH  12  14
ENDBRANCH   7   8
ENDBRANCH   5   7
BRANCH   1  26
HETATM   26  C10 UNL     1       4.743  59.570  71.382  1.00  0.00     0.058 C 
BRANCH  26  27
HETATM   27  C9  UNL     1       3.778  58.432  71.514  1.00  0.00     0.125 C 
BRANCH  27  28
HETATM   28  N3  UNL     1       3.617  57.933  72.845  1.00  0.00    -0.378 N 
ATOM     29  H3  UNL     1       4.378  57.460  73.332  1.00  0.00     0.160 HD
BRANCH  28  30
HETATM   30  C7  UNL     1       2.331  58.127  73.471  1.00  0.00     0.091 C 
HETATM   31  N1  UNL     1       2.158  57.598  74.623  1.00  0.00    -0.294 N 
ATOM     32  H1  UNL     1       1.252  57.725  75.073  1.00  0.00     0.188 HD
BRANCH  30  33
HETATM   33  C6  UNL     1       1.282  58.887  72.803  1.00  0.00     0.082 C 
BRANCH  33  34
HETATM   34  C3  UNL     1       0.923  60.207  73.379  1.00  0.00    -0.008 C 
BRANCH  34  35
HETATM   35  C2  UNL     1       2.097  61.035  73.765  1.00  0.00     0.000 C 
HETATM   36  C1  UNL     1       1.933  62.463  73.234  1.00  0.00     0.005 C 
ENDBRANCH  34  35
BRANCH  34  37
HETATM   37  C4  UNL     1      -0.030  61.025  72.532  1.00  0.00     0.000 C 
HETATM   38  C5  UNL     1      -1.368  61.191  73.197  1.00  0.00     0.005 C 
ENDBRANCH  34  37
ENDBRANCH  33  34
ENDBRANCH  30  33
BRANCH  31  39
HETATM   39  N2  UNL     1       3.116  56.869  75.298  1.00  0.00    -0.340 N 
HETATM   40  C8  UNL     1       2.818  55.589  75.923  1.00  0.00     0.167 C 
ATOM     41  H2  UNL     1       4.064  57.239  75.361  1.00  0.00     0.179 HD
ENDBRANCH  31  39
ENDBRANCH  28  30
ENDBRANCH  27  28
ENDBRANCH  26  27
ENDBRANCH   1  26
TORSDOF 17
ENDMDL
MODEL 4
REMARK VINA RESULT: -10.216143006      2.265      2.866
REMARK  17 active torsions:
REMARK  status: ('A' for Active; 'I' for Inactive)
REMARK    1  A    between atoms: C2_2  and  C3_3 
REMARK    2  A    between atoms: C3_3  and  C4_4 
REMARK    3  A    between atoms: C3_3  and  C6_6 
REMARK    4  A    between atoms: C6_6  and  C7_7 
REMARK    5  A    between atoms: C7_7  and  N3_13 
REMARK    6  A    between atoms: N1_8  and  N2_10 
REMARK    7  A    between atoms: N3_13  and  C9_15 
REMARK    8  A    between atoms: C9_15  and  C10_16 
REMARK    9  A    between atoms: C10_16  and  C11_17 
REMARK   10  A    between atoms: C15_21  and  C16_22 
REMARK   11  A    between atoms: C16_22  and  C17_23 
REMARK   12  A    between atoms: C21_27  and  C22_28 
REMARK   13  A    between atoms: C22_28  and  N4_29 
REMARK   14  A    between atoms: N4_29  and  C25_32 
REMARK   15  A    between atoms: C25_32  and  C26_33 
REMARK   16  A    between atoms: C26_33  and  C27_34 
REMARK   17  A    between atoms: C27_34  and  N5_35 
ROOT
HETATM    1  C11 UNL     1       4.161  60.742  70.722  1.00  0.00    -0.056 A 
HETATM    2  C12 UNL     1       3.085  60.553  69.871  1.00  0.00     0.007 A 
HETATM    3  C13 UNL     1       2.640  61.642  69.155  1.00  0.00     0.001 A 
HETATM    4  C14 UNL     1       3.217  62.886  69.253  1.00  0.00     0.007 A 
HETATM    5  C15 UNL     1       4.289  63.082  70.096  1.00  0.00    -0.053 A 
HETATM    6  C30 UNL     1       4.745  62.003  70.820  1.00  0.00     0.014 A 
ENDROOT
BRANCH   5   7
HETATM    7  C16 UNL     1       4.959  64.379  70.241  1.00  0.00     0.077 C 
BRANCH   7   8
HETATM    8  C17 UNL     1       4.434  65.439  69.352  1.00  0.00    -0.053 A 
HETATM    9  C18 UNL     1       3.486  66.301  69.842  1.00  0.00     0.007 A 
HETATM   10  C19 UNL     1       2.982  67.283  69.017  1.00  0.00     0.001 A 
HETATM   11  C20 UNL     1       3.410  67.410  67.726  1.00  0.00     0.009 A 
HETATM   12  C21 UNL     1       4.356  66.554  67.222  1.00  0.00    -0.032 A 
HETATM   13  C29 UNL     1       4.858  65.574  68.050  1.00  0.00     0.016 A 
BRANCH  12  14
HETATM   14  C22 UNL     1       4.823  66.675  65.844  1.00  0.00     0.275 C 
BRANCH  14  15
HETATM   15  N4  UNL     1       3.905  66.074  64.851  1.00  0.00    -0.071 N 
HETATM   16  C23 UNL     1       4.260  66.517  63.532  1.00  0.00     0.272 C 
HETATM   17  C24 UNL     1       4.085  64.613  64.892  1.00  0.00     0.272 C 
BRANCH  15  18
HETATM   18  C25 UNL     1       2.578  66.377  65.269  1.00  0.00     0.238 C 
BRANCH  18  19
HETATM   19  C26 UNL     1       1.818  67.400  64.519  1.00  0.00     0.047 C 
BRANCH  19  20
HETATM   20  C27 UNL     1       0.527  67.846  65.139  1.00  0.00     0.123 C 
BRANCH  20  21
HETATM   21  N5  UNL     1       0.273  66.904  66.246  1.00  0.00    -0.367 N 
HETATM   22  C28 UNL     1      -0.454  67.300  67.261  1.00  0.00     0.196 C 
HETATM   23  N6  UNL     1      -0.986  68.616  67.291  1.00  0.00    -0.067 NA
HETATM   24  N7  UNL     1      -0.663  66.359  68.291  1.00  0.00    -0.067 NA
ATOM     25  H5  UNL     1       0.659  65.960  66.222  1.00  0.00     0.161 HD
ENDBRANCH  20  21
ENDBRANCH  19  20
ENDBRANCH  18  19
ENDBRANCH  15  18
ENDBRANCH  14  15
ENDBRANCH  12  14
ENDBRANCH   7   8
ENDBRANCH   5   7
BRANCH   1  26
HETATM   26  C10 UNL     1       4.712  59.645  71.512  1.00  0.00     0.058 C 
BRANCH  26  27
HETATM   27  C9  UNL     1       3.758  58.492  71.565  1.00  0.00     0.125 C 
BRANCH  27  28
HETATM   28  N3  UNL     1       3.540  57.952  72.871  1.00  0.00    -0.378 N 
ATOM     29  H3  UNL     1       4.275  57.448  73.367  1.00  0.00     0.160 HD
BRANCH  28  30
HETATM   30  C7  UNL     1       2.237  58.149  73.458  1.00  0.00     0.091 C 
HETATM   31  N1  UNL     1       1.553  57.100  73.722  1.00  0.00    -0.294 N 
ATOM     32  H1  UNL     1       0.628  57.227  74.132  1.00  0.00     0.188 HD
BRANCH  30  33
HETATM   33  C6  UNL     1       1.732  59.489  73.724  1.00  0.00     0.082 C 
BRANCH  33  34
HETATM   34  C3  UNL     1       0.518  59.922  72.987  1.00  0.00    -0.008 C 
BRANCH  34  35
HETATM   35  C2  UNL     1      -0.722  59.906  73.808  1.00  0.00     0.000 C 
HETATM   36  C1  UNL     1      -1.630  61.078  73.415  1.00  0.00     0.005 C 
ENDBRANCH  34  35
BRANCH  34  37
HETATM   37  C4  UNL     1       0.653  61.254  72.279  1.00  0.00     0.000 C 
HETATM   38  C5  UNL     1       1.671  62.139  72.941  1.00  0.00     0.005 C 
ENDBRANCH  34  37
ENDBRANCH  33  34
ENDBRANCH  30  33
BRANCH  31  39
HETATM   39  N2  UNL     1       1.982  55.809  73.488  1.00  0.00    -0.340 N 
HETATM   40  C8  UNL     1       2.076  54.820  74.552  1.00  0.00     0.167 C 
ATOM     41  H2  UNL     1       2.242  55.540  72.540  1.00  0.00     0.179 HD
ENDBRANCH  31  39
ENDBRANCH  28  30
ENDBRANCH  27  28
ENDBRANCH  26  27
ENDBRANCH   1  26
TORSDOF 17
ENDMDL
MODEL 5
REMARK VINA RESULT: -10.065661226      2.285      9.563
REMARK  17 active torsions:
REMARK  status: ('A' for Active; 'I' for Inactive)
REMARK    1  A    between atoms: C2_2  and  C3_3 
REMARK    2  A    between atoms: C3_3  and  C4_4 
REMARK    3  A    between atoms: C3_3  and  C6_6 
REMARK    4  A    between atoms: C6_6  and  C7_7 
REMARK    5  A    between atoms: C7_7  and  N3_13 
REMARK    6  A    between atoms: N1_8  and  N2_10 
REMARK    7  A    between atoms: N3_13  and  C9_15 
REMARK    8  A    between atoms: C9_15  and  C10_16 
REMARK    9  A    between atoms: C10_16  and  C11_17 
REMARK   10  A    between atoms: C15_21  and  C16_22 
REMARK   11  A    between atoms: C16_22  and  C17_23 
REMARK   12  A    between atoms: C21_27  and  C22_28 
REMARK   13  A    between atoms: C22_28  and  N4_29 
REMARK   14  A    between atoms: N4_29  and  C25_32 
REMARK   15  A    between atoms: C25_32  and  C26_33 
REMARK   16  A    between atoms: C26_33  and  C27_34 
REMARK   17  A    between atoms: C27_34  and  N5_35 
ROOT
HETATM    1  C11 UNL     1       3.361  66.884  68.673  1.00  0.00    -0.056 A 
HETATM    2  C12 UNL     1       4.104  66.943  67.506  1.00  0.00     0.007 A 
HETATM    3  C13 UNL     1       5.135  66.041  67.363  1.00  0.00     0.001 A 
HETATM    4  C14 UNL     1       5.445  65.103  68.318  1.00  0.00     0.007 A 
HETATM    5  C15 UNL     1       4.709  65.038  69.482  1.00  0.00    -0.053 A 
HETATM    6  C30 UNL     1       3.675  65.934  69.640  1.00  0.00     0.014 A 
ENDROOT
BRANCH   5   7
HETATM    7  C16 UNL     1       4.978  64.056  70.538  1.00  0.00     0.077 C 
BRANCH   7   8
HETATM    8  C17 UNL     1       4.227  62.789  70.398  1.00  0.00    -0.053 A 
HETATM    9  C18 UNL     1       3.370  62.646  69.336  1.00  0.00     0.007 A 
HETATM   10  C19 UNL     1       2.656  61.475  69.205  1.00  0.00     0.001 A 
HETATM   11  C20 UNL     1       2.789  60.459  70.110  1.00  0.00     0.009 A 
HETATM   12  C21 UNL     1       3.642  60.590  71.176  1.00  0.00    -0.032 A 
HETATM   13  C29 UNL     1       4.354  61.763  71.305  1.00  0.00     0.016 A 
BRANCH  12  14
HETATM   14  C22 UNL     1       3.796  59.516  72.153  1.00  0.00     0.275 C 
BRANCH  14  15
HETATM   15  N4  UNL     1       2.816  59.577  73.261  1.00  0.00    -0.071 N 
HETATM   16  C23 UNL     1       3.151  58.599  74.259  1.00  0.00     0.272 C 
HETATM   17  C24 UNL     1       2.925  60.905  73.890  1.00  0.00     0.272 C 
BRANCH  15  18
HETATM   18  C25 UNL     1       1.521  59.455  72.684  1.00  0.00     0.238 C 
BRANCH  18  19
HETATM   19  C26 UNL     1       0.423  60.278  73.237  1.00  0.00     0.047 C 
BRANCH  19  20
HETATM   20  C27 UNL     1      -0.210  61.253  72.289  1.00  0.00     0.123 C 
BRANCH  20  21
HETATM   21  N5  UNL     1      -0.587  62.418  73.111  1.00  0.00    -0.367 N 
HETATM   22  C28 UNL     1       0.041  63.553  72.928  1.00  0.00     0.196 C 
HETATM   23  N6  UNL     1       1.068  63.655  71.955  1.00  0.00    -0.067 NA
HETATM   24  N7  UNL     1      -0.361  64.633  73.744  1.00  0.00    -0.067 NA
ATOM     25  H5  UNL     1      -1.325  62.340  73.810  1.00  0.00     0.161 HD
ENDBRANCH  20  21
ENDBRANCH  19  20
ENDBRANCH  18  19
ENDBRANCH  15  18
ENDBRANCH  14  15
ENDBRANCH  12  14
ENDBRANCH   7   8
ENDBRANCH   5   7
BRANCH   1  26
HETATM   26  C10 UNL     1       2.239  67.790  68.911  1.00  0.00     0.058 C 
BRANCH  26  27
HETATM   27  C9  UNL     1       2.065  68.737  67.764  1.00  0.00     0.125 C 
BRANCH  27  28
HETATM   28  N3  UNL     1       0.856  68.562  67.019  1.00  0.00    -0.378 N 
ATOM     29  H3  UNL     1       0.110  69.256  67.046  1.00  0.00     0.160 HD
BRANCH  28  30
HETATM   30  C7  UNL     1       0.737  67.362  66.227  1.00  0.00     0.091 C 
HETATM   31  N1  UNL     1      -0.150  66.513  66.585  1.00  0.00    -0.294 N 
ATOM     32  H1  UNL     1      -0.241  65.659  66.036  1.00  0.00     0.188 HD
BRANCH  30  33
HETATM   33  C6  UNL     1       1.603  67.137  65.077  1.00  0.00     0.082 C 
BRANCH  33  34
HETATM   34  C3  UNL     1       2.074  68.331  64.331  1.00  0.00    -0.008 C 
BRANCH  34  35
HETATM   35  C2  UNL     1       3.548  68.523  64.371  1.00  0.00     0.000 C 
HETATM   36  C1  UNL     1       4.102  68.655  62.947  1.00  0.00     0.005 C 
ENDBRANCH  34  35
BRANCH  34  37
HETATM   37  C4  UNL     1       1.580  68.416  62.901  1.00  0.00     0.000 C 
HETATM   38  C5  UNL     1       0.139  68.838  62.831  1.00  0.00     0.005 C 
ENDBRANCH  34  37
ENDBRANCH  33  34
ENDBRANCH  30  33
BRANCH  31  39
HETATM   39  N2  UNL     1      -0.994  66.676  67.665  1.00  0.00    -0.340 N 
HETATM   40  C8  UNL     1      -2.369  67.129  67.513  1.00  0.00     0.167 C 
ATOM     41  H2  UNL     1      -0.643  66.472  68.601  1.00  0.00     0.179 HD
ENDBRANCH  31  39
ENDBRANCH  28  30
ENDBRANCH  27  28
ENDBRANCH  26  27
ENDBRANCH   1  26
TORSDOF 17
ENDMDL
