MODEL 1
REMARK VINA RESULT: -9.601982083      0.000      0.000
REMARK  16 active torsions:
REMARK  status: ('A' for Active; 'I' for Inactive)
REMARK    1  A    between atoms: C2_2  and  C3_3 
REMARK    2  A    between atoms: C2_2  and  N1_10 
REMARK    3  A    between atoms: C3_3  and  C4_4 
REMARK       I    between atoms: N1_10  and  C10_12 
REMARK       I    between atoms: C10_12  and  N3_16 
REMARK    4  A    between atoms: N3_16  and  C11_18 
REMARK    5  A    between atoms: C11_18  and  C12_19 
REMARK    6  A    between atoms: C12_19  and  C13_20 
REMARK    7  A    between atoms: C13_20  and  C14_21 
REMARK    8  A    between atoms: C14_21  and  N4_22 
REMARK    9  A    between atoms: N4_22  and  C17_25 
REMARK   10  A    between atoms: C17_25  and  C18_26 
REMARK   11  A    between atoms: C18_26  and  C19_27 
REMARK   12  A    between atoms: C19_27  and  C20_28 
REMARK   13  A    between atoms: C20_28  and  N5_29 
REMARK       I    between atoms: N5_29  and  C21_31 
REMARK   14  A    between atoms: C21_31  and  C22_33 
REMARK   15  A    between atoms: C23_34  and  C24_35 
REMARK   16  A    between atoms: C25_36  and  C26_37 
ROOT
HETATM    1  C14 UNL     1       1.029  62.253  72.431  1.00  0.00     0.201 C 
ENDROOT
BRANCH   1   2
HETATM    2  C13 UNL     1       0.908  62.498  71.001  1.00  0.00     0.022 C 
BRANCH   2   3
HETATM    3  C12 UNL     1       0.233  63.630  70.395  1.00  0.00    -0.005 C 
BRANCH   3   4
HETATM    4  C11 UNL     1       0.359  65.020  70.857  1.00  0.00     0.165 C 
BRANCH   4   5
HETATM    5  N3  UNL     1       1.462  65.771  70.284  1.00  0.00    -0.223 N 
HETATM    6  C10 UNL     1       1.332  66.944  69.510  1.00  0.00     0.668 C 
HETATM    7  N1  UNL     1       0.340  67.038  68.517  1.00  0.00    -0.222 N 
HETATM    8  N2  UNL     1       2.146  67.908  69.739  1.00  0.00    -0.235 N 
ATOM      9  H1  UNL     1      -0.450  66.398  68.589  1.00  0.00     0.178 HD
ATOM     10  H22 UNL     1       2.052  68.755  69.180  1.00  0.00     0.174 HD
ATOM     11  H21 UNL     1       2.865  67.839  70.459  1.00  0.00     0.174 HD
ATOM     12  H3  UNL     1       2.406  65.422  70.454  1.00  0.00     0.178 HD
BRANCH   7  13
HETATM   13  C2  UNL     1       0.342  67.959  67.405  1.00  0.00     0.099 C 
HETATM   14  C1  UNL     1      -1.039  68.625  67.340  1.00  0.00     0.033 C 
BRANCH  13  15
HETATM   15  C3  UNL     1       0.724  67.265  66.150  1.00  0.00     0.063 C 
BRANCH  15  16
HETATM   16  C4  UNL     1       1.912  67.784  65.469  1.00  0.00    -0.056 A 
HETATM   17  C5  UNL     1       1.975  67.832  64.069  1.00  0.00     0.007 A 
HETATM   18  C6  UNL     1       3.079  68.306  63.396  1.00  0.00     0.001 A 
HETATM   19  C7  UNL     1       4.181  68.758  64.089  1.00  0.00     0.000 A 
HETATM   20  C8  UNL     1       4.125  68.713  65.461  1.00  0.00     0.001 A 
HETATM   21  C9  UNL     1       3.007  68.234  66.155  1.00  0.00     0.007 A 
ENDBRANCH  15  16
ENDBRANCH  13  15
ENDBRANCH   7  13
ENDBRANCH   4   5
ENDBRANCH   3   4
ENDBRANCH   2   3
ENDBRANCH   1   2
BRANCH   1  22
HETATM   22  N4  UNL     1       0.032  61.986  73.353  1.00  0.00    -0.055 N 
HETATM   23  C15 UNL     1      -1.297  61.695  72.952  1.00  0.00     0.277 C 
HETATM   24  C16 UNL     1      -0.019  63.022  74.405  1.00  0.00     0.277 C 
BRANCH  22  25
HETATM   25  C17 UNL     1       0.464  60.773  74.143  1.00  0.00     0.242 C 
BRANCH  25  26
HETATM   26  C18 UNL     1      -0.291  59.582  73.740  1.00  0.00     0.030 C 
BRANCH  26  27
HETATM   27  C19 UNL     1       0.453  58.293  73.690  1.00  0.00     0.021 C 
BRANCH  27  28
HETATM   28  C20 UNL     1       1.843  58.302  73.171  1.00  0.00     0.123 C 
BRANCH  28  29
HETATM   29  N5  UNL     1       2.045  58.966  71.916  1.00  0.00    -0.358 N 
HETATM   30  C21 UNL     1       3.364  58.866  71.314  1.00  0.00     0.241 C 
HETATM   31  O1  UNL     1       4.188  58.202  71.974  1.00  0.00    -0.269 OA
ATOM     32  H5  UNL     1       1.294  59.487  71.464  1.00  0.00     0.162 HD
BRANCH  30  33
HETATM   33  C22 UNL     1       3.576  59.524  70.057  1.00  0.00     0.074 C 
HETATM   34  C23 UNL     1       4.030  60.742  69.820  1.00  0.00     0.005 C 
BRANCH  34  35
HETATM   35  C24 UNL     1       4.425  61.716  70.798  1.00  0.00     0.001 C 
HETATM   36  C25 UNL     1       4.581  62.987  70.656  1.00  0.00     0.011 C 
BRANCH  36  37
HETATM   37  C26 UNL     1       4.442  63.900  69.554  1.00  0.00    -0.040 A 
HETATM   38  C27 UNL     1       5.144  65.071  69.523  1.00  0.00    -0.012 A 
HETATM   39  C28 UNL     1       4.822  65.817  68.294  1.00  0.00     0.055 A 
HETATM   40  C29 UNL     1       3.858  64.978  67.591  1.00  0.00    -0.022 A 
HETATM   41  C30 UNL     1       3.674  63.889  68.358  1.00  0.00     0.007 A 
ENDBRANCH  36  37
ENDBRANCH  34  35
ENDBRANCH  30  33
ENDBRANCH  28  29
ENDBRANCH  27  28
ENDBRANCH  26  27
ENDBRANCH  25  26
ENDBRANCH  22  25
ENDBRANCH   1  22
TORSDOF 16
ENDMDL
MODEL 2
REMARK VINA RESULT: -9.571690761      2.566      6.625
REMARK  16 active torsions:
REMARK  status: ('A' for Active; 'I' for Inactive)
REMARK    1  A    between atoms: C2_2  and  C3_3 
REMARK    2  A    between atoms: C2_2  and  N1_10 
REMARK    3  A    between atoms: C3_3  and  C4_4 
REMARK       I    between atoms: N1_10  and  C10_12 
REMARK       I    between atoms: C10_12  and  N3_16 
REMARK    4  A    between atoms: N3_16  and  C11_18 
REMARK    5  A    between atoms: C11_18  and  C12_19 
REMARK    6  A    between atoms: C12_19  and  C13_20 
REMARK    7  A    between atoms: C13_20  and  C14_21 
REMARK    8  A    between atoms: C14_21  and  N4_22 
REMARK    9  A    between atoms: N4_22  and  C17_25 
REMARK   10  A    between atoms: C17_25  and  C18_26 
REMARK   11  A    between atoms: C18_26  and  C19_27 
REMARK   12  A    between atoms: C19_27  and  C20_28 
REMARK   13  A    between atoms: C20_28  and  N5_29 
REMARK       I    between atoms: N5_29  and  C21_31 
REMARK   14  A    between atoms: C21_31  and  C22_33 
REMARK   15  A    between atoms: C23_34  and  C24_35 
REMARK   16  A    between atoms: C25_36  and  C26_37 
ROOT
HETATM    1  C14 UNL     1       0.264  67.235  66.233  1.00  0.00     0.201 C 
ENDROOT
BRANCH   1   2
HETATM    2  C13 UNL     1       1.214  67.882  65.340  1.00  0.00     0.022 C 
BRANCH   2   3
HETATM    3  C12 UNL     1       0.898  68.450  64.042  1.00  0.00    -0.005 C 
BRANCH   3   4
HETATM    4  C11 UNL     1       1.676  68.211  62.817  1.00  0.00     0.165 C 
BRANCH   4   5
HETATM    5  N3  UNL     1       3.116  68.343  62.956  1.00  0.00    -0.223 N 
HETATM    6  C10 UNL     1       4.011  67.277  63.192  1.00  0.00     0.668 C 
HETATM    7  N1  UNL     1       3.697  66.275  64.128  1.00  0.00    -0.222 N 
HETATM    8  N2  UNL     1       5.110  67.260  62.534  1.00  0.00    -0.235 N 
ATOM      9  H1  UNL     1       2.715  66.166  64.378  1.00  0.00     0.178 HD
ATOM     10  H22 UNL     1       5.757  66.490  62.705  1.00  0.00     0.174 HD
ATOM     11  H21 UNL     1       5.337  67.987  61.855  1.00  0.00     0.174 HD
ATOM     12  H3  UNL     1       3.511  69.280  62.877  1.00  0.00     0.178 HD
BRANCH   7  13
HETATM   13  C2  UNL     1       4.641  65.387  64.765  1.00  0.00     0.099 C 
HETATM   14  C1  UNL     1       3.861  64.193  65.330  1.00  0.00     0.033 C 
BRANCH  13  15
HETATM   15  C3  UNL     1       5.434  66.113  65.788  1.00  0.00     0.063 C 
BRANCH  15  16
HETATM   16  C4  UNL     1       4.859  66.150  67.135  1.00  0.00    -0.056 A 
HETATM   17  C5  UNL     1       5.319  65.282  68.137  1.00  0.00     0.007 A 
HETATM   18  C6  UNL     1       4.796  65.284  69.410  1.00  0.00     0.001 A 
HETATM   19  C7  UNL     1       3.784  66.154  69.751  1.00  0.00     0.000 A 
HETATM   20  C8  UNL     1       3.329  67.006  68.773  1.00  0.00     0.001 A 
HETATM   21  C9  UNL     1       3.854  67.014  67.475  1.00  0.00     0.007 A 
ENDBRANCH  15  16
ENDBRANCH  13  15
ENDBRANCH   7  13
ENDBRANCH   4   5
ENDBRANCH   3   4
ENDBRANCH   2   3
ENDBRANCH   1   2
BRANCH   1  22
HETATM   22  N4  UNL     1      -0.660  67.816  67.084  1.00  0.00    -0.055 N 
HETATM   23  C15 UNL     1      -1.898  68.319  66.610  1.00  0.00     0.277 C 
HETATM   24  C16 UNL     1      -0.034  68.852  67.932  1.00  0.00     0.277 C 
BRANCH  22  25
HETATM   25  C17 UNL     1      -1.042  66.775  68.110  1.00  0.00     0.242 C 
BRANCH  25  26
HETATM   26  C18 UNL     1       0.110  66.395  68.935  1.00  0.00     0.030 C 
BRANCH  26  27
HETATM   27  C19 UNL     1      -0.158  66.068  70.363  1.00  0.00     0.021 C 
BRANCH  27  28
HETATM   28  C20 UNL     1       0.454  64.841  70.930  1.00  0.00     0.123 C 
BRANCH  28  29
HETATM   29  N5  UNL     1       1.252  64.059  70.031  1.00  0.00    -0.358 N 
HETATM   30  C21 UNL     1       1.617  62.719  70.459  1.00  0.00     0.241 C 
HETATM   31  O1  UNL     1       1.186  62.397  71.584  1.00  0.00    -0.269 OA
ATOM     32  H5  UNL     1       1.551  64.428  69.129  1.00  0.00     0.162 HD
BRANCH  30  33
HETATM   33  C22 UNL     1       2.412  61.926  69.566  1.00  0.00     0.074 C 
HETATM   34  C23 UNL     1       3.677  61.561  69.678  1.00  0.00     0.005 C 
BRANCH  34  35
HETATM   35  C24 UNL     1       4.572  61.887  70.753  1.00  0.00     0.001 C 
HETATM   36  C25 UNL     1       4.674  61.338  71.914  1.00  0.00     0.011 C 
BRANCH  36  37
HETATM   37  C26 UNL     1       3.995  60.259  72.579  1.00  0.00    -0.040 A 
HETATM   38  C27 UNL     1       3.363  60.460  73.773  1.00  0.00    -0.012 A 
HETATM   39  C28 UNL     1       2.752  59.202  74.235  1.00  0.00     0.055 A 
HETATM   40  C29 UNL     1       3.079  58.227  73.201  1.00  0.00    -0.022 A 
HETATM   41  C30 UNL     1       3.795  58.886  72.273  1.00  0.00     0.007 A 
ENDBRANCH  36  37
ENDBRANCH  34  35
ENDBRANCH  30  33
ENDBRANCH  28  29
ENDBRANCH  27  28
ENDBRANCH  26  27
ENDBRANCH  25  26
ENDBRANCH  22  25
ENDBRANCH   1  22
TORSDOF 16
ENDMDL
MODEL 3
REMARK VINA RESULT: -9.265905437      3.271      9.198
REMARK  16 active torsions:
REMARK  status: ('A' for Active; 'I' for Inactive)
REMARK    1  A    between atoms: C2_2  and  C3_3 
REMARK    2  A    between atoms: C2_2  and  N1_10 
REMARK    3  A    between atoms: C3_3  and  C4_4 
REMARK       I    between atoms: N1_10  and  C10_12 
REMARK       I    between atoms: C10_12  and  N3_16 
REMARK    4  A    between atoms: N3_16  and  C11_18 
REMARK    5  A    between atoms: C11_18  and  C12_19 
REMARK    6  A    between atoms: C12_19  and  C13_20 
REMARK    7  A    between atoms: C13_20  and  C14_21 
REMARK    8  A    between atoms: C14_21  and  N4_22 
REMARK    9  A    between atoms: N4_22  and  C17_25 
REMARK   10  A    between atoms: C17_25  and  C18_26 
REMARK   11  A    between atoms: C18_26  and  C19_27 
REMARK   12  A    between atoms: C19_27  and  C20_28 
REMARK   13  A    between atoms: C20_28  and  N5_29 
REMARK       I    between atoms: N5_29  and  C21_31 
REMARK   14  A    between atoms: C21_31  and  C22_33 
REMARK   15  A    between atoms: C23_34  and  C24_35 
REMARK   16  A    between atoms: C25_36  and  C26_37 
ROOT
HETATM    1  C14 UNL     1       1.083  68.058  68.332  1.00  0.00     0.201 C 
ENDROOT
BRANCH   1   2
HETATM    2  C13 UNL     1       1.871  67.145  69.148  1.00  0.00     0.022 C 
BRANCH   2   3
HETATM    3  C12 UNL     1       3.234  66.732  68.872  1.00  0.00    -0.005 C 
BRANCH   3   4
HETATM    4  C11 UNL     1       4.075  65.962  69.800  1.00  0.00     0.165 C 
BRANCH   4   5
HETATM    5  N3  UNL     1       4.255  64.561  69.462  1.00  0.00    -0.223 N 
HETATM    6  C10 UNL     1       3.216  63.612  69.346  1.00  0.00     0.668 C 
HETATM    7  N1  UNL     1       2.176  63.574  70.292  1.00  0.00    -0.222 N 
HETATM    8  N2  UNL     1       3.259  62.792  68.362  1.00  0.00    -0.235 N 
ATOM      9  H1  UNL     1       2.023  64.415  70.848  1.00  0.00     0.178 HD
ATOM     10  H22 UNL     1       2.508  62.107  68.279  1.00  0.00     0.174 HD
ATOM     11  H21 UNL     1       4.014  62.820  67.677  1.00  0.00     0.174 HD
ATOM     12  H3  UNL     1       5.208  64.237  69.294  1.00  0.00     0.178 HD
BRANCH   7  13
HETATM   13  C2  UNL     1       1.304  62.451  70.546  1.00  0.00     0.099 C 
HETATM   14  C1  UNL     1      -0.134  62.977  70.633  1.00  0.00     0.033 C 
BRANCH  13  15
HETATM   15  C3  UNL     1       1.739  61.715  71.759  1.00  0.00     0.063 C 
BRANCH  15  16
HETATM   16  C4  UNL     1       2.210  60.345  71.541  1.00  0.00    -0.056 A 
HETATM   17  C5  UNL     1       2.998  60.024  70.426  1.00  0.00     0.007 A 
HETATM   18  C6  UNL     1       3.451  58.747  70.186  1.00  0.00     0.001 A 
HETATM   19  C7  UNL     1       3.139  57.719  71.049  1.00  0.00     0.000 A 
HETATM   20  C8  UNL     1       2.366  58.027  72.143  1.00  0.00     0.001 A 
HETATM   21  C9  UNL     1       1.901  59.323  72.397  1.00  0.00     0.007 A 
ENDBRANCH  15  16
ENDBRANCH  13  15
ENDBRANCH   7  13
ENDBRANCH   4   5
ENDBRANCH   3   4
ENDBRANCH   2   3
ENDBRANCH   1   2
BRANCH   1  22
HETATM   22  N4  UNL     1      -0.131  67.832  67.704  1.00  0.00    -0.055 N 
HETATM   23  C15 UNL     1      -1.010  68.895  67.376  1.00  0.00     0.277 C 
HETATM   24  C16 UNL     1      -0.909  66.786  68.398  1.00  0.00     0.277 C 
BRANCH  22  25
HETATM   25  C17 UNL     1       0.166  67.164  66.382  1.00  0.00     0.242 C 
BRANCH  25  26
HETATM   26  C18 UNL     1       0.676  68.129  65.403  1.00  0.00     0.030 C 
BRANCH  26  27
HETATM   27  C19 UNL     1      -0.034  68.207  64.096  1.00  0.00     0.021 C 
BRANCH  27  28
HETATM   28  C20 UNL     1       0.756  68.544  62.886  1.00  0.00     0.123 C 
BRANCH  28  29
HETATM   29  N5  UNL     1       2.170  68.691  63.074  1.00  0.00    -0.358 N 
HETATM   30  C21 UNL     1       3.018  68.544  61.902  1.00  0.00     0.241 C 
HETATM   31  O1  UNL     1       2.404  68.300  60.845  1.00  0.00    -0.269 OA
ATOM     32  H5  UNL     1       2.565  68.890  63.993  1.00  0.00     0.162 HD
BRANCH  30  33
HETATM   33  C22 UNL     1       4.433  68.692  62.079  1.00  0.00     0.074 C 
HETATM   34  C23 UNL     1       5.134  68.731  63.199  1.00  0.00     0.005 C 
BRANCH  34  35
HETATM   35  C24 UNL     1       4.620  68.633  64.536  1.00  0.00     0.001 C 
HETATM   36  C25 UNL     1       4.232  67.586  65.178  1.00  0.00     0.011 C 
BRANCH  36  37
HETATM   37  C26 UNL     1       4.153  66.186  64.862  1.00  0.00    -0.040 A 
HETATM   38  C27 UNL     1       3.365  65.347  65.598  1.00  0.00    -0.012 A 
HETATM   39  C28 UNL     1       3.462  63.975  65.069  1.00  0.00     0.055 A 
HETATM   40  C29 UNL     1       4.385  64.074  63.944  1.00  0.00    -0.022 A 
HETATM   41  C30 UNL     1       4.753  65.365  63.869  1.00  0.00     0.007 A 
ENDBRANCH  36  37
ENDBRANCH  34  35
ENDBRANCH  30  33
ENDBRANCH  28  29
ENDBRANCH  27  28
ENDBRANCH  26  27
ENDBRANCH  25  26
ENDBRANCH  22  25
ENDBRANCH   1  22
TORSDOF 16
ENDMDL
MODEL 4
REMARK VINA RESULT: -9.140332503      1.668      4.589
REMARK  16 active torsions:
REMARK  status: ('A' for Active; 'I' for Inactive)
REMARK    1  A    between atoms: C2_2  and  C3_3 
REMARK    2  A    between atoms: C2_2  and  N1_10 
REMARK    3  A    between atoms: C3_3  and  C4_4 
REMARK       I    between atoms: N1_10  and  C10_12 
REMARK       I    between atoms: C10_12  and  N3_16 
REMARK    4  A    between atoms: N3_16  and  C11_18 
REMARK    5  A    between atoms: C11_18  and  C12_19 
REMARK    6  A    between atoms: C12_19  and  C13_20 
REMARK    7  A    between atoms: C13_20  and  C14_21 
REMARK    8  A    between atoms: C14_21  and  N4_22 
REMARK    9  A    between atoms: N4_22  and  C17_25 
REMARK   10  A    between atoms: C17_25  and  C18_26 
REMARK   11  A    between atoms: C18_26  and  C19_27 
REMARK   12  A    between atoms: C19_27  and  C20_28 
REMARK   13  A    between atoms: C20_28  and  N5_29 
REMARK       I    between atoms: N5_29  and  C21_31 
REMARK   14  A    between atoms: C21_31  and  C22_33 
REMARK   15  A    between atoms: C23_34  and  C24_35 
REMARK   16  A    between atoms: C25_36  and  C26_37 
ROOT
HETATM    1  C14 UNL     1       2.572  64.633  70.126  1.00  0.00     0.201 C 
ENDROOT
BRANCH   1   2
HETATM    2  C13 UNL     1       1.968  65.948  69.961  1.00  0.00     0.022 C 
BRANCH   2   3
HETATM    3  C12 UNL     1       0.573  66.269  70.198  1.00  0.00    -0.005 C 
BRANCH   3   4
HETATM    4  C11 UNL     1      -0.488  66.176  69.184  1.00  0.00     0.165 C 
BRANCH   4   5
HETATM    5  N3  UNL     1      -0.556  67.285  68.249  1.00  0.00    -0.223 N 
HETATM    6  C10 UNL     1      -0.106  67.250  66.912  1.00  0.00     0.668 C 
HETATM    7  N1  UNL     1       1.120  66.643  66.587  1.00  0.00    -0.222 N 
HETATM    8  N2  UNL     1      -0.845  67.792  66.015  1.00  0.00    -0.235 N 
ATOM      9  H1  UNL     1       1.500  65.976  67.258  1.00  0.00     0.178 HD
ATOM     10  H22 UNL     1      -0.519  67.767  65.049  1.00  0.00     0.174 HD
ATOM     11  H21 UNL     1      -1.734  68.232  66.252  1.00  0.00     0.174 HD
ATOM     12  H3  UNL     1      -0.962  68.158  68.586  1.00  0.00     0.178 HD
BRANCH   7  13
HETATM   13  C2  UNL     1       1.890  66.880  65.388  1.00  0.00     0.099 C 
HETATM   14  C1  UNL     1       2.757  65.641  65.129  1.00  0.00     0.033 C 
BRANCH  13  15
HETATM   15  C3  UNL     1       2.673  68.135  65.508  1.00  0.00     0.063 C 
BRANCH  15  16
HETATM   16  C4  UNL     1       3.547  68.454  64.377  1.00  0.00    -0.056 A 
HETATM   17  C5  UNL     1       3.092  68.322  63.057  1.00  0.00     0.007 A 
HETATM   18  C6  UNL     1       3.889  68.605  61.971  1.00  0.00     0.001 A 
HETATM   19  C7  UNL     1       5.186  69.035  62.146  1.00  0.00     0.000 A 
HETATM   20  C8  UNL     1       5.638  69.165  63.437  1.00  0.00     0.001 A 
HETATM   21  C9  UNL     1       4.836  68.881  64.549  1.00  0.00     0.007 A 
ENDBRANCH  15  16
ENDBRANCH  13  15
ENDBRANCH   7  13
ENDBRANCH   4   5
ENDBRANCH   3   4
ENDBRANCH   2   3
ENDBRANCH   1   2
BRANCH   1  22
HETATM   22  N4  UNL     1       3.743  64.143  69.575  1.00  0.00    -0.055 N 
HETATM   23  C15 UNL     1       4.866  63.815  70.378  1.00  0.00     0.277 C 
HETATM   24  C16 UNL     1       4.207  64.988  68.456  1.00  0.00     0.277 C 
BRANCH  22  25
HETATM   25  C17 UNL     1       3.399  62.856  68.862  1.00  0.00     0.242 C 
BRANCH  25  26
HETATM   26  C18 UNL     1       2.835  61.870  69.790  1.00  0.00     0.030 C 
BRANCH  26  27
HETATM   27  C19 UNL     1       3.310  60.464  69.656  1.00  0.00     0.021 C 
BRANCH  27  28
HETATM   28  C20 UNL     1       4.306  59.962  70.633  1.00  0.00     0.123 C 
BRANCH  28  29
HETATM   29  N5  UNL     1       3.777  59.346  71.816  1.00  0.00    -0.358 N 
HETATM   30  C21 UNL     1       3.843  60.109  73.051  1.00  0.00     0.241 C 
HETATM   31  O1  UNL     1       4.365  61.236  72.939  1.00  0.00    -0.269 OA
ATOM     32  H5  UNL     1       3.372  58.411  71.791  1.00  0.00     0.162 HD
BRANCH  30  33
HETATM   33  C22 UNL     1       3.314  59.504  74.239  1.00  0.00     0.074 C 
HETATM   34  C23 UNL     1       2.127  58.958  74.439  1.00  0.00     0.005 C 
BRANCH  34  35
HETATM   35  C24 UNL     1       1.062  58.846  73.482  1.00  0.00     0.001 C 
HETATM   36  C25 UNL     1       0.349  59.779  72.953  1.00  0.00     0.011 C 
BRANCH  36  37
HETATM   37  C26 UNL     1       0.313  61.211  73.081  1.00  0.00    -0.040 A 
HETATM   38  C27 UNL     1      -0.093  61.996  72.039  1.00  0.00    -0.012 A 
HETATM   39  C28 UNL     1      -0.037  63.416  72.429  1.00  0.00     0.055 A 
HETATM   40  C29 UNL     1       0.442  63.405  73.807  1.00  0.00    -0.022 A 
HETATM   41  C30 UNL     1       0.628  62.113  74.132  1.00  0.00     0.007 A 
ENDBRANCH  36  37
ENDBRANCH  34  35
ENDBRANCH  30  33
ENDBRANCH  28  29
ENDBRANCH  27  28
ENDBRANCH  26  27
ENDBRANCH  25  26
ENDBRANCH  22  25
ENDBRANCH   1  22
TORSDOF 16
ENDMDL
MODEL 5
REMARK VINA RESULT: -9.059676868      2.008      7.337
REMARK  16 active torsions:
REMARK  status: ('A' for Active; 'I' for Inactive)
REMARK    1  A    between atoms: C2_2  and  C3_3 
REMARK    2  A    between atoms: C2_2  and  N1_10 
REMARK    3  A    between atoms: C3_3  and  C4_4 
REMARK       I    between atoms: N1_10  and  C10_12 
REMARK       I    between atoms: C10_12  and  N3_16 
REMARK    4  A    between atoms: N3_16  and  C11_18 
REMARK    5  A    between atoms: C11_18  and  C12_19 
REMARK    6  A    between atoms: C12_19  and  C13_20 
REMARK    7  A    between atoms: C13_20  and  C14_21 
REMARK    8  A    between atoms: C14_21  and  N4_22 
REMARK    9  A    between atoms: N4_22  and  C17_25 
REMARK   10  A    between atoms: C17_25  and  C18_26 
REMARK   11  A    between atoms: C18_26  and  C19_27 
REMARK   12  A    between atoms: C19_27  and  C20_28 
REMARK   13  A    between atoms: C20_28  and  N5_29 
REMARK       I    between atoms: N5_29  and  C21_31 
REMARK   14  A    between atoms: C21_31  and  C22_33 
REMARK   15  A    between atoms: C23_34  and  C24_35 
REMARK   16  A    between atoms: C25_36  and  C26_37 
ROOT
HETATM    1  C14 UNL     1       0.245  60.370  72.993  1.00  0.00     0.201 C 
ENDROOT
BRANCH   1   2
HETATM    2  C13 UNL     1       0.623  59.399  74.010  1.00  0.00     0.022 C 
BRANCH   2   3
HETATM    3  C12 UNL     1       0.586  57.957  73.853  1.00  0.00    -0.005 C 
BRANCH   3   4
HETATM    4  C11 UNL     1       1.768  57.116  73.610  1.00  0.00     0.165 C 
BRANCH   4   5
HETATM    5  N3  UNL     1       2.041  56.814  72.216  1.00  0.00    -0.223 N 
HETATM    6  C10 UNL     1       2.967  57.501  71.401  1.00  0.00     0.668 C 
HETATM    7  N1  UNL     1       3.045  58.905  71.438  1.00  0.00    -0.222 N 
HETATM    8  N2  UNL     1       3.721  56.807  70.632  1.00  0.00    -0.235 N 
ATOM      9  H1  UNL     1       2.665  59.370  72.262  1.00  0.00     0.178 HD
ATOM     10  H22 UNL     1       4.389  57.304  70.043  1.00  0.00     0.174 HD
ATOM     11  H21 UNL     1       3.664  55.789  70.606  1.00  0.00     0.174 HD
ATOM     12  H3  UNL     1       1.524  56.043  71.792  1.00  0.00     0.178 HD
BRANCH   7  13
HETATM   13  C2  UNL     1       3.614  59.748  70.412  1.00  0.00     0.099 C 
HETATM   14  C1  UNL     1       4.994  60.212  70.893  1.00  0.00     0.033 C 
BRANCH  13  15
HETATM   15  C3  UNL     1       2.695  60.865  70.082  1.00  0.00     0.063 C 
BRANCH  15  16
HETATM   16  C4  UNL     1       3.334  62.139  69.742  1.00  0.00    -0.056 A 
HETATM   17  C5  UNL     1       4.096  62.837  70.690  1.00  0.00     0.007 A 
HETATM   18  C6  UNL     1       4.703  64.039  70.407  1.00  0.00     0.001 A 
HETATM   19  C7  UNL     1       4.579  64.610  69.159  1.00  0.00     0.000 A 
HETATM   20  C8  UNL     1       3.833  63.931  68.227  1.00  0.00     0.001 A 
HETATM   21  C9  UNL     1       3.212  62.707  68.503  1.00  0.00     0.007 A 
ENDBRANCH  15  16
ENDBRANCH  13  15
ENDBRANCH   7  13
ENDBRANCH   4   5
ENDBRANCH   3   4
ENDBRANCH   2   3
ENDBRANCH   1   2
BRANCH   1  22
HETATM   22  N4  UNL     1      -0.365  61.602  73.155  1.00  0.00    -0.055 N 
HETATM   23  C15 UNL     1       0.167  62.591  74.021  1.00  0.00     0.277 C 
HETATM   24  C16 UNL     1      -1.805  61.455  73.452  1.00  0.00     0.277 C 
BRANCH  22  25
HETATM   25  C17 UNL     1      -0.401  62.266  71.798  1.00  0.00     0.242 C 
BRANCH  25  26
HETATM   26  C18 UNL     1       0.407  63.490  71.785  1.00  0.00     0.030 C 
BRANCH  26  27
HETATM   27  C19 UNL     1       0.436  64.269  70.516  1.00  0.00     0.021 C 
BRANCH  27  28
HETATM   28  C20 UNL     1       0.307  65.745  70.593  1.00  0.00     0.123 C 
BRANCH  28  29
HETATM   29  N5  UNL     1       0.274  66.443  69.341  1.00  0.00    -0.358 N 
HETATM   30  C21 UNL     1       1.419  67.275  69.012  1.00  0.00     0.241 C 
HETATM   31  O1  UNL     1       2.318  67.288  69.876  1.00  0.00    -0.269 OA
ATOM     32  H5  UNL     1      -0.521  66.359  68.708  1.00  0.00     0.162 HD
BRANCH  30  33
HETATM   33  C22 UNL     1       1.398  67.976  67.760  1.00  0.00     0.074 C 
HETATM   34  C23 UNL     1       2.320  68.023  66.816  1.00  0.00     0.005 C 
BRANCH  34  35
HETATM   35  C24 UNL     1       3.596  67.363  66.829  1.00  0.00     0.001 C 
HETATM   36  C25 UNL     1       4.515  67.363  65.926  1.00  0.00     0.011 C 
BRANCH  36  37
HETATM   37  C26 UNL     1       4.649  67.968  64.628  1.00  0.00    -0.040 A 
HETATM   38  C27 UNL     1       3.772  67.672  63.625  1.00  0.00    -0.012 A 
HETATM   39  C28 UNL     1       4.130  68.421  62.407  1.00  0.00     0.055 A 
HETATM   40  C29 UNL     1       5.309  69.195  62.781  1.00  0.00    -0.022 A 
HETATM   41  C30 UNL     1       5.565  68.898  64.066  1.00  0.00     0.007 A 
ENDBRANCH  36  37
ENDBRANCH  34  35
ENDBRANCH  30  33
ENDBRANCH  28  29
ENDBRANCH  27  28
ENDBRANCH  26  27
ENDBRANCH  25  26
ENDBRANCH  22  25
ENDBRANCH   1  22
TORSDOF 16
ENDMDL
