MODEL 1
REMARK VINA RESULT: -10.259849413      0.000      0.000
REMARK  16 active torsions:
REMARK  status: ('A' for Active; 'I' for Inactive)
REMARK    1  A    between atoms: C2_2  and  C3_3 
REMARK    2  A    between atoms: C3_3  and  N1_4 
REMARK    3  A    between atoms: N1_4  and  C5_6 
REMARK    4  A    between atoms: N1_4  and  C8_9 
REMARK    5  A    between atoms: C5_6  and  C6_7 
REMARK    6  A    between atoms: C8_9  and  C9_10 
REMARK    7  A    between atoms: C9_10  and  C10_11 
REMARK    8  A    between atoms: C10_11  and  N2_12 
REMARK       I    between atoms: N2_12  and  C11_14 
REMARK    9  A    between atoms: C11_14  and  C12_16 
REMARK   10  A    between atoms: C12_16  and  C13_17 
REMARK   11  A    between atoms: C12_16  and  N3_24 
REMARK   12  A    between atoms: C13_17  and  C14_18 
REMARK       I    between atoms: N3_24  and  C20_26 
REMARK   13  A    between atoms: C20_26  and  C21_28 
REMARK   14  A    between atoms: C21_28  and  N4_29 
REMARK   15  A    between atoms: C21_28  and  C22_33 
REMARK   16  A    between atoms: C22_33  and  C23_34 
ROOT
HETATM    1  C12 UNL     1       0.855  66.827  69.631  1.00  0.00     0.180 C 
ENDROOT
BRANCH   1   2
HETATM    2  C11 UNL     1       0.117  67.122  68.379  1.00  0.00     0.240 C 
HETATM    3  N2  UNL     1       0.544  68.109  67.456  1.00  0.00    -0.359 N 
ATOM      4  H2  UNL     1       1.388  68.653  67.635  1.00  0.00     0.162 HD
HETATM    5  O1  UNL     1      -0.935  66.437  68.165  1.00  0.00    -0.271 OA
BRANCH   3   6
HETATM    6  C10 UNL     1      -0.232  68.333  66.258  1.00  0.00     0.124 C 
BRANCH   6   7
HETATM    7  C9  UNL     1       0.500  67.961  65.013  1.00  0.00     0.048 C 
BRANCH   7   8
HETATM    8  C8  UNL     1       1.784  67.260  65.153  1.00  0.00     0.239 C 
BRANCH   8   9
HETATM    9  N1  UNL     1       2.849  67.476  64.269  1.00  0.00    -0.065 N 
HETATM   10  C4  UNL     1       2.602  67.944  62.953  1.00  0.00     0.273 C 
BRANCH   9  11
HETATM   11  C3  UNL     1       3.708  66.276  64.193  1.00  0.00     0.264 C 
BRANCH  11  12
HETATM   12  C2  UNL     1       3.026  65.082  64.751  1.00  0.00    -0.009 C 
HETATM   13  C1  UNL     1       3.589  63.876  64.777  1.00  0.00     0.008 C 
ENDBRANCH  11  12
ENDBRANCH   9  11
BRANCH   9  14
HETATM   14  C5  UNL     1       3.718  68.502  64.903  1.00  0.00     0.264 C 
BRANCH  14  15
HETATM   15  C6  UNL     1       5.121  68.369  64.405  1.00  0.00    -0.009 C 
HETATM   16  C7  UNL     1       5.762  69.327  63.762  1.00  0.00     0.008 C 
ENDBRANCH  14  15
ENDBRANCH   9  14
ENDBRANCH   8   9
ENDBRANCH   7   8
ENDBRANCH   6   7
ENDBRANCH   3   6
ENDBRANCH   1   2
BRANCH   1  17
HETATM   17  C13 UNL     1       2.183  67.577  69.544  1.00  0.00     0.073 C 
BRANCH  17  18
HETATM   18  C14 UNL     1       3.302  66.662  69.271  1.00  0.00    -0.056 A 
HETATM   19  C15 UNL     1       3.838  66.584  67.995  1.00  0.00     0.007 A 
HETATM   20  C16 UNL     1       4.893  65.725  67.713  1.00  0.00     0.001 A 
HETATM   21  C17 UNL     1       5.422  64.937  68.697  1.00  0.00     0.000 A 
HETATM   22  C18 UNL     1       4.904  64.998  69.977  1.00  0.00     0.001 A 
HETATM   23  C19 UNL     1       3.858  65.856  70.238  1.00  0.00     0.007 A 
ENDBRANCH  17  18
ENDBRANCH   1  17
BRANCH   1  24
HETATM   24  N3  UNL     1       1.117  65.421  69.703  1.00  0.00    -0.346 N 
HETATM   25  C20 UNL     1       0.633  64.575  70.731  1.00  0.00     0.249 C 
HETATM   26  O2  UNL     1      -0.067  65.084  71.634  1.00  0.00    -0.271 OA
ATOM     27  H3  UNL     1       1.689  65.003  68.969  1.00  0.00     0.163 HD
BRANCH  25  28
HETATM   28  C21 UNL     1       0.917  63.124  70.786  1.00  0.00     0.278 C 
BRANCH  28  29
HETATM   29  N4  UNL     1      -0.109  62.390  71.483  1.00  0.00    -0.066 N 
ATOM     30  H43 UNL     1      -0.955  62.950  71.589  1.00  0.00     0.275 HD
ATOM     31  H42 UNL     1      -0.483  61.639  70.902  1.00  0.00     0.275 HD
ATOM     32  H41 UNL     1       0.211  62.033  72.383  1.00  0.00     0.275 HD
ENDBRANCH  28  29
BRANCH  28  33
HETATM   33  C22 UNL     1       2.257  62.896  71.430  1.00  0.00     0.083 C 
BRANCH  33  34
HETATM   34  C23 UNL     1       2.902  61.667  70.926  1.00  0.00    -0.028 A 
HETATM   35  C24 UNL     1       3.821  61.575  69.910  1.00  0.00     0.096 A 
HETATM   36  N5  UNL     1       4.171  60.266  69.745  1.00  0.00    -0.365 N 
HETATM   37  C25 UNL     1       3.492  59.518  70.638  1.00  0.00     0.042 A 
ATOM     38  H5  UNL     1       4.837  59.912  69.058  1.00  0.00     0.165 HD
HETATM   39  C26 UNL     1       3.477  58.155  70.896  1.00  0.00     0.030 A 
HETATM   40  C30 UNL     1       2.708  60.384  71.368  1.00  0.00    -0.002 A 
HETATM   41  C27 UNL     1       2.674  57.634  71.892  1.00  0.00     0.002 A 
HETATM   42  C28 UNL     1       1.891  58.498  72.621  1.00  0.00     0.001 A 
HETATM   43  C29 UNL     1       1.913  59.858  72.355  1.00  0.00     0.014 A 
ENDBRANCH  33  34
ENDBRANCH  28  33
ENDBRANCH  25  28
ENDBRANCH   1  24
TORSDOF 16
ENDMDL
MODEL 2
REMARK VINA RESULT: -9.959554464      1.124      2.341
REMARK  16 active torsions:
REMARK  status: ('A' for Active; 'I' for Inactive)
REMARK    1  A    between atoms: C2_2  and  C3_3 
REMARK    2  A    between atoms: C3_3  and  N1_4 
REMARK    3  A    between atoms: N1_4  and  C5_6 
REMARK    4  A    between atoms: N1_4  and  C8_9 
REMARK    5  A    between atoms: C5_6  and  C6_7 
REMARK    6  A    between atoms: C8_9  and  C9_10 
REMARK    7  A    between atoms: C9_10  and  C10_11 
REMARK    8  A    between atoms: C10_11  and  N2_12 
REMARK       I    between atoms: N2_12  and  C11_14 
REMARK    9  A    between atoms: C11_14  and  C12_16 
REMARK   10  A    between atoms: C12_16  and  C13_17 
REMARK   11  A    between atoms: C12_16  and  N3_24 
REMARK   12  A    between atoms: C13_17  and  C14_18 
REMARK       I    between atoms: N3_24  and  C20_26 
REMARK   13  A    between atoms: C20_26  and  C21_28 
REMARK   14  A    between atoms: C21_28  and  N4_29 
REMARK   15  A    between atoms: C21_28  and  C22_33 
REMARK   16  A    between atoms: C22_33  and  C23_34 
ROOT
HETATM    1  C12 UNL     1       0.926  67.072  69.079  1.00  0.00     0.180 C 
ENDROOT
BRANCH   1   2
HETATM    2  C11 UNL     1       0.451  67.230  67.684  1.00  0.00     0.240 C 
HETATM    3  N2  UNL     1       1.060  68.120  66.766  1.00  0.00    -0.359 N 
ATOM      4  H2  UNL     1       1.859  68.688  67.049  1.00  0.00     0.162 HD
HETATM    5  O1  UNL     1      -0.547  66.515  67.341  1.00  0.00    -0.271 OA
BRANCH   3   6
HETATM    6  C10 UNL     1       0.535  68.212  65.423  1.00  0.00     0.124 C 
BRANCH   6   7
HETATM    7  C9  UNL     1       1.443  67.614  64.401  1.00  0.00     0.048 C 
BRANCH   7   8
HETATM    8  C8  UNL     1       2.795  68.175  64.269  1.00  0.00     0.239 C 
BRANCH   8   9
HETATM    9  N1  UNL     1       3.904  67.376  63.962  1.00  0.00    -0.065 N 
HETATM   10  C4  UNL     1       5.176  67.679  64.511  1.00  0.00     0.273 C 
BRANCH   9  11
HETATM   11  C3  UNL     1       4.041  67.226  62.499  1.00  0.00     0.264 C 
BRANCH  11  12
HETATM   12  C2  UNL     1       3.719  68.487  61.788  1.00  0.00    -0.009 C 
HETATM   13  C1  UNL     1       2.968  68.526  60.691  1.00  0.00     0.008 C 
ENDBRANCH  11  12
ENDBRANCH   9  11
BRANCH   9  14
HETATM   14  C5  UNL     1       3.579  66.006  64.437  1.00  0.00     0.264 C 
BRANCH  14  15
HETATM   15  C6  UNL     1       4.467  65.005  63.774  1.00  0.00    -0.009 C 
HETATM   16  C7  UNL     1       4.483  63.722  64.085  1.00  0.00     0.008 C 
ENDBRANCH  14  15
ENDBRANCH   9  14
ENDBRANCH   8   9
ENDBRANCH   7   8
ENDBRANCH   6   7
ENDBRANCH   3   6
ENDBRANCH   1   2
BRANCH   1  17
HETATM   17  C13 UNL     1       2.289  67.759  69.158  1.00  0.00     0.073 C 
BRANCH  17  18
HETATM   18  C14 UNL     1       3.389  66.791  69.043  1.00  0.00    -0.056 A 
HETATM   19  C15 UNL     1       4.045  66.627  67.833  1.00  0.00     0.007 A 
HETATM   20  C16 UNL     1       5.085  65.715  67.700  1.00  0.00     0.001 A 
HETATM   21  C17 UNL     1       5.481  64.960  68.769  1.00  0.00     0.000 A 
HETATM   22  C18 UNL     1       4.841  65.105  69.985  1.00  0.00     0.001 A 
HETATM   23  C19 UNL     1       3.811  66.015  70.098  1.00  0.00     0.007 A 
ENDBRANCH  17  18
ENDBRANCH   1  17
BRANCH   1  24
HETATM   24  N3  UNL     1       1.090  65.679  69.368  1.00  0.00    -0.346 N 
HETATM   25  C20 UNL     1       0.559  65.038  70.514  1.00  0.00     0.249 C 
HETATM   26  O2  UNL     1      -0.094  65.728  71.327  1.00  0.00    -0.271 OA
ATOM     27  H3  UNL     1       1.623  65.113  68.707  1.00  0.00     0.163 HD
BRANCH  25  28
HETATM   28  C21 UNL     1       0.741  63.596  70.791  1.00  0.00     0.278 C 
BRANCH  28  29
HETATM   29  N4  UNL     1      -0.469  62.972  71.266  1.00  0.00    -0.066 N 
ATOM     30  H43 UNL     1      -0.396  62.731  72.254  1.00  0.00     0.275 HD
ATOM     31  H42 UNL     1      -1.235  63.644  71.317  1.00  0.00     0.275 HD
ATOM     32  H41 UNL     1      -0.731  62.159  70.708  1.00  0.00     0.275 HD
ENDBRANCH  28  29
BRANCH  28  33
HETATM   33  C22 UNL     1       1.854  63.410  71.785  1.00  0.00     0.083 C 
BRANCH  33  34
HETATM   34  C23 UNL     1       1.973  62.002  72.213  1.00  0.00    -0.028 A 
HETATM   35  C24 UNL     1       1.607  61.476  73.427  1.00  0.00     0.096 A 
HETATM   36  N5  UNL     1       1.883  60.139  73.433  1.00  0.00    -0.365 N 
HETATM   37  C25 UNL     1       2.419  59.800  72.243  1.00  0.00     0.042 A 
ATOM     38  H5  UNL     1       1.711  59.501  74.210  1.00  0.00     0.165 HD
HETATM   39  C26 UNL     1       2.869  58.592  71.731  1.00  0.00     0.030 A 
HETATM   40  C30 UNL     1       2.476  60.952  71.490  1.00  0.00    -0.002 A 
HETATM   41  C27 UNL     1       3.384  58.515  70.452  1.00  0.00     0.002 A 
HETATM   42  C28 UNL     1       3.440  59.665  69.698  1.00  0.00     0.001 A 
HETATM   43  C29 UNL     1       2.988  60.867  70.220  1.00  0.00     0.014 A 
ENDBRANCH  33  34
ENDBRANCH  28  33
ENDBRANCH  25  28
ENDBRANCH   1  24
TORSDOF 16
ENDMDL
MODEL 3
REMARK VINA RESULT: -9.847135703      2.232      4.085
REMARK  16 active torsions:
REMARK  status: ('A' for Active; 'I' for Inactive)
REMARK    1  A    between atoms: C2_2  and  C3_3 
REMARK    2  A    between atoms: C3_3  and  N1_4 
REMARK    3  A    between atoms: N1_4  and  C5_6 
REMARK    4  A    between atoms: N1_4  and  C8_9 
REMARK    5  A    between atoms: C5_6  and  C6_7 
REMARK    6  A    between atoms: C8_9  and  C9_10 
REMARK    7  A    between atoms: C9_10  and  C10_11 
REMARK    8  A    between atoms: C10_11  and  N2_12 
REMARK       I    between atoms: N2_12  and  C11_14 
REMARK    9  A    between atoms: C11_14  and  C12_16 
REMARK   10  A    between atoms: C12_16  and  C13_17 
REMARK   11  A    between atoms: C12_16  and  N3_24 
REMARK   12  A    between atoms: C13_17  and  C14_18 
REMARK       I    between atoms: N3_24  and  C20_26 
REMARK   13  A    between atoms: C20_26  and  C21_28 
REMARK   14  A    between atoms: C21_28  and  N4_29 
REMARK   15  A    between atoms: C21_28  and  C22_33 
REMARK   16  A    between atoms: C22_33  and  C23_34 
ROOT
HETATM    1  C12 UNL     1       1.273  63.833  71.397  1.00  0.00     0.180 C 
ENDROOT
BRANCH   1   2
HETATM    2  C11 UNL     1       0.865  65.129  70.803  1.00  0.00     0.240 C 
HETATM    3  N2  UNL     1       1.454  65.648  69.624  1.00  0.00    -0.359 N 
ATOM      4  H2  UNL     1       2.191  65.131  69.144  1.00  0.00     0.162 HD
HETATM    5  O1  UNL     1      -0.057  65.766  71.410  1.00  0.00    -0.271 OA
BRANCH   3   6
HETATM    6  C10 UNL     1       0.997  66.918  69.110  1.00  0.00     0.124 C 
BRANCH   6   7
HETATM    7  C9  UNL     1       1.411  67.158  67.697  1.00  0.00     0.048 C 
BRANCH   7   8
HETATM    8  C8  UNL     1       2.849  67.192  67.398  1.00  0.00     0.239 C 
BRANCH   8   9
HETATM    9  N1  UNL     1       3.436  66.326  66.466  1.00  0.00    -0.065 N 
HETATM   10  C4  UNL     1       2.684  65.849  65.363  1.00  0.00     0.273 C 
BRANCH   9  11
HETATM   11  C3  UNL     1       4.056  65.174  67.153  1.00  0.00     0.264 C 
BRANCH  11  12
HETATM   12  C2  UNL     1       4.902  65.609  68.292  1.00  0.00    -0.009 C 
HETATM   13  C1  UNL     1       5.063  64.877  69.391  1.00  0.00     0.008 C 
ENDBRANCH  11  12
ENDBRANCH   9  11
BRANCH   9  14
HETATM   14  C5  UNL     1       4.588  67.060  65.879  1.00  0.00     0.264 C 
BRANCH  14  15
HETATM   15  C6  UNL     1       4.119  68.321  65.230  1.00  0.00    -0.009 C 
HETATM   16  C7  UNL     1       4.824  68.987  64.334  1.00  0.00     0.008 C 
ENDBRANCH  14  15
ENDBRANCH   9  14
ENDBRANCH   8   9
ENDBRANCH   7   8
ENDBRANCH   6   7
ENDBRANCH   3   6
ENDBRANCH   1   2
BRANCH   1  17
HETATM   17  C13 UNL     1       1.520  62.876  70.232  1.00  0.00     0.073 C 
BRANCH  17  18
HETATM   18  C14 UNL     1       2.709  62.042  70.461  1.00  0.00    -0.056 A 
HETATM   19  C15 UNL     1       2.981  60.975  69.619  1.00  0.00     0.007 A 
HETATM   20  C16 UNL     1       4.096  60.171  69.819  1.00  0.00     0.001 A 
HETATM   21  C17 UNL     1       4.949  60.422  70.857  1.00  0.00     0.000 A 
HETATM   22  C18 UNL     1       4.699  61.480  71.710  1.00  0.00     0.001 A 
HETATM   23  C19 UNL     1       3.588  62.267  71.496  1.00  0.00     0.007 A 
ENDBRANCH  17  18
ENDBRANCH   1  17
BRANCH   1  24
HETATM   24  N3  UNL     1       0.202  63.323  72.198  1.00  0.00    -0.346 N 
HETATM   25  C20 UNL     1       0.343  62.920  73.549  1.00  0.00     0.249 C 
HETATM   26  O2  UNL     1       1.472  63.014  74.078  1.00  0.00    -0.271 OA
ATOM     27  H3  UNL     1      -0.721  63.245  71.770  1.00  0.00     0.163 HD
BRANCH  25  28
HETATM   28  C21 UNL     1      -0.779  62.396  74.359  1.00  0.00     0.278 C 
BRANCH  28  29
HETATM   29  N4  UNL     1      -0.339  61.856  75.621  1.00  0.00    -0.066 N 
ATOM     30  H43 UNL     1       0.571  61.404  75.531  1.00  0.00     0.275 HD
ATOM     31  H42 UNL     1      -0.089  62.599  76.273  1.00  0.00     0.275 HD
ATOM     32  H41 UNL     1      -1.025  61.222  76.032  1.00  0.00     0.275 HD
ENDBRANCH  28  29
BRANCH  28  33
HETATM   33  C22 UNL     1      -1.526  61.355  73.572  1.00  0.00     0.083 C 
BRANCH  33  34
HETATM   34  C23 UNL     1      -1.131  59.988  73.963  1.00  0.00    -0.028 A 
HETATM   35  C24 UNL     1      -1.795  59.152  74.826  1.00  0.00     0.096 A 
HETATM   36  N5  UNL     1      -1.106  57.979  74.927  1.00  0.00    -0.365 N 
HETATM   37  C25 UNL     1      -0.011  58.047  74.143  1.00  0.00     0.042 A 
ATOM     38  H5  UNL     1      -1.375  57.180  75.501  1.00  0.00     0.165 HD
HETATM   39  C26 UNL     1       1.010  57.146  73.882  1.00  0.00     0.030 A 
HETATM   40  C30 UNL     1      -0.026  59.290  73.547  1.00  0.00    -0.002 A 
HETATM   41  C27 UNL     1       2.036  57.472  73.017  1.00  0.00     0.002 A 
HETATM   42  C28 UNL     1       2.022  58.712  72.421  1.00  0.00     0.001 A 
HETATM   43  C29 UNL     1       0.997  59.606  72.689  1.00  0.00     0.014 A 
ENDBRANCH  33  34
ENDBRANCH  28  33
ENDBRANCH  25  28
ENDBRANCH   1  24
TORSDOF 16
ENDMDL
MODEL 4
REMARK VINA RESULT: -9.812924559      2.075      3.798
REMARK  16 active torsions:
REMARK  status: ('A' for Active; 'I' for Inactive)
REMARK    1  A    between atoms: C2_2  and  C3_3 
REMARK    2  A    between atoms: C3_3  and  N1_4 
REMARK    3  A    between atoms: N1_4  and  C5_6 
REMARK    4  A    between atoms: N1_4  and  C8_9 
REMARK    5  A    between atoms: C5_6  and  C6_7 
REMARK    6  A    between atoms: C8_9  and  C9_10 
REMARK    7  A    between atoms: C9_10  and  C10_11 
REMARK    8  A    between atoms: C10_11  and  N2_12 
REMARK       I    between atoms: N2_12  and  C11_14 
REMARK    9  A    between atoms: C11_14  and  C12_16 
REMARK   10  A    between atoms: C12_16  and  C13_17 
REMARK   11  A    between atoms: C12_16  and  N3_24 
REMARK   12  A    between atoms: C13_17  and  C14_18 
REMARK       I    between atoms: N3_24  and  C20_26 
REMARK   13  A    between atoms: C20_26  and  C21_28 
REMARK   14  A    between atoms: C21_28  and  N4_29 
REMARK   15  A    between atoms: C21_28  and  C22_33 
REMARK   16  A    between atoms: C22_33  and  C23_34 
ROOT
HETATM    1  C12 UNL     1       3.129  64.921  69.233  1.00  0.00     0.180 C 
ENDROOT
BRANCH   1   2
HETATM    2  C11 UNL     1       4.036  65.076  68.070  1.00  0.00     0.240 C 
HETATM    3  N2  UNL     1       3.596  64.917  66.733  1.00  0.00    -0.359 N 
ATOM      4  H2  UNL     1       2.622  64.687  66.533  1.00  0.00     0.162 HD
HETATM    5  O1  UNL     1       5.250  65.363  68.331  1.00  0.00    -0.271 OA
BRANCH   3   6
HETATM    6  C10 UNL     1       4.544  65.086  65.656  1.00  0.00     0.124 C 
BRANCH   6   7
HETATM    7  C9  UNL     1       3.907  65.533  64.384  1.00  0.00     0.048 C 
BRANCH   7   8
HETATM    8  C8  UNL     1       2.685  66.346  64.475  1.00  0.00     0.239 C 
BRANCH   8   9
HETATM    9  N1  UNL     1       2.714  67.744  64.396  1.00  0.00    -0.065 N 
HETATM   10  C4  UNL     1       3.329  68.504  65.423  1.00  0.00     0.273 C 
BRANCH   9  11
HETATM   11  C3  UNL     1       1.355  68.275  64.160  1.00  0.00     0.264 C 
BRANCH  11  12
HETATM   12  C2  UNL     1       1.135  68.594  62.729  1.00  0.00    -0.009 C 
HETATM   13  C1  UNL     1       0.059  69.244  62.291  1.00  0.00     0.008 C 
ENDBRANCH  11  12
ENDBRANCH   9  11
BRANCH   9  14
HETATM   14  C5  UNL     1       3.453  68.078  63.151  1.00  0.00     0.264 C 
BRANCH  14  15
HETATM   15  C6  UNL     1       4.649  68.915  63.470  1.00  0.00    -0.009 C 
HETATM   16  C7  UNL     1       5.675  69.065  62.653  1.00  0.00     0.008 C 
ENDBRANCH  14  15
ENDBRANCH   9  14
ENDBRANCH   8   9
ENDBRANCH   7   8
ENDBRANCH   6   7
ENDBRANCH   3   6
ENDBRANCH   1   2
BRANCH   1  17
HETATM   17  C13 UNL     1       3.116  66.265  69.959  1.00  0.00     0.073 C 
BRANCH  17  18
HETATM   18  C14 UNL     1       2.208  67.222  69.309  1.00  0.00    -0.056 A 
HETATM   19  C15 UNL     1       0.952  66.811  68.889  1.00  0.00     0.007 A 
HETATM   20  C16 UNL     1       0.080  67.697  68.269  1.00  0.00     0.001 A 
HETATM   21  C17 UNL     1       0.448  68.996  68.062  1.00  0.00     0.000 A 
HETATM   22  C18 UNL     1       1.695  69.429  68.472  1.00  0.00     0.001 A 
HETATM   23  C19 UNL     1       2.548  68.537  69.085  1.00  0.00     0.007 A 
ENDBRANCH  17  18
ENDBRANCH   1  17
BRANCH   1  24
HETATM   24  N3  UNL     1       3.657  63.922  70.113  1.00  0.00    -0.346 N 
HETATM   25  C20 UNL     1       3.308  62.550  70.056  1.00  0.00     0.249 C 
HETATM   26  O2  UNL     1       2.489  62.185  69.185  1.00  0.00    -0.271 OA
ATOM     27  H3  UNL     1       4.325  64.217  70.825  1.00  0.00     0.163 HD
BRANCH  25  28
HETATM   28  C21 UNL     1       3.866  61.535  70.975  1.00  0.00     0.278 C 
BRANCH  28  29
HETATM   29  N4  UNL     1       5.212  61.849  71.389  1.00  0.00    -0.066 N 
ATOM     30  H43 UNL     1       5.757  62.224  70.613  1.00  0.00     0.275 HD
ATOM     31  H42 UNL     1       5.227  62.660  72.006  1.00  0.00     0.275 HD
ATOM     32  H41 UNL     1       5.682  61.052  71.818  1.00  0.00     0.275 HD
ENDBRANCH  28  29
BRANCH  28  33
HETATM   33  C22 UNL     1       3.818  60.181  70.322  1.00  0.00     0.083 C 
BRANCH  33  34
HETATM   34  C23 UNL     1       3.220  59.166  71.211  1.00  0.00    -0.028 A 
HETATM   35  C24 UNL     1       3.670  57.887  71.423  1.00  0.00     0.096 A 
HETATM   36  N5  UNL     1       2.840  57.265  72.310  1.00  0.00    -0.365 N 
HETATM   37  C25 UNL     1       1.866  58.124  72.671  1.00  0.00     0.042 A 
ATOM     38  H5  UNL     1       2.941  56.307  72.646  1.00  0.00     0.165 HD
HETATM   39  C26 UNL     1       0.786  58.004  73.533  1.00  0.00     0.030 A 
HETATM   40  C30 UNL     1       2.100  59.300  71.991  1.00  0.00    -0.002 A 
HETATM   41  C27 UNL     1      -0.080  59.062  73.731  1.00  0.00     0.002 A 
HETATM   42  C28 UNL     1       0.153  60.236  73.053  1.00  0.00     0.001 A 
HETATM   43  C29 UNL     1       1.235  60.345  72.193  1.00  0.00     0.014 A 
ENDBRANCH  33  34
ENDBRANCH  28  33
ENDBRANCH  25  28
ENDBRANCH   1  24
TORSDOF 16
ENDMDL
MODEL 5
REMARK VINA RESULT: -9.808906495      2.283      9.401
REMARK  16 active torsions:
REMARK  status: ('A' for Active; 'I' for Inactive)
REMARK    1  A    between atoms: C2_2  and  C3_3 
REMARK    2  A    between atoms: C3_3  and  N1_4 
REMARK    3  A    between atoms: N1_4  and  C5_6 
REMARK    4  A    between atoms: N1_4  and  C8_9 
REMARK    5  A    between atoms: C5_6  and  C6_7 
REMARK    6  A    between atoms: C8_9  and  C9_10 
REMARK    7  A    between atoms: C9_10  and  C10_11 
REMARK    8  A    between atoms: C10_11  and  N2_12 
REMARK       I    between atoms: N2_12  and  C11_14 
REMARK    9  A    between atoms: C11_14  and  C12_16 
REMARK   10  A    between atoms: C12_16  and  C13_17 
REMARK   11  A    between atoms: C12_16  and  N3_24 
REMARK   12  A    between atoms: C13_17  and  C14_18 
REMARK       I    between atoms: N3_24  and  C20_26 
REMARK   13  A    between atoms: C20_26  and  C21_28 
REMARK   14  A    between atoms: C21_28  and  N4_29 
REMARK   15  A    between atoms: C21_28  and  C22_33 
REMARK   16  A    between atoms: C22_33  and  C23_34 
ROOT
HETATM    1  C12 UNL     1       3.623  65.034  69.134  1.00  0.00     0.180 C 
ENDROOT
BRANCH   1   2
HETATM    2  C11 UNL     1       3.659  63.580  69.426  1.00  0.00     0.240 C 
HETATM    3  N2  UNL     1       4.411  63.036  70.496  1.00  0.00    -0.359 N 
ATOM      4  H2  UNL     1       4.959  63.644  71.105  1.00  0.00     0.162 HD
HETATM    5  O1  UNL     1       2.972  62.830  68.659  1.00  0.00    -0.271 OA
BRANCH   3   6
HETATM    6  C10 UNL     1       4.392  61.608  70.712  1.00  0.00     0.124 C 
BRANCH   6   7
HETATM    7  C9  UNL     1       4.365  61.239  72.157  1.00  0.00     0.048 C 
BRANCH   7   8
HETATM    8  C8  UNL     1       3.071  61.279  72.853  1.00  0.00     0.239 C 
BRANCH   8   9
HETATM    9  N1  UNL     1       2.472  60.125  73.376  1.00  0.00    -0.065 N 
HETATM   10  C4  UNL     1       2.079  60.080  74.738  1.00  0.00     0.273 C 
BRANCH   9  11
HETATM   11  C3  UNL     1       3.298  58.936  73.080  1.00  0.00     0.264 C 
BRANCH  11  12
HETATM   12  C2  UNL     1       2.660  58.070  72.059  1.00  0.00    -0.009 C 
HETATM   13  C1  UNL     1       3.347  57.476  71.085  1.00  0.00     0.008 C 
ENDBRANCH  11  12
ENDBRANCH   9  11
BRANCH   9  14
HETATM   14  C5  UNL     1       1.229  59.906  72.592  1.00  0.00     0.264 C 
BRANCH  14  15
HETATM   15  C6  UNL     1       0.591  61.215  72.259  1.00  0.00    -0.009 C 
HETATM   16  C7  UNL     1      -0.649  61.529  72.586  1.00  0.00     0.008 C 
ENDBRANCH  14  15
ENDBRANCH   9  14
ENDBRANCH   8   9
ENDBRANCH   7   8
ENDBRANCH   6   7
ENDBRANCH   3   6
ENDBRANCH   1   2
BRANCH   1  17
HETATM   17  C13 UNL     1       2.472  65.616  69.954  1.00  0.00     0.073 C 
BRANCH  17  18
HETATM   18  C14 UNL     1       1.906  66.813  69.315  1.00  0.00    -0.056 A 
HETATM   19  C15 UNL     1       0.626  66.776  68.784  1.00  0.00     0.007 A 
HETATM   20  C16 UNL     1       0.072  67.894  68.173  1.00  0.00     0.001 A 
HETATM   21  C17 UNL     1       0.785  69.057  68.085  1.00  0.00     0.000 A 
HETATM   22  C18 UNL     1       2.064  69.118  68.607  1.00  0.00     0.001 A 
HETATM   23  C19 UNL     1       2.597  67.999  69.210  1.00  0.00     0.007 A 
ENDBRANCH  17  18
ENDBRANCH   1  17
BRANCH   1  24
HETATM   24  N3  UNL     1       3.347  65.229  67.742  1.00  0.00    -0.346 N 
HETATM   25  C20 UNL     1       4.286  65.733  66.810  1.00  0.00     0.249 C 
HETATM   26  O2  UNL     1       5.428  66.029  67.224  1.00  0.00    -0.271 OA
ATOM     27  H3  UNL     1       2.416  64.989  67.401  1.00  0.00     0.163 HD
BRANCH  25  28
HETATM   28  C21 UNL     1       3.980  65.926  65.376  1.00  0.00     0.278 C 
BRANCH  28  29
HETATM   29  N4  UNL     1       4.504  64.863  64.554  1.00  0.00    -0.066 N 
ATOM     30  H43 UNL     1       4.858  65.223  63.668  1.00  0.00     0.275 HD
ATOM     31  H42 UNL     1       5.373  64.494  64.940  1.00  0.00     0.275 HD
ATOM     32  H41 UNL     1       3.824  64.118  64.403  1.00  0.00     0.275 HD
ENDBRANCH  28  29
BRANCH  28  33
HETATM   33  C22 UNL     1       4.514  67.256  64.920  1.00  0.00     0.083 C 
BRANCH  33  34
HETATM   34  C23 UNL     1       4.005  67.618  63.582  1.00  0.00    -0.028 A 
HETATM   35  C24 UNL     1       4.709  67.616  62.403  1.00  0.00     0.096 A 
HETATM   36  N5  UNL     1       3.884  68.019  61.393  1.00  0.00    -0.365 N 
HETATM   37  C25 UNL     1       2.664  68.279  61.903  1.00  0.00     0.042 A 
ATOM     38  H5  UNL     1       4.148  68.108  60.412  1.00  0.00     0.165 HD
HETATM   39  C26 UNL     1       1.480  68.710  61.323  1.00  0.00     0.030 A 
HETATM   40  C30 UNL     1       2.738  68.032  63.257  1.00  0.00    -0.002 A 
HETATM   41  C27 UNL     1       0.347  68.900  62.089  1.00  0.00     0.002 A 
HETATM   42  C28 UNL     1       0.420  68.654  63.440  1.00  0.00     0.001 A 
HETATM   43  C29 UNL     1       1.609  68.224  64.011  1.00  0.00     0.014 A 
ENDBRANCH  33  34
ENDBRANCH  28  33
ENDBRANCH  25  28
ENDBRANCH   1  24
TORSDOF 16
ENDMDL
