MODEL 1
REMARK VINA RESULT: -9.890528470      0.000      0.000
REMARK  16 active torsions:
REMARK  status: ('A' for Active; 'I' for Inactive)
REMARK    1  A    between atoms: C2_2  and  N1_3 
REMARK    2  A    between atoms: N1_3  and  C3_4 
REMARK    3  A    between atoms: N1_3  and  C7_14 
REMARK    4  A    between atoms: N1_3  and  C20_28 
REMARK    5  A    between atoms: C3_4  and  C4_5 
REMARK    6  A    between atoms: C4_5  and  C5_6 
REMARK    7  A    between atoms: C5_6  and  N2_7 
REMARK       I    between atoms: N2_7  and  C6_9 
REMARK    8  A    between atoms: C7_14  and  C8_15 
REMARK    9  A    between atoms: C8_15  and  C9_16 
REMARK   10  A    between atoms: C9_16  and  C10_17 
REMARK   11  A    between atoms: C13_20  and  C14_21 
REMARK   12  A    between atoms: C14_21  and  N5_22 
REMARK   13  A    between atoms: C20_28  and  C21_29 
REMARK   14  A    between atoms: C21_29  and  N6_32 
REMARK   15  A    between atoms: N6_32  and  C24_35 
REMARK   16  A    between atoms: C24_35  and  C25_36 
ROOT
HETATM    1  N1  UNL     1       4.158  66.053  64.538  1.00  0.00    -0.065 N 
ENDROOT
BRANCH   1   2
HETATM    2  C2  UNL     1       4.508  64.635  64.809  1.00  0.00     0.233 C 
HETATM    3  C1  UNL     1       3.343  63.719  64.825  1.00  0.00     0.035 C 
ENDBRANCH   1   2
BRANCH   1   4
HETATM    4  C3  UNL     1       4.649  66.514  63.319  1.00  0.00     0.239 C 
BRANCH   4   5
HETATM    5  C4  UNL     1       5.258  67.886  63.241  1.00  0.00     0.048 C 
BRANCH   5   6
HETATM    6  C5  UNL     1       4.518  68.701  62.163  1.00  0.00     0.124 C 
BRANCH   6   7
HETATM    7  N2  UNL     1       3.936  67.796  61.208  1.00  0.00    -0.365 N 
HETATM    8  C6  UNL     1       3.096  68.268  60.161  1.00  0.00     0.181 C 
HETATM    9  N3  UNL     1       3.622  68.510  59.018  1.00  0.00    -0.374 N 
HETATM   10  N4  UNL     1       1.709  68.452  60.429  1.00  0.00    -0.064 NA
ATOM     11  H32 UNL     1       4.615  68.378  58.827  1.00  0.00     0.158 HD
ATOM     12  H31 UNL     1       3.019  68.848  58.268  1.00  0.00     0.158 HD
ATOM     13  H2  UNL     1       4.129  66.798  61.282  1.00  0.00     0.162 HD
ENDBRANCH   6   7
ENDBRANCH   5   6
ENDBRANCH   4   5
ENDBRANCH   1   4
BRANCH   1  14
HETATM   14  C7  UNL     1       4.839  66.727  65.666  1.00  0.00     0.238 C 
BRANCH  14  15
HETATM   15  C8  UNL     1       5.451  65.838  66.667  1.00  0.00     0.032 C 
BRANCH  15  16
HETATM   16  C9  UNL     1       4.782  66.091  68.009  1.00  0.00     0.040 C 
BRANCH  16  17
HETATM   17  C10 UNL     1       4.516  64.898  68.800  1.00  0.00    -0.058 A 
HETATM   18  C11 UNL     1       3.604  63.948  68.331  1.00  0.00     0.007 A 
HETATM   19  C12 UNL     1       3.330  62.797  69.040  1.00  0.00     0.009 A 
HETATM   20  C13 UNL     1       3.952  62.536  70.251  1.00  0.00    -0.032 A 
HETATM   21  C18 UNL     1       4.849  63.465  70.718  1.00  0.00     0.009 A 
HETATM   22  C19 UNL     1       5.117  64.610  70.007  1.00  0.00     0.007 A 
BRANCH  20  23
HETATM   23  C14 UNL     1       3.643  61.292  70.999  1.00  0.00     0.274 C 
BRANCH  23  24
HETATM   24  N5  UNL     1       2.645  61.458  72.010  1.00  0.00    -0.075 N 
HETATM   25  C15 UNL     1       2.026  62.749  72.040  1.00  0.00     0.272 C 
HETATM   26  C16 UNL     1       1.634  60.408  71.833  1.00  0.00     0.272 C 
HETATM   27  C17 UNL     1       3.202  61.226  73.352  1.00  0.00     0.272 C 
ENDBRANCH  23  24
ENDBRANCH  20  23
ENDBRANCH  16  17
ENDBRANCH  15  16
ENDBRANCH  14  15
ENDBRANCH   1  14
BRANCH   1  28
HETATM   28  C20 UNL     1       2.769  66.135  64.840  1.00  0.00     0.275 C 
BRANCH  28  29
HETATM   29  C21 UNL     1       1.988  67.312  65.057  1.00  0.00     0.143 C 
HETATM   30  C22 UNL     1       2.522  68.440  65.895  1.00  0.00     0.047 C 
HETATM   31  C23 UNL     1       1.337  67.933  63.843  1.00  0.00     0.047 C 
BRANCH  29  32
HETATM   32  N6  UNL     1       0.808  66.892  65.870  1.00  0.00    -0.061 N 
ATOM     33  H62 UNL     1      -0.001  66.724  65.271  1.00  0.00     0.278 HD
ATOM     34  H61 UNL     1       0.943  65.952  66.241  1.00  0.00     0.278 HD
BRANCH  32  35
HETATM   35  C24 UNL     1       0.481  67.799  66.909  1.00  0.00     0.271 C 
BRANCH  35  36
HETATM   36  C25 UNL     1       0.485  67.099  68.250  1.00  0.00    -0.033 A 
HETATM   37  C26 UNL     1      -0.665  66.465  68.622  1.00  0.00     0.009 A 
HETATM   38  C27 UNL     1      -0.651  65.821  69.862  1.00  0.00     0.001 A 
HETATM   39  C28 UNL     1       0.489  65.846  70.646  1.00  0.00     0.000 A 
HETATM   40  C29 UNL     1       1.631  66.504  70.225  1.00  0.00     0.001 A 
HETATM   41  C30 UNL     1       1.634  67.135  69.021  1.00  0.00     0.009 A 
ENDBRANCH  35  36
ENDBRANCH  32  35
ENDBRANCH  29  32
ENDBRANCH  28  29
ENDBRANCH   1  28
TORSDOF 16
ENDMDL
MODEL 2
REMARK VINA RESULT: -9.574767479      2.250      5.718
REMARK  16 active torsions:
REMARK  status: ('A' for Active; 'I' for Inactive)
REMARK    1  A    between atoms: C2_2  and  N1_3 
REMARK    2  A    between atoms: N1_3  and  C3_4 
REMARK    3  A    between atoms: N1_3  and  C7_14 
REMARK    4  A    between atoms: N1_3  and  C20_28 
REMARK    5  A    between atoms: C3_4  and  C4_5 
REMARK    6  A    between atoms: C4_5  and  C5_6 
REMARK    7  A    between atoms: C5_6  and  N2_7 
REMARK       I    between atoms: N2_7  and  C6_9 
REMARK    8  A    between atoms: C7_14  and  C8_15 
REMARK    9  A    between atoms: C8_15  and  C9_16 
REMARK   10  A    between atoms: C9_16  and  C10_17 
REMARK   11  A    between atoms: C13_20  and  C14_21 
REMARK   12  A    between atoms: C14_21  and  N5_22 
REMARK   13  A    between atoms: C20_28  and  C21_29 
REMARK   14  A    between atoms: C21_29  and  N6_32 
REMARK   15  A    between atoms: N6_32  and  C24_35 
REMARK   16  A    between atoms: C24_35  and  C25_36 
ROOT
HETATM    1  N1  UNL     1       2.543  67.068  68.715  1.00  0.00    -0.065 N 
ENDROOT
BRANCH   1   2
HETATM    2  C2  UNL     1       2.269  68.360  69.393  1.00  0.00     0.233 C 
HETATM    3  C1  UNL     1       2.114  69.506  68.466  1.00  0.00     0.035 C 
ENDBRANCH   1   2
BRANCH   1   4
HETATM    4  C3  UNL     1       1.399  66.299  68.518  1.00  0.00     0.239 C 
BRANCH   4   5
HETATM    5  C4  UNL     1       0.159  66.605  69.309  1.00  0.00     0.048 C 
BRANCH   5   6
HETATM    6  C5  UNL     1      -1.037  66.715  68.343  1.00  0.00     0.124 C 
BRANCH   6   7
HETATM    7  N2  UNL     1      -1.066  68.040  67.783  1.00  0.00    -0.365 N 
HETATM    8  C6  UNL     1      -1.555  68.273  66.467  1.00  0.00     0.181 C 
HETATM    9  N3  UNL     1      -2.782  68.614  66.324  1.00  0.00    -0.374 N 
HETATM   10  N4  UNL     1      -0.662  68.120  65.369  1.00  0.00    -0.064 NA
ATOM     11  H32 UNL     1      -3.422  68.724  67.111  1.00  0.00     0.158 HD
ATOM     12  H31 UNL     1      -3.133  68.781  65.380  1.00  0.00     0.158 HD
ATOM     13  H2  UNL     1      -0.730  68.826  68.338  1.00  0.00     0.162 HD
ENDBRANCH   6   7
ENDBRANCH   5   6
ENDBRANCH   4   5
ENDBRANCH   1   4
BRANCH   1  14
HETATM   14  C7  UNL     1       3.443  66.424  69.700  1.00  0.00     0.238 C 
BRANCH  14  15
HETATM   15  C8  UNL     1       3.096  65.044  70.077  1.00  0.00     0.032 C 
BRANCH  15  16
HETATM   16  C9  UNL     1       4.369  64.213  70.084  1.00  0.00     0.040 C 
BRANCH  16  17
HETATM   17  C10 UNL     1       4.180  62.797  70.369  1.00  0.00    -0.058 A 
HETATM   18  C11 UNL     1       4.922  62.192  71.387  1.00  0.00     0.007 A 
HETATM   19  C12 UNL     1       4.767  60.858  71.701  1.00  0.00     0.009 A 
HETATM   20  C13 UNL     1       3.864  60.061  71.015  1.00  0.00    -0.032 A 
HETATM   21  C18 UNL     1       3.130  60.649  70.013  1.00  0.00     0.009 A 
HETATM   22  C19 UNL     1       3.290  61.979  69.706  1.00  0.00     0.007 A 
BRANCH  20  23
HETATM   23  C14 UNL     1       3.711  58.627  71.367  1.00  0.00     0.274 C 
BRANCH  23  24
HETATM   24  N5  UNL     1       2.726  58.381  72.373  1.00  0.00    -0.075 N 
HETATM   25  C15 UNL     1       1.667  59.345  72.429  1.00  0.00     0.272 C 
HETATM   26  C16 UNL     1       2.182  57.033  72.163  1.00  0.00     0.272 C 
HETATM   27  C17 UNL     1       3.331  58.341  73.714  1.00  0.00     0.272 C 
ENDBRANCH  23  24
ENDBRANCH  20  23
ENDBRANCH  16  17
ENDBRANCH  15  16
ENDBRANCH  14  15
ENDBRANCH   1  14
BRANCH   1  28
HETATM   28  C20 UNL     1       3.381  67.417  67.619  1.00  0.00     0.275 C 
BRANCH  28  29
HETATM   29  C21 UNL     1       4.118  66.540  66.765  1.00  0.00     0.143 C 
HETATM   30  C22 UNL     1       5.348  65.837  67.267  1.00  0.00     0.047 C 
HETATM   31  C23 UNL     1       3.321  65.527  65.977  1.00  0.00     0.047 C 
BRANCH  29  32
HETATM   32  N6  UNL     1       4.702  67.392  65.686  1.00  0.00    -0.061 N 
ATOM     33  H62 UNL     1       5.651  67.677  65.926  1.00  0.00     0.278 HD
ATOM     34  H61 UNL     1       4.897  66.835  64.854  1.00  0.00     0.278 HD
BRANCH  32  35
HETATM   35  C24 UNL     1       3.908  68.520  65.359  1.00  0.00     0.271 C 
BRANCH  35  36
HETATM   36  C25 UNL     1       3.620  68.559  63.875  1.00  0.00    -0.033 A 
HETATM   37  C26 UNL     1       4.678  68.793  63.044  1.00  0.00     0.009 A 
HETATM   38  C27 UNL     1       4.402  68.827  61.675  1.00  0.00     0.001 A 
HETATM   39  C28 UNL     1       3.110  68.629  61.221  1.00  0.00     0.000 A 
HETATM   40  C29 UNL     1       2.070  68.396  62.104  1.00  0.00     0.001 A 
HETATM   41  C30 UNL     1       2.322  68.359  63.439  1.00  0.00     0.009 A 
ENDBRANCH  35  36
ENDBRANCH  32  35
ENDBRANCH  29  32
ENDBRANCH  28  29
ENDBRANCH   1  28
TORSDOF 16
ENDMDL
MODEL 3
REMARK VINA RESULT: -9.519805006      2.005      8.450
REMARK  16 active torsions:
REMARK  status: ('A' for Active; 'I' for Inactive)
REMARK    1  A    between atoms: C2_2  and  N1_3 
REMARK    2  A    between atoms: N1_3  and  C3_4 
REMARK    3  A    between atoms: N1_3  and  C7_14 
REMARK    4  A    between atoms: N1_3  and  C20_28 
REMARK    5  A    between atoms: C3_4  and  C4_5 
REMARK    6  A    between atoms: C4_5  and  C5_6 
REMARK    7  A    between atoms: C5_6  and  N2_7 
REMARK       I    between atoms: N2_7  and  C6_9 
REMARK    8  A    between atoms: C7_14  and  C8_15 
REMARK    9  A    between atoms: C8_15  and  C9_16 
REMARK   10  A    between atoms: C9_16  and  C10_17 
REMARK   11  A    between atoms: C13_20  and  C14_21 
REMARK   12  A    between atoms: C14_21  and  N5_22 
REMARK   13  A    between atoms: C20_28  and  C21_29 
REMARK   14  A    between atoms: C21_29  and  N6_32 
REMARK   15  A    between atoms: N6_32  and  C24_35 
REMARK   16  A    between atoms: C24_35  and  C25_36 
ROOT
HETATM    1  N1  UNL     1       3.096  62.536  71.072  1.00  0.00    -0.065 N 
ENDROOT
BRANCH   1   2
HETATM    2  C2  UNL     1       3.634  61.963  72.332  1.00  0.00     0.233 C 
HETATM    3  C1  UNL     1       2.673  61.103  73.063  1.00  0.00     0.035 C 
ENDBRANCH   1   2
BRANCH   1   4
HETATM    4  C3  UNL     1       2.660  61.567  70.173  1.00  0.00     0.239 C 
BRANCH   4   5
HETATM    5  C4  UNL     1       3.657  60.616  69.571  1.00  0.00     0.048 C 
BRANCH   5   6
HETATM    6  C5  UNL     1       3.089  59.185  69.642  1.00  0.00     0.124 C 
BRANCH   6   7
HETATM    7  N2  UNL     1       3.713  58.487  70.735  1.00  0.00    -0.365 N 
HETATM    8  C6  UNL     1       3.154  57.290  71.261  1.00  0.00     0.181 C 
HETATM    9  N3  UNL     1       3.585  56.168  70.817  1.00  0.00    -0.374 N 
HETATM   10  N4  UNL     1       2.140  57.389  72.256  1.00  0.00    -0.064 NA
ATOM     11  H32 UNL     1       4.311  56.097  70.104  1.00  0.00     0.158 HD
ATOM     12  H31 UNL     1       3.184  55.309  71.194  1.00  0.00     0.158 HD
ATOM     13  H2  UNL     1       4.573  58.858  71.139  1.00  0.00     0.162 HD
ENDBRANCH   6   7
ENDBRANCH   5   6
ENDBRANCH   4   5
ENDBRANCH   1   4
BRANCH   1  14
HETATM   14  C7  UNL     1       4.295  63.233  70.551  1.00  0.00     0.238 C 
BRANCH  14  15
HETATM   15  C8  UNL     1       4.076  64.605  70.066  1.00  0.00     0.032 C 
BRANCH  15  16
HETATM   16  C9  UNL     1       5.254  64.999  69.189  1.00  0.00     0.040 C 
BRANCH  16  17
HETATM   17  C10 UNL     1       4.911  65.368  67.822  1.00  0.00    -0.058 A 
HETATM   18  C11 UNL     1       3.661  65.016  67.306  1.00  0.00     0.007 A 
HETATM   19  C12 UNL     1       3.287  65.355  66.023  1.00  0.00     0.009 A 
HETATM   20  C13 UNL     1       4.142  66.061  65.190  1.00  0.00    -0.032 A 
HETATM   21  C18 UNL     1       5.373  66.410  65.691  1.00  0.00     0.009 A 
HETATM   22  C19 UNL     1       5.738  66.069  66.972  1.00  0.00     0.007 A 
BRANCH  20  23
HETATM   23  C14 UNL     1       3.722  66.416  63.812  1.00  0.00     0.274 C 
BRANCH  23  24
HETATM   24  N5  UNL     1       3.375  67.794  63.650  1.00  0.00    -0.075 N 
HETATM   25  C15 UNL     1       4.035  68.692  64.551  1.00  0.00     0.272 C 
HETATM   26  C16 UNL     1       3.644  68.174  62.258  1.00  0.00     0.272 C 
HETATM   27  C17 UNL     1       1.930  68.005  63.830  1.00  0.00     0.272 C 
ENDBRANCH  23  24
ENDBRANCH  20  23
ENDBRANCH  16  17
ENDBRANCH  15  16
ENDBRANCH  14  15
ENDBRANCH   1  14
BRANCH   1  28
HETATM   28  C20 UNL     1       2.222  63.573  71.504  1.00  0.00     0.275 C 
BRANCH  28  29
HETATM   29  C21 UNL     1       0.800  63.632  71.370  1.00  0.00     0.143 C 
HETATM   30  C22 UNL     1       0.015  62.406  70.992  1.00  0.00     0.047 C 
HETATM   31  C23 UNL     1       0.038  64.320  72.478  1.00  0.00     0.047 C 
BRANCH  29  32
HETATM   32  N6  UNL     1       0.522  64.515  70.198  1.00  0.00    -0.061 N 
ATOM     33  H62 UNL     1       1.253  64.419  69.492  1.00  0.00     0.278 HD
ATOM     34  H61 UNL     1      -0.275  64.167  69.666  1.00  0.00     0.278 HD
BRANCH  32  35
HETATM   35  C24 UNL     1       0.337  65.878  70.543  1.00  0.00     0.271 C 
BRANCH  35  36
HETATM   36  C25 UNL     1       0.866  66.782  69.452  1.00  0.00    -0.033 A 
HETATM   37  C26 UNL     1       0.074  66.957  68.354  1.00  0.00     0.009 A 
HETATM   38  C27 UNL     1       0.571  67.794  67.352  1.00  0.00     0.001 A 
HETATM   39  C28 UNL     1       1.807  68.398  67.500  1.00  0.00     0.000 A 
HETATM   40  C29 UNL     1       2.574  68.188  68.633  1.00  0.00     0.001 A 
HETATM   41  C30 UNL     1       2.104  67.377  69.617  1.00  0.00     0.009 A 
ENDBRANCH  35  36
ENDBRANCH  32  35
ENDBRANCH  29  32
ENDBRANCH  28  29
ENDBRANCH   1  28
TORSDOF 16
ENDMDL
MODEL 4
REMARK VINA RESULT: -9.490972765      1.651      2.661
REMARK  16 active torsions:
REMARK  status: ('A' for Active; 'I' for Inactive)
REMARK    1  A    between atoms: C2_2  and  N1_3 
REMARK    2  A    between atoms: N1_3  and  C3_4 
REMARK    3  A    between atoms: N1_3  and  C7_14 
REMARK    4  A    between atoms: N1_3  and  C20_28 
REMARK    5  A    between atoms: C3_4  and  C4_5 
REMARK    6  A    between atoms: C4_5  and  C5_6 
REMARK    7  A    between atoms: C5_6  and  N2_7 
REMARK       I    between atoms: N2_7  and  C6_9 
REMARK    8  A    between atoms: C7_14  and  C8_15 
REMARK    9  A    between atoms: C8_15  and  C9_16 
REMARK   10  A    between atoms: C9_16  and  C10_17 
REMARK   11  A    between atoms: C13_20  and  C14_21 
REMARK   12  A    between atoms: C14_21  and  N5_22 
REMARK   13  A    between atoms: C20_28  and  C21_29 
REMARK   14  A    between atoms: C21_29  and  N6_32 
REMARK   15  A    between atoms: N6_32  and  C24_35 
REMARK   16  A    between atoms: C24_35  and  C25_36 
ROOT
HETATM    1  N1  UNL     1       3.348  66.983  66.471  1.00  0.00    -0.065 N 
ENDROOT
BRANCH   1   2
HETATM    2  C2  UNL     1       3.591  65.916  65.467  1.00  0.00     0.233 C 
HETATM    3  C1  UNL     1       2.367  65.194  65.046  1.00  0.00     0.035 C 
ENDBRANCH   1   2
BRANCH   1   4
HETATM    4  C3  UNL     1       3.398  68.265  65.930  1.00  0.00     0.239 C 
BRANCH   4   5
HETATM    5  C4  UNL     1       3.944  68.460  64.543  1.00  0.00     0.048 C 
BRANCH   5   6
HETATM    6  C5  UNL     1       2.767  68.602  63.557  1.00  0.00     0.124 C 
BRANCH   6   7
HETATM    7  N2  UNL     1       3.069  67.864  62.360  1.00  0.00    -0.365 N 
HETATM    8  C6  UNL     1       2.886  68.441  61.073  1.00  0.00     0.181 C 
HETATM    9  N3  UNL     1       3.890  69.001  60.506  1.00  0.00    -0.374 N 
HETATM   10  N4  UNL     1       1.598  68.372  60.469  1.00  0.00    -0.064 NA
ATOM     11  H32 UNL     1       4.813  69.050  60.939  1.00  0.00     0.158 HD
ATOM     12  H31 UNL     1       3.759  69.415  59.583  1.00  0.00     0.158 HD
ATOM     13  H2  UNL     1       3.419  66.910  62.435  1.00  0.00     0.162 HD
ENDBRANCH   6   7
ENDBRANCH   5   6
ENDBRANCH   4   5
ENDBRANCH   1   4
BRANCH   1  14
HETATM   14  C7  UNL     1       4.485  66.760  67.393  1.00  0.00     0.238 C 
BRANCH  14  15
HETATM   15  C8  UNL     1       4.737  65.360  67.770  1.00  0.00     0.032 C 
BRANCH  15  16
HETATM   16  C9  UNL     1       4.560  65.227  69.275  1.00  0.00     0.040 C 
BRANCH  16  17
HETATM   17  C10 UNL     1       4.014  63.953  69.722  1.00  0.00    -0.058 A 
HETATM   18  C11 UNL     1       3.520  63.045  68.781  1.00  0.00     0.007 A 
HETATM   19  C12 UNL     1       3.006  61.822  69.157  1.00  0.00     0.009 A 
HETATM   20  C13 UNL     1       2.959  61.443  70.490  1.00  0.00    -0.032 A 
HETATM   21  C18 UNL     1       3.443  62.331  71.421  1.00  0.00     0.009 A 
HETATM   22  C19 UNL     1       3.954  63.549  71.038  1.00  0.00     0.007 A 
BRANCH  20  23
HETATM   23  C14 UNL     1       2.402  60.123  70.874  1.00  0.00     0.274 C 
BRANCH  23  24
HETATM   24  N5  UNL     1       3.357  59.245  71.476  1.00  0.00    -0.075 N 
HETATM   25  C15 UNL     1       4.720  59.672  71.367  1.00  0.00     0.272 C 
HETATM   26  C16 UNL     1       2.988  59.062  72.885  1.00  0.00     0.272 C 
HETATM   27  C17 UNL     1       3.289  57.899  70.887  1.00  0.00     0.272 C 
ENDBRANCH  23  24
ENDBRANCH  20  23
ENDBRANCH  16  17
ENDBRANCH  15  16
ENDBRANCH  14  15
ENDBRANCH   1  14
BRANCH   1  28
HETATM   28  C20 UNL     1       2.199  66.539  67.184  1.00  0.00     0.275 C 
BRANCH  28  29
HETATM   29  C21 UNL     1       1.463  67.244  68.185  1.00  0.00     0.143 C 
HETATM   30  C22 UNL     1       2.175  67.922  69.323  1.00  0.00     0.047 C 
HETATM   31  C23 UNL     1       0.394  68.197  67.703  1.00  0.00     0.047 C 
BRANCH  29  32
HETATM   32  N6  UNL     1       0.664  66.220  68.923  1.00  0.00    -0.061 N 
ATOM     33  H62 UNL     1      -0.333  66.345  68.748  1.00  0.00     0.278 HD
ATOM     34  H61 UNL     1       0.795  65.296  68.510  1.00  0.00     0.278 HD
BRANCH  32  35
HETATM   35  C24 UNL     1       0.928  66.189  70.316  1.00  0.00     0.271 C 
BRANCH  35  36
HETATM   36  C25 UNL     1       0.454  64.885  70.919  1.00  0.00    -0.033 A 
HETATM   37  C26 UNL     1       0.070  63.904  70.052  1.00  0.00     0.009 A 
HETATM   38  C27 UNL     1      -0.366  62.704  70.619  1.00  0.00     0.001 A 
HETATM   39  C28 UNL     1      -0.393  62.553  71.994  1.00  0.00     0.000 A 
HETATM   40  C29 UNL     1       0.006  63.579  72.833  1.00  0.00     0.001 A 
HETATM   41  C30 UNL     1       0.433  64.753  72.297  1.00  0.00     0.009 A 
ENDBRANCH  35  36
ENDBRANCH  32  35
ENDBRANCH  29  32
ENDBRANCH  28  29
ENDBRANCH   1  28
TORSDOF 16
ENDMDL
MODEL 5
REMARK VINA RESULT: -9.455706168      2.102      8.794
REMARK  16 active torsions:
REMARK  status: ('A' for Active; 'I' for Inactive)
REMARK    1  A    between atoms: C2_2  and  N1_3 
REMARK    2  A    between atoms: N1_3  and  C3_4 
REMARK    3  A    between atoms: N1_3  and  C7_14 
REMARK    4  A    between atoms: N1_3  and  C20_28 
REMARK    5  A    between atoms: C3_4  and  C4_5 
REMARK    6  A    between atoms: C4_5  and  C5_6 
REMARK    7  A    between atoms: C5_6  and  N2_7 
REMARK       I    between atoms: N2_7  and  C6_9 
REMARK    8  A    between atoms: C7_14  and  C8_15 
REMARK    9  A    between atoms: C8_15  and  C9_16 
REMARK   10  A    between atoms: C9_16  and  C10_17 
REMARK   11  A    between atoms: C13_20  and  C14_21 
REMARK   12  A    between atoms: C14_21  and  N5_22 
REMARK   13  A    between atoms: C20_28  and  C21_29 
REMARK   14  A    between atoms: C21_29  and  N6_32 
REMARK   15  A    between atoms: N6_32  and  C24_35 
REMARK   16  A    between atoms: C24_35  and  C25_36 
ROOT
HETATM    1  N1  UNL     1       2.807  62.679  70.571  1.00  0.00    -0.065 N 
ENDROOT
BRANCH   1   2
HETATM    2  C2  UNL     1       3.798  62.445  71.651  1.00  0.00     0.233 C 
HETATM    3  C1  UNL     1       5.152  62.093  71.162  1.00  0.00     0.035 C 
ENDBRANCH   1   2
BRANCH   1   4
HETATM    4  C3  UNL     1       2.126  61.525  70.193  1.00  0.00     0.239 C 
BRANCH   4   5
HETATM    5  C4  UNL     1       2.275  60.277  71.017  1.00  0.00     0.048 C 
BRANCH   5   6
HETATM    6  C5  UNL     1       3.123  59.257  70.232  1.00  0.00     0.124 C 
BRANCH   6   7
HETATM    7  N2  UNL     1       3.704  58.321  71.157  1.00  0.00    -0.365 N 
HETATM    8  C6  UNL     1       3.117  57.045  71.382  1.00  0.00     0.181 C 
HETATM    9  N3  UNL     1       3.553  56.045  70.709  1.00  0.00    -0.374 N 
HETATM   10  N4  UNL     1       2.072  56.933  72.343  1.00  0.00    -0.064 NA
ATOM     11  H32 UNL     1       4.302  56.125  70.021  1.00  0.00     0.158 HD
ATOM     12  H31 UNL     1       3.132  55.130  70.870  1.00  0.00     0.158 HD
ATOM     13  H2  UNL     1       4.553  58.576  71.661  1.00  0.00     0.162 HD
ENDBRANCH   6   7
ENDBRANCH   5   6
ENDBRANCH   4   5
ENDBRANCH   1   4
BRANCH   1  14
HETATM   14  C7  UNL     1       3.692  63.146  69.479  1.00  0.00     0.238 C 
BRANCH  14  15
HETATM   15  C8  UNL     1       3.595  64.577  69.146  1.00  0.00     0.032 C 
BRANCH  15  16
HETATM   16  C9  UNL     1       4.672  64.907  68.125  1.00  0.00     0.040 C 
BRANCH  16  17
HETATM   17  C10 UNL     1       4.225  65.707  66.993  1.00  0.00    -0.058 A 
HETATM   18  C11 UNL     1       4.921  66.871  66.652  1.00  0.00     0.007 A 
HETATM   19  C12 UNL     1       4.542  67.652  65.581  1.00  0.00     0.009 A 
HETATM   20  C13 UNL     1       3.451  67.313  64.797  1.00  0.00    -0.032 A 
HETATM   21  C18 UNL     1       2.762  66.171  65.126  1.00  0.00     0.009 A 
HETATM   22  C19 UNL     1       3.145  65.396  66.195  1.00  0.00     0.007 A 
BRANCH  20  23
HETATM   23  C14 UNL     1       3.059  68.168  63.649  1.00  0.00     0.274 C 
BRANCH  23  24
HETATM   24  N5  UNL     1       3.879  67.992  62.491  1.00  0.00    -0.075 N 
HETATM   25  C15 UNL     1       4.472  66.694  62.363  1.00  0.00     0.272 C 
HETATM   26  C16 UNL     1       3.073  68.307  61.305  1.00  0.00     0.272 C 
HETATM   27  C17 UNL     1       4.984  68.963  62.468  1.00  0.00     0.272 C 
ENDBRANCH  23  24
ENDBRANCH  20  23
ENDBRANCH  16  17
ENDBRANCH  15  16
ENDBRANCH  14  15
ENDBRANCH   1  14
BRANCH   1  28
HETATM   28  C20 UNL     1       2.095  63.837  70.994  1.00  0.00     0.275 C 
BRANCH  28  29
HETATM   29  C21 UNL     1       0.697  63.956  71.262  1.00  0.00     0.143 C 
HETATM   30  C22 UNL     1      -0.315  63.327  70.345  1.00  0.00     0.047 C 
HETATM   31  C23 UNL     1       0.246  63.672  72.677  1.00  0.00     0.047 C 
BRANCH  29  32
HETATM   32  N6  UNL     1       0.357  65.402  71.106  1.00  0.00    -0.061 N 
ATOM     33  H62 UNL     1      -0.242  65.716  71.869  1.00  0.00     0.278 HD
ATOM     34  H61 UNL     1       1.176  65.985  71.282  1.00  0.00     0.278 HD
BRANCH  32  35
HETATM   35  C24 UNL     1      -0.223  65.718  69.852  1.00  0.00     0.271 C 
BRANCH  35  36
HETATM   36  C25 UNL     1       0.565  66.808  69.158  1.00  0.00    -0.033 A 
HETATM   37  C26 UNL     1       1.711  67.228  69.769  1.00  0.00     0.009 A 
HETATM   38  C27 UNL     1       2.431  68.234  69.121  1.00  0.00     0.001 A 
HETATM   39  C28 UNL     1       1.976  68.755  67.923  1.00  0.00     0.000 A 
HETATM   40  C29 UNL     1       0.806  68.295  67.344  1.00  0.00     0.001 A 
HETATM   41  C30 UNL     1       0.094  67.316  67.961  1.00  0.00     0.009 A 
ENDBRANCH  35  36
ENDBRANCH  32  35
ENDBRANCH  29  32
ENDBRANCH  28  29
ENDBRANCH   1  28
TORSDOF 16
ENDMDL
