MODEL 1
REMARK VINA RESULT: -9.735839698      0.000      0.000
REMARK  13 active torsions:
REMARK  status: ('A' for Active; 'I' for Inactive)
REMARK    1  A    between atoms: C2_2  and  C3_3 
REMARK    2  A    between atoms: C3_3  and  N1_4 
REMARK       I    between atoms: C4_6  and  N2_7 
REMARK       I    between atoms: C4_6  and  N3_10 
REMARK    3  A    between atoms: N3_10  and  C6_12 
REMARK    4  A    between atoms: C6_12  and  C7_13 
REMARK    5  A    between atoms: C6_12  and  C17_29 
REMARK       I    between atoms: C7_13  and  N4_15 
REMARK    6  A    between atoms: N4_15  and  C8_17 
REMARK    7  A    between atoms: C9_18  and  C10_19 
REMARK    8  A    between atoms: C10_19  and  C11_20 
REMARK    9  A    between atoms: C11_20  and  N5_21 
REMARK   10  A    between atoms: N5_21  and  C12_23 
REMARK   11  A    between atoms: C13_24  and  N6_25 
REMARK   12  A    between atoms: C17_29  and  C18_30 
REMARK   13  A    between atoms: C17_29  and  C24_36 
ROOT
HETATM    1  C6  UNL     1       1.775  63.381  71.011  1.00  0.00     0.204 C 
ENDROOT
BRANCH   1   2
HETATM    2  N3  UNL     1       0.940  62.214  71.375  1.00  0.00    -0.212 N 
HETATM    3  C4  UNL     1       0.442  61.812  72.614  1.00  0.00     0.670 C 
HETATM    4  N1  UNL     1      -0.354  60.814  72.624  1.00  0.00    -0.227 N 
HETATM    5  N2  UNL     1       0.693  62.453  73.852  1.00  0.00    -0.231 N 
ATOM      6  H1  UNL     1      -0.521  60.368  71.722  1.00  0.00     0.177 HD
HETATM    7  C5  UNL     1       1.758  61.912  74.665  1.00  0.00     0.165 C 
ATOM      8  H2  UNL     1       0.147  63.259  74.156  1.00  0.00     0.177 HD
ATOM      9  H3  UNL     1       0.688  61.607  70.595  1.00  0.00     0.178 HD
BRANCH   4  10
HETATM   10  C3  UNL     1      -1.030  60.252  73.725  1.00  0.00     0.137 C 
BRANCH  10  11
HETATM   11  C2  UNL     1      -0.470  58.839  74.011  1.00  0.00     0.016 C 
HETATM   12  C1  UNL     1       0.801  58.565  73.302  1.00  0.00     0.006 C 
ENDBRANCH  10  11
ENDBRANCH   4  10
ENDBRANCH   1   2
BRANCH   1  13
HETATM   13  C7  UNL     1       0.884  64.524  70.887  1.00  0.00     0.245 C 
HETATM   14  O1  UNL     1       0.108  64.834  71.842  1.00  0.00    -0.271 OA
HETATM   15  N4  UNL     1       0.762  65.361  69.711  1.00  0.00    -0.336 N 
ATOM     16  H4  UNL     1       1.398  65.181  68.934  1.00  0.00     0.168 HD
BRANCH  15  17
HETATM   17  C8  UNL     1      -0.151  66.382  69.569  1.00  0.00     0.087 C 
HETATM   18  C9  UNL     1      -1.234  66.757  68.738  1.00  0.00    -0.008 C 
BRANCH  18  19
HETATM   19  C10 UNL     1      -1.415  66.728  67.273  1.00  0.00     0.048 C 
BRANCH  19  20
HETATM   20  C11 UNL     1      -0.800  68.045  66.706  1.00  0.00     0.122 C 
BRANCH  20  21
HETATM   21  N5  UNL     1       0.083  67.874  65.616  1.00  0.00    -0.397 N 
ATOM     22  H5  UNL     1      -0.025  68.341  64.715  1.00  0.00     0.158 HD
BRANCH  21  23
HETATM   23  C12 UNL     1       1.146  66.969  65.925  1.00  0.00     0.108 C 
HETATM   24  C13 UNL     1       2.140  66.638  64.932  1.00  0.00     0.217 C 
BRANCH  24  25
HETATM   25  N6  UNL     1       3.129  67.577  64.539  1.00  0.00    -0.057 N 
HETATM   26  C14 UNL     1       3.643  68.500  65.497  1.00  0.00     0.277 C 
HETATM   27  C15 UNL     1       2.705  68.294  63.345  1.00  0.00     0.277 C 
HETATM   28  C16 UNL     1       4.328  66.777  64.102  1.00  0.00     0.277 C 
ENDBRANCH  24  25
ENDBRANCH  21  23
ENDBRANCH  20  21
ENDBRANCH  19  20
ENDBRANCH  18  19
ENDBRANCH  15  17
ENDBRANCH   1  13
BRANCH   1  29
HETATM   29  C17 UNL     1       2.694  62.901  69.975  1.00  0.00     0.084 C 
BRANCH  29  30
HETATM   30  C18 UNL     1       3.622  63.785  69.304  1.00  0.00    -0.047 A 
HETATM   31  C19 UNL     1       4.665  64.407  69.938  1.00  0.00     0.008 A 
HETATM   32  C20 UNL     1       5.471  65.272  69.223  1.00  0.00     0.001 A 
HETATM   33  C21 UNL     1       5.255  65.535  67.867  1.00  0.00     0.000 A 
HETATM   34  C22 UNL     1       4.206  64.890  67.283  1.00  0.00     0.001 A 
HETATM   35  C23 UNL     1       3.372  64.023  67.935  1.00  0.00     0.008 A 
ENDBRANCH  29  30
BRANCH  29  36
HETATM   36  C24 UNL     1       3.289  61.611  70.474  1.00  0.00    -0.047 A 
HETATM   37  C25 UNL     1       4.037  61.565  71.624  1.00  0.00     0.008 A 
HETATM   38  C26 UNL     1       4.560  60.413  72.162  1.00  0.00     0.001 A 
HETATM   39  C27 UNL     1       4.331  59.206  71.517  1.00  0.00     0.000 A 
HETATM   40  C28 UNL     1       3.585  59.217  70.358  1.00  0.00     0.001 A 
HETATM   41  C29 UNL     1       3.072  60.404  69.847  1.00  0.00     0.008 A 
ENDBRANCH  29  36
ENDBRANCH   1  29
TORSDOF 13
ENDMDL
MODEL 2
REMARK VINA RESULT: -9.693924775      0.572      1.156
REMARK  13 active torsions:
REMARK  status: ('A' for Active; 'I' for Inactive)
REMARK    1  A    between atoms: C2_2  and  C3_3 
REMARK    2  A    between atoms: C3_3  and  N1_4 
REMARK       I    between atoms: C4_6  and  N2_7 
REMARK       I    between atoms: C4_6  and  N3_10 
REMARK    3  A    between atoms: N3_10  and  C6_12 
REMARK    4  A    between atoms: C6_12  and  C7_13 
REMARK    5  A    between atoms: C6_12  and  C17_29 
REMARK       I    between atoms: C7_13  and  N4_15 
REMARK    6  A    between atoms: N4_15  and  C8_17 
REMARK    7  A    between atoms: C9_18  and  C10_19 
REMARK    8  A    between atoms: C10_19  and  C11_20 
REMARK    9  A    between atoms: C11_20  and  N5_21 
REMARK   10  A    between atoms: N5_21  and  C12_23 
REMARK   11  A    between atoms: C13_24  and  N6_25 
REMARK   12  A    between atoms: C17_29  and  C18_30 
REMARK   13  A    between atoms: C17_29  and  C24_36 
ROOT
HETATM    1  C6  UNL     1       1.652  63.332  71.142  1.00  0.00     0.204 C 
ENDROOT
BRANCH   1   2
HETATM    2  N3  UNL     1       0.809  62.173  71.515  1.00  0.00    -0.212 N 
HETATM    3  C4  UNL     1       0.286  61.798  72.752  1.00  0.00     0.670 C 
HETATM    4  N1  UNL     1      -0.509  60.800  72.768  1.00  0.00    -0.227 N 
HETATM    5  N2  UNL     1       0.513  62.465  73.981  1.00  0.00    -0.231 N 
ATOM      6  H1  UNL     1      -0.659  60.334  71.874  1.00  0.00     0.177 HD
HETATM    7  C5  UNL     1       1.562  61.942  74.826  1.00  0.00     0.165 C 
ATOM      8  H2  UNL     1      -0.039  63.278  74.256  1.00  0.00     0.177 HD
ATOM      9  H3  UNL     1       0.572  61.549  70.744  1.00  0.00     0.178 HD
BRANCH   4  10
HETATM   10  C3  UNL     1      -1.208  60.262  73.867  1.00  0.00     0.137 C 
BRANCH  10  11
HETATM   11  C2  UNL     1      -0.670  58.846  74.181  1.00  0.00     0.016 C 
HETATM   12  C1  UNL     1       0.609  58.548  73.497  1.00  0.00     0.006 C 
ENDBRANCH  10  11
ENDBRANCH   4  10
ENDBRANCH   1   2
BRANCH   1  13
HETATM   13  C7  UNL     1       0.764  64.473  70.981  1.00  0.00     0.245 C 
HETATM   14  O1  UNL     1       0.063  64.878  71.957  1.00  0.00    -0.271 OA
HETATM   15  N4  UNL     1       0.565  65.203  69.746  1.00  0.00    -0.336 N 
ATOM     16  H4  UNL     1       1.140  64.945  68.944  1.00  0.00     0.168 HD
BRANCH  15  17
HETATM   17  C8  UNL     1      -0.347  66.221  69.579  1.00  0.00     0.087 C 
HETATM   18  C9  UNL     1      -1.170  66.781  68.573  1.00  0.00    -0.008 C 
BRANCH  18  19
HETATM   19  C10 UNL     1      -0.918  67.113  67.156  1.00  0.00     0.048 C 
BRANCH  19  20
HETATM   20  C11 UNL     1       0.545  67.646  67.060  1.00  0.00     0.122 C 
BRANCH  20  21
HETATM   21  N5  UNL     1       1.487  66.726  66.547  1.00  0.00    -0.397 N 
ATOM     22  H5  UNL     1       2.126  66.182  67.126  1.00  0.00     0.158 HD
BRANCH  21  23
HETATM   23  C12 UNL     1       1.438  66.650  65.120  1.00  0.00     0.108 C 
HETATM   24  C13 UNL     1       2.060  67.669  64.309  1.00  0.00     0.217 C 
BRANCH  24  25
HETATM   25  N6  UNL     1       3.472  67.763  64.200  1.00  0.00    -0.057 N 
HETATM   26  C14 UNL     1       4.259  66.572  64.198  1.00  0.00     0.277 C 
HETATM   27  C15 UNL     1       3.999  68.697  65.184  1.00  0.00     0.277 C 
HETATM   28  C16 UNL     1       3.755  68.406  62.868  1.00  0.00     0.277 C 
ENDBRANCH  24  25
ENDBRANCH  21  23
ENDBRANCH  20  21
ENDBRANCH  19  20
ENDBRANCH  18  19
ENDBRANCH  15  17
ENDBRANCH   1  13
BRANCH   1  29
HETATM   29  C17 UNL     1       2.588  62.830  70.132  1.00  0.00     0.084 C 
BRANCH  29  30
HETATM   30  C18 UNL     1       3.542  63.696  69.474  1.00  0.00    -0.047 A 
HETATM   31  C19 UNL     1       4.544  64.356  70.135  1.00  0.00     0.008 A 
HETATM   32  C20 UNL     1       5.379  65.199  69.428  1.00  0.00     0.001 A 
HETATM   33  C21 UNL     1       5.233  65.404  68.052  1.00  0.00     0.000 A 
HETATM   34  C22 UNL     1       4.222  64.723  67.442  1.00  0.00     0.001 A 
HETATM   35  C23 UNL     1       3.362  63.875  68.085  1.00  0.00     0.008 A 
ENDBRANCH  29  30
BRANCH  29  36
HETATM   36  C24 UNL     1       3.155  61.537  70.657  1.00  0.00    -0.047 A 
HETATM   37  C25 UNL     1       2.998  60.356  69.975  1.00  0.00     0.008 A 
HETATM   38  C26 UNL     1       3.539  59.156  70.371  1.00  0.00     0.001 A 
HETATM   39  C27 UNL     1       4.294  59.110  71.534  1.00  0.00     0.000 A 
HETATM   40  C28 UNL     1       4.469  60.279  72.245  1.00  0.00     0.001 A 
HETATM   41  C29 UNL     1       3.907  61.473  71.809  1.00  0.00     0.008 A 
ENDBRANCH  29  36
ENDBRANCH   1  29
TORSDOF 13
ENDMDL
MODEL 3
REMARK VINA RESULT: -9.466078665      1.405      3.608
REMARK  13 active torsions:
REMARK  status: ('A' for Active; 'I' for Inactive)
REMARK    1  A    between atoms: C2_2  and  C3_3 
REMARK    2  A    between atoms: C3_3  and  N1_4 
REMARK       I    between atoms: C4_6  and  N2_7 
REMARK       I    between atoms: C4_6  and  N3_10 
REMARK    3  A    between atoms: N3_10  and  C6_12 
REMARK    4  A    between atoms: C6_12  and  C7_13 
REMARK    5  A    between atoms: C6_12  and  C17_29 
REMARK       I    between atoms: C7_13  and  N4_15 
REMARK    6  A    between atoms: N4_15  and  C8_17 
REMARK    7  A    between atoms: C9_18  and  C10_19 
REMARK    8  A    between atoms: C10_19  and  C11_20 
REMARK    9  A    between atoms: C11_20  and  N5_21 
REMARK   10  A    between atoms: N5_21  and  C12_23 
REMARK   11  A    between atoms: C13_24  and  N6_25 
REMARK   12  A    between atoms: C17_29  and  C18_30 
REMARK   13  A    between atoms: C17_29  and  C24_36 
ROOT
HETATM    1  C6  UNL     1       2.551  64.648  70.565  1.00  0.00     0.204 C 
ENDROOT
BRANCH   1   2
HETATM    2  N3  UNL     1       1.537  63.575  70.678  1.00  0.00    -0.212 N 
HETATM    3  C4  UNL     1       0.919  63.032  71.804  1.00  0.00     0.670 C 
HETATM    4  N1  UNL     1      -0.012  62.182  71.602  1.00  0.00    -0.227 N 
HETATM    5  N2  UNL     1       1.191  63.388  73.148  1.00  0.00    -0.231 N 
ATOM      6  H1  UNL     1      -0.192  61.940  70.628  1.00  0.00     0.177 HD
HETATM    7  C5  UNL     1       2.121  62.552  73.871  1.00  0.00     0.165 C 
ATOM      8  H2  UNL     1       0.751  64.198  73.585  1.00  0.00     0.177 HD
ATOM      9  H3  UNL     1       1.243  63.168  69.790  1.00  0.00     0.178 HD
BRANCH   4  10
HETATM   10  C3  UNL     1      -0.822  61.536  72.558  1.00  0.00     0.137 C 
BRANCH  10  11
HETATM   11  C2  UNL     1      -0.182  60.185  72.951  1.00  0.00     0.016 C 
HETATM   12  C1  UNL     1      -0.860  59.533  74.095  1.00  0.00     0.006 C 
ENDBRANCH  10  11
ENDBRANCH   4  10
ENDBRANCH   1   2
BRANCH   1  13
HETATM   13  C7  UNL     1       1.895  65.794  69.954  1.00  0.00     0.245 C 
HETATM   14  O1  UNL     1       2.455  66.932  69.967  1.00  0.00    -0.271 OA
HETATM   15  N4  UNL     1       0.585  65.770  69.336  1.00  0.00    -0.336 N 
ATOM     16  H4  UNL     1       0.113  64.869  69.260  1.00  0.00     0.168 HD
BRANCH  15  17
HETATM   17  C8  UNL     1      -0.068  66.878  68.845  1.00  0.00     0.087 C 
HETATM   18  C9  UNL     1      -0.228  67.591  67.633  1.00  0.00    -0.008 C 
BRANCH  18  19
HETATM   19  C10 UNL     1       0.736  68.010  66.595  1.00  0.00     0.048 C 
BRANCH  19  20
HETATM   20  C11 UNL     1       1.079  66.746  65.747  1.00  0.00     0.122 C 
BRANCH  20  21
HETATM   21  N5  UNL     1       1.544  67.010  64.439  1.00  0.00    -0.397 N 
ATOM     22  H5  UNL     1       1.438  66.366  63.655  1.00  0.00     0.158 HD
BRANCH  21  23
HETATM   23  C12 UNL     1       2.182  68.287  64.344  1.00  0.00     0.108 C 
HETATM   24  C13 UNL     1       3.578  68.384  63.993  1.00  0.00     0.217 C 
BRANCH  24  25
HETATM   25  N6  UNL     1       4.025  68.126  62.671  1.00  0.00    -0.057 N 
HETATM   26  C14 UNL     1       3.170  68.423  61.568  1.00  0.00     0.277 C 
HETATM   27  C15 UNL     1       4.516  66.760  62.557  1.00  0.00     0.277 C 
HETATM   28  C16 UNL     1       5.239  68.991  62.454  1.00  0.00     0.277 C 
ENDBRANCH  24  25
ENDBRANCH  21  23
ENDBRANCH  20  21
ENDBRANCH  19  20
ENDBRANCH  18  19
ENDBRANCH  15  17
ENDBRANCH   1  13
BRANCH   1  29
HETATM   29  C17 UNL     1       3.763  63.994  70.066  1.00  0.00     0.084 C 
BRANCH  29  30
HETATM   30  C18 UNL     1       4.002  62.579  70.252  1.00  0.00    -0.047 A 
HETATM   31  C19 UNL     1       3.380  61.605  69.516  1.00  0.00     0.008 A 
HETATM   32  C20 UNL     1       3.637  60.278  69.799  1.00  0.00     0.001 A 
HETATM   33  C21 UNL     1       4.515  59.893  70.817  1.00  0.00     0.000 A 
HETATM   34  C22 UNL     1       5.109  60.900  71.518  1.00  0.00     0.001 A 
HETATM   35  C23 UNL     1       4.896  62.232  71.288  1.00  0.00     0.008 A 
ENDBRANCH  29  30
BRANCH  29  36
HETATM   36  C24 UNL     1       3.998  64.502  68.668  1.00  0.00    -0.047 A 
HETATM   37  C25 UNL     1       4.889  65.514  68.414  1.00  0.00     0.008 A 
HETATM   38  C26 UNL     1       5.190  65.983  67.156  1.00  0.00     0.001 A 
HETATM   39  C27 UNL     1       4.561  65.414  66.059  1.00  0.00     0.000 A 
HETATM   40  C28 UNL     1       3.657  64.396  66.279  1.00  0.00     0.001 A 
HETATM   41  C29 UNL     1       3.383  63.949  67.567  1.00  0.00     0.008 A 
ENDBRANCH  29  36
ENDBRANCH   1  29
TORSDOF 13
ENDMDL
MODEL 4
REMARK VINA RESULT: -9.444716175      1.255      3.562
REMARK  13 active torsions:
REMARK  status: ('A' for Active; 'I' for Inactive)
REMARK    1  A    between atoms: C2_2  and  C3_3 
REMARK    2  A    between atoms: C3_3  and  N1_4 
REMARK       I    between atoms: C4_6  and  N2_7 
REMARK       I    between atoms: C4_6  and  N3_10 
REMARK    3  A    between atoms: N3_10  and  C6_12 
REMARK    4  A    between atoms: C6_12  and  C7_13 
REMARK    5  A    between atoms: C6_12  and  C17_29 
REMARK       I    between atoms: C7_13  and  N4_15 
REMARK    6  A    between atoms: N4_15  and  C8_17 
REMARK    7  A    between atoms: C9_18  and  C10_19 
REMARK    8  A    between atoms: C10_19  and  C11_20 
REMARK    9  A    between atoms: C11_20  and  N5_21 
REMARK   10  A    between atoms: N5_21  and  C12_23 
REMARK   11  A    between atoms: C13_24  and  N6_25 
REMARK   12  A    between atoms: C17_29  and  C18_30 
REMARK   13  A    between atoms: C17_29  and  C24_36 
ROOT
HETATM    1  C6  UNL     1       1.951  63.208  71.575  1.00  0.00     0.204 C 
ENDROOT
BRANCH   1   2
HETATM    2  N3  UNL     1       1.107  62.069  72.006  1.00  0.00    -0.212 N 
HETATM    3  C4  UNL     1       0.063  62.018  72.929  1.00  0.00     0.670 C 
HETATM    4  N1  UNL     1      -0.571  60.914  73.027  1.00  0.00    -0.227 N 
HETATM    5  N2  UNL     1      -0.393  63.100  73.721  1.00  0.00    -0.231 N 
ATOM      6  H1  UNL     1      -0.226  60.149  72.449  1.00  0.00     0.177 HD
HETATM    7  C5  UNL     1       0.126  63.192  75.066  1.00  0.00     0.165 C 
ATOM      8  H2  UNL     1      -1.059  63.783  73.358  1.00  0.00     0.177 HD
ATOM      9  H3  UNL     1       1.325  61.180  71.556  1.00  0.00     0.178 HD
BRANCH   4  10
HETATM   10  C3  UNL     1      -1.689  60.622  73.834  1.00  0.00     0.137 C 
BRANCH  10  11
HETATM   11  C2  UNL     1      -1.414  59.342  74.657  1.00  0.00     0.016 C 
HETATM   12  C1  UNL     1      -0.354  58.491  74.068  1.00  0.00     0.006 C 
ENDBRANCH  10  11
ENDBRANCH   4  10
ENDBRANCH   1   2
BRANCH   1  13
HETATM   13  C7  UNL     1       1.122  64.059  70.734  1.00  0.00     0.245 C 
HETATM   14  O1  UNL     1       0.248  63.546  69.973  1.00  0.00    -0.271 OA
HETATM   15  N4  UNL     1       1.230  65.501  70.650  1.00  0.00    -0.336 N 
ATOM     16  H4  UNL     1       1.888  65.965  71.276  1.00  0.00     0.168 HD
BRANCH  15  17
HETATM   17  C8  UNL     1       0.507  66.289  69.782  1.00  0.00     0.087 C 
HETATM   18  C9  UNL     1       0.709  67.134  68.664  1.00  0.00    -0.008 C 
BRANCH  18  19
HETATM   19  C10 UNL     1       1.713  68.179  68.380  1.00  0.00     0.048 C 
BRANCH  19  20
HETATM   20  C11 UNL     1       2.284  67.896  66.956  1.00  0.00     0.122 C 
BRANCH  20  21
HETATM   21  N5  UNL     1       1.852  66.687  66.366  1.00  0.00    -0.397 N 
ATOM     22  H5  UNL     1       1.615  65.847  66.894  1.00  0.00     0.158 HD
BRANCH  21  23
HETATM   23  C12 UNL     1       1.789  66.780  64.940  1.00  0.00     0.108 C 
HETATM   24  C13 UNL     1       2.905  67.304  64.190  1.00  0.00     0.217 C 
BRANCH  24  25
HETATM   25  N6  UNL     1       4.101  66.557  64.032  1.00  0.00    -0.057 N 
HETATM   26  C14 UNL     1       4.071  65.138  64.181  1.00  0.00     0.277 C 
HETATM   27  C15 UNL     1       5.163  67.115  64.858  1.00  0.00     0.277 C 
HETATM   28  C16 UNL     1       4.559  66.779  62.614  1.00  0.00     0.277 C 
ENDBRANCH  24  25
ENDBRANCH  21  23
ENDBRANCH  20  21
ENDBRANCH  19  20
ENDBRANCH  18  19
ENDBRANCH  15  17
ENDBRANCH   1  13
BRANCH   1  29
HETATM   29  C17 UNL     1       3.237  62.622  71.191  1.00  0.00     0.084 C 
BRANCH  29  30
HETATM   30  C18 UNL     1       3.401  61.199  70.989  1.00  0.00    -0.047 A 
HETATM   31  C19 UNL     1       2.973  60.541  69.866  1.00  0.00     0.008 A 
HETATM   32  C20 UNL     1       3.131  59.172  69.783  1.00  0.00     0.001 A 
HETATM   33  C21 UNL     1       3.716  58.430  70.814  1.00  0.00     0.000 A 
HETATM   34  C22 UNL     1       4.128  59.131  71.908  1.00  0.00     0.001 A 
HETATM   35  C23 UNL     1       3.999  60.486  72.050  1.00  0.00     0.008 A 
ENDBRANCH  29  30
BRANCH  29  36
HETATM   36  C24 UNL     1       3.813  63.492  70.105  1.00  0.00    -0.047 A 
HETATM   37  C25 UNL     1       3.384  63.391  68.804  1.00  0.00     0.008 A 
HETATM   38  C26 UNL     1       3.829  64.193  67.779  1.00  0.00     0.001 A 
HETATM   39  C27 UNL     1       4.774  65.171  68.052  1.00  0.00     0.000 A 
HETATM   40  C28 UNL     1       5.228  65.297  69.348  1.00  0.00     0.001 A 
HETATM   41  C29 UNL     1       4.751  64.468  70.357  1.00  0.00     0.008 A 
ENDBRANCH  29  36
ENDBRANCH   1  29
TORSDOF 13
ENDMDL
MODEL 5
REMARK VINA RESULT: -9.270585773      1.112      1.669
REMARK  13 active torsions:
REMARK  status: ('A' for Active; 'I' for Inactive)
REMARK    1  A    between atoms: C2_2  and  C3_3 
REMARK    2  A    between atoms: C3_3  and  N1_4 
REMARK       I    between atoms: C4_6  and  N2_7 
REMARK       I    between atoms: C4_6  and  N3_10 
REMARK    3  A    between atoms: N3_10  and  C6_12 
REMARK    4  A    between atoms: C6_12  and  C7_13 
REMARK    5  A    between atoms: C6_12  and  C17_29 
REMARK       I    between atoms: C7_13  and  N4_15 
REMARK    6  A    between atoms: N4_15  and  C8_17 
REMARK    7  A    between atoms: C9_18  and  C10_19 
REMARK    8  A    between atoms: C10_19  and  C11_20 
REMARK    9  A    between atoms: C11_20  and  N5_21 
REMARK   10  A    between atoms: N5_21  and  C12_23 
REMARK   11  A    between atoms: C13_24  and  N6_25 
REMARK   12  A    between atoms: C17_29  and  C18_30 
REMARK   13  A    between atoms: C17_29  and  C24_36 
ROOT
HETATM    1  C6  UNL     1       2.014  63.951  70.442  1.00  0.00     0.204 C 
ENDROOT
BRANCH   1   2
HETATM    2  N3  UNL     1       1.085  62.866  70.835  1.00  0.00    -0.212 N 
HETATM    3  C4  UNL     1       0.518  62.568  72.074  1.00  0.00     0.670 C 
HETATM    4  N1  UNL     1      -0.347  61.629  72.105  1.00  0.00    -0.227 N 
HETATM    5  N2  UNL     1       0.772  63.256  73.285  1.00  0.00    -0.231 N 
ATOM      6  H1  UNL     1      -0.515  61.148  71.223  1.00  0.00     0.177 HD
HETATM    7  C5  UNL     1       1.768  62.688  74.165  1.00  0.00     0.165 C 
ATOM      8  H2  UNL     1       0.275  64.113  73.526  1.00  0.00     0.177 HD
ATOM      9  H3  UNL     1       0.817  62.237  70.079  1.00  0.00     0.178 HD
BRANCH   4  10
HETATM   10  C3  UNL     1      -1.098  61.176  73.208  1.00  0.00     0.137 C 
BRANCH  10  11
HETATM   11  C2  UNL     1      -0.535  59.823  73.698  1.00  0.00     0.016 C 
HETATM   12  C1  UNL     1       0.702  59.419  72.991  1.00  0.00     0.006 C 
ENDBRANCH  10  11
ENDBRANCH   4  10
ENDBRANCH   1   2
BRANCH   1  13
HETATM   13  C7  UNL     1       1.220  65.161  70.292  1.00  0.00     0.245 C 
HETATM   14  O1  UNL     1       0.353  65.466  71.165  1.00  0.00    -0.271 OA
HETATM   15  N4  UNL     1       1.301  66.074  69.171  1.00  0.00    -0.336 N 
ATOM     16  H4  UNL     1       2.015  65.896  68.465  1.00  0.00     0.168 HD
BRANCH  15  17
HETATM   17  C8  UNL     1       0.480  67.165  68.991  1.00  0.00     0.087 C 
HETATM   18  C9  UNL     1      -0.259  67.806  67.968  1.00  0.00    -0.008 C 
BRANCH  18  19
HETATM   19  C10 UNL     1       0.071  68.139  66.567  1.00  0.00     0.048 C 
BRANCH  19  20
HETATM   20  C11 UNL     1       0.710  66.868  65.929  1.00  0.00     0.122 C 
BRANCH  20  21
HETATM   21  N5  UNL     1       1.302  67.066  64.661  1.00  0.00    -0.397 N 
ATOM     22  H5  UNL     1       1.218  66.411  63.883  1.00  0.00     0.158 HD
BRANCH  21  23
HETATM   23  C12 UNL     1       2.034  68.293  64.598  1.00  0.00     0.108 C 
HETATM   24  C13 UNL     1       3.438  68.293  64.262  1.00  0.00     0.217 C 
BRANCH  24  25
HETATM   25  N6  UNL     1       3.879  68.027  62.940  1.00  0.00    -0.057 N 
HETATM   26  C14 UNL     1       3.021  68.322  61.838  1.00  0.00     0.277 C 
HETATM   27  C15 UNL     1       4.365  66.659  62.830  1.00  0.00     0.277 C 
HETATM   28  C16 UNL     1       5.094  68.887  62.714  1.00  0.00     0.277 C 
ENDBRANCH  24  25
ENDBRANCH  21  23
ENDBRANCH  20  21
ENDBRANCH  19  20
ENDBRANCH  18  19
ENDBRANCH  15  17
ENDBRANCH   1  13
BRANCH   1  29
HETATM   29  C17 UNL     1       2.886  63.371  69.418  1.00  0.00     0.084 C 
BRANCH  29  30
HETATM   30  C18 UNL     1       3.668  64.195  68.521  1.00  0.00    -0.047 A 
HETATM   31  C19 UNL     1       3.433  64.278  67.174  1.00  0.00     0.008 A 
HETATM   32  C20 UNL     1       4.262  65.056  66.390  1.00  0.00     0.001 A 
HETATM   33  C21 UNL     1       5.340  65.766  66.929  1.00  0.00     0.000 A 
HETATM   34  C22 UNL     1       5.529  65.652  68.274  1.00  0.00     0.001 A 
HETATM   35  C23 UNL     1       4.744  64.897  69.103  1.00  0.00     0.008 A 
ENDBRANCH  29  30
BRANCH  29  36
HETATM   36  C24 UNL     1       3.641  62.241  70.066  1.00  0.00    -0.047 A 
HETATM   37  C25 UNL     1       4.361  62.429  71.220  1.00  0.00     0.008 A 
HETATM   38  C26 UNL     1       5.024  61.428  71.891  1.00  0.00     0.001 A 
HETATM   39  C27 UNL     1       4.979  60.137  71.386  1.00  0.00     0.000 A 
HETATM   40  C28 UNL     1       4.267  59.913  70.227  1.00  0.00     0.001 A 
HETATM   41  C29 UNL     1       3.607  60.953  69.580  1.00  0.00     0.008 A 
ENDBRANCH  29  36
ENDBRANCH   1  29
TORSDOF 13
ENDMDL
