MODEL 1
REMARK VINA RESULT: -10.358683916      0.000      0.000
REMARK  14 active torsions:
REMARK  status: ('A' for Active; 'I' for Inactive)
REMARK    1  A    between atoms: C2_2  and  C3_3 
REMARK    2  A    between atoms: C3_3  and  C4_4 
REMARK    3  A    between atoms: C4_4  and  N1_5 
REMARK       I    between atoms: N1_5  and  C5_7 
REMARK    4  A    between atoms: C5_7  and  C6_9 
REMARK    5  A    between atoms: C6_9  and  C8_11 
REMARK    6  A    between atoms: C6_9  and  C26_35 
REMARK    7  A    between atoms: C8_11  and  C9_12 
REMARK       I    between atoms: C9_12  and  N2_14 
REMARK    8  A    between atoms: N2_14  and  C10_16 
REMARK    9  A    between atoms: C10_16  and  C11_17 
REMARK   10  A    between atoms: C10_16  and  C22_28 
REMARK   11  A    between atoms: C11_17  and  C12_18 
REMARK       I    between atoms: C22_28  and  N3_30 
REMARK   12  A    between atoms: N3_30  and  C23_32 
REMARK   13  A    between atoms: C23_32  and  C24_33 
REMARK   14  A    between atoms: C26_35  and  C27_36 
ROOT
HETATM    1  C9  UNL     1       3.168  65.369  69.074  1.00  0.00     0.219 C 
HETATM    2  O2  UNL     1       3.439  64.607  68.096  1.00  0.00    -0.274 OA
HETATM    3  N2  UNL     1       2.647  64.759  70.244  1.00  0.00    -0.347 N 
ATOM      4  H2  UNL     1       2.415  65.332  71.055  1.00  0.00     0.163 HD
ENDROOT
BRANCH   3   5
HETATM    5  C10 UNL     1       2.441  63.315  70.290  1.00  0.00     0.180 C 
BRANCH   5   6
HETATM    6  C11 UNL     1       3.518  62.638  71.107  1.00  0.00     0.074 C 
BRANCH   6   7
HETATM    7  C12 UNL     1       3.507  61.179  71.038  1.00  0.00    -0.045 A 
HETATM    8  C13 UNL     1       3.588  60.508  69.815  1.00  0.00     0.008 A 
HETATM    9  C14 UNL     1       3.559  59.155  69.671  1.00  0.00     0.001 A 
HETATM   10  C15 UNL     1       3.441  58.369  70.785  1.00  0.00     0.012 A 
HETATM   11  C16 UNL     1       3.356  58.969  72.023  1.00  0.00    -0.025 A 
HETATM   12  C17 UNL     1       3.245  58.145  73.135  1.00  0.00     0.012 A 
HETATM   13  C21 UNL     1       3.389  60.348  72.138  1.00  0.00    -0.020 A 
HETATM   14  C18 UNL     1       3.165  58.701  74.402  1.00  0.00     0.001 A 
HETATM   15  C19 UNL     1       3.201  60.076  74.504  1.00  0.00     0.001 A 
HETATM   16  C20 UNL     1       3.311  60.879  73.383  1.00  0.00     0.013 A 
ENDBRANCH   6   7
ENDBRANCH   5   6
BRANCH   5  17
HETATM   17  C22 UNL     1       1.092  63.097  70.868  1.00  0.00     0.241 C 
HETATM   18  O3  UNL     1       0.072  62.945  70.148  1.00  0.00    -0.271 OA
HETATM   19  N3  UNL     1       0.923  63.054  72.280  1.00  0.00    -0.356 N 
ATOM     20  H3  UNL     1       1.737  63.175  72.883  1.00  0.00     0.162 HD
BRANCH  19  21
HETATM   21  C23 UNL     1      -0.374  62.843  72.881  1.00  0.00     0.149 C 
BRANCH  21  22
HETATM   22  C24 UNL     1      -0.425  61.517  73.592  1.00  0.00    -0.018 C 
HETATM   23  C25 UNL     1      -0.247  60.383  72.938  1.00  0.00     0.008 C 
ENDBRANCH  21  22
ENDBRANCH  19  21
ENDBRANCH   5  17
ENDBRANCH   3   5
BRANCH   1  24
HETATM   24  C8  UNL     1       3.371  66.835  69.041  1.00  0.00     0.122 C 
BRANCH  24  25
HETATM   25  C6  UNL     1       2.247  67.545  68.309  1.00  0.00     0.051 C 
HETATM   26  C7  UNL     1       2.287  68.988  68.790  1.00  0.00     0.026 C 
BRANCH  25  27
HETATM   27  C5  UNL     1       2.458  67.445  66.858  1.00  0.00     0.226 C 
HETATM   28  N1  UNL     1       3.317  68.355  66.210  1.00  0.00    -0.360 N 
ATOM     29  H1  UNL     1       3.781  69.073  66.768  1.00  0.00     0.162 HD
HETATM   30  O1  UNL     1       1.908  66.572  66.110  1.00  0.00    -0.273 OA
BRANCH  28  31
HETATM   31  C4  UNL     1       3.567  68.313  64.793  1.00  0.00     0.126 C 
BRANCH  31  32
HETATM   32  C3  UNL     1       4.876  68.973  64.446  1.00  0.00     0.046 C 
BRANCH  32  33
HETATM   33  C2  UNL     1       5.155  68.980  63.008  1.00  0.00    -0.035 C 
HETATM   34  C1  UNL     1       4.226  68.647  62.128  1.00  0.00     0.007 C 
ENDBRANCH  32  33
ENDBRANCH  31  32
ENDBRANCH  28  31
ENDBRANCH  25  27
BRANCH  25  35
HETATM   35  C26 UNL     1       0.950  66.944  68.695  1.00  0.00     0.076 C 
BRANCH  35  36
HETATM   36  C27 UNL     1      -0.238  67.383  67.968  1.00  0.00     0.010 A 
HETATM   37  C28 UNL     1      -1.451  66.684  68.106  1.00  0.00     0.026 A 
HETATM   38  C29 UNL     1      -2.385  67.324  67.334  1.00  0.00     0.019 A 
HETATM   39  C30 UNL     1      -1.784  68.392  66.728  1.00  0.00     0.088 A 
HETATM   40  N4  UNL     1      -0.490  68.396  67.134  1.00  0.00    -0.369 N 
ATOM     41  H4  UNL     1       0.202  69.085  66.840  1.00  0.00     0.165 HD
ENDBRANCH  35  36
ENDBRANCH  25  35
ENDBRANCH  24  25
ENDBRANCH   1  24
TORSDOF 14
ENDMDL
MODEL 2
REMARK VINA RESULT: -10.273194232      1.311      3.944
REMARK  14 active torsions:
REMARK  status: ('A' for Active; 'I' for Inactive)
REMARK    1  A    between atoms: C2_2  and  C3_3 
REMARK    2  A    between atoms: C3_3  and  C4_4 
REMARK    3  A    between atoms: C4_4  and  N1_5 
REMARK       I    between atoms: N1_5  and  C5_7 
REMARK    4  A    between atoms: C5_7  and  C6_9 
REMARK    5  A    between atoms: C6_9  and  C8_11 
REMARK    6  A    between atoms: C6_9  and  C26_35 
REMARK    7  A    between atoms: C8_11  and  C9_12 
REMARK       I    between atoms: C9_12  and  N2_14 
REMARK    8  A    between atoms: N2_14  and  C10_16 
REMARK    9  A    between atoms: C10_16  and  C11_17 
REMARK   10  A    between atoms: C10_16  and  C22_28 
REMARK   11  A    between atoms: C11_17  and  C12_18 
REMARK       I    between atoms: C22_28  and  N3_30 
REMARK   12  A    between atoms: N3_30  and  C23_32 
REMARK   13  A    between atoms: C23_32  and  C24_33 
REMARK   14  A    between atoms: C26_35  and  C27_36 
ROOT
HETATM    1  C9  UNL     1       3.727  64.772  67.511  1.00  0.00     0.219 C 
HETATM    2  O2  UNL     1       3.362  63.810  66.769  1.00  0.00    -0.274 OA
HETATM    3  N2  UNL     1       3.611  64.588  68.913  1.00  0.00    -0.347 N 
ATOM      4  H2  UNL     1       3.893  65.334  69.549  1.00  0.00     0.163 HD
ENDROOT
BRANCH   3   5
HETATM    5  C10 UNL     1       3.090  63.334  69.449  1.00  0.00     0.180 C 
BRANCH   5   6
HETATM    6  C11 UNL     1       4.103  62.664  70.349  1.00  0.00     0.074 C 
BRANCH   6   7
HETATM    7  C12 UNL     1       3.865  61.241  70.579  1.00  0.00    -0.045 A 
HETATM    8  C13 UNL     1       4.001  60.305  69.552  1.00  0.00     0.008 A 
HETATM    9  C14 UNL     1       3.772  58.971  69.685  1.00  0.00     0.001 A 
HETATM   10  C15 UNL     1       3.379  58.480  70.901  1.00  0.00     0.012 A 
HETATM   11  C16 UNL     1       3.226  59.352  71.957  1.00  0.00    -0.025 A 
HETATM   12  C17 UNL     1       2.834  58.824  73.179  1.00  0.00     0.012 A 
HETATM   13  C21 UNL     1       3.466  60.705  71.791  1.00  0.00    -0.020 A 
HETATM   14  C18 UNL     1       2.675  59.658  74.274  1.00  0.00     0.001 A 
HETATM   15  C19 UNL     1       2.918  61.004  74.097  1.00  0.00     0.001 A 
HETATM   16  C20 UNL     1       3.308  61.510  72.870  1.00  0.00     0.013 A 
ENDBRANCH   6   7
ENDBRANCH   5   6
BRANCH   5  17
HETATM   17  C22 UNL     1       1.842  63.670  70.178  1.00  0.00     0.241 C 
HETATM   18  O3  UNL     1       1.649  64.804  70.688  1.00  0.00    -0.271 OA
HETATM   19  N3  UNL     1       0.816  62.695  70.316  1.00  0.00    -0.356 N 
ATOM     20  H3  UNL     1       0.951  61.769  69.910  1.00  0.00     0.162 HD
BRANCH  19  21
HETATM   21  C23 UNL     1      -0.414  62.985  71.018  1.00  0.00     0.149 C 
BRANCH  21  22
HETATM   22  C24 UNL     1      -0.397  62.381  72.397  1.00  0.00    -0.018 C 
HETATM   23  C25 UNL     1      -0.379  61.071  72.570  1.00  0.00     0.008 C 
ENDBRANCH  21  22
ENDBRANCH  19  21
ENDBRANCH   5  17
ENDBRANCH   3   5
BRANCH   1  24
HETATM   24  C8  UNL     1       4.257  66.049  66.983  1.00  0.00     0.122 C 
BRANCH  24  25
HETATM   25  C6  UNL     1       3.145  66.979  66.532  1.00  0.00     0.051 C 
HETATM   26  C7  UNL     1       2.524  66.318  65.310  1.00  0.00     0.026 C 
BRANCH  25  27
HETATM   27  C5  UNL     1       2.169  67.149  67.618  1.00  0.00     0.226 C 
HETATM   28  N1  UNL     1       0.826  66.765  67.421  1.00  0.00    -0.360 N 
ATOM     29  H1  UNL     1       0.557  66.372  66.519  1.00  0.00     0.162 HD
HETATM   30  O1  UNL     1       2.445  67.633  68.764  1.00  0.00    -0.273 OA
BRANCH  28  31
HETATM   31  C4  UNL     1      -0.179  66.905  68.441  1.00  0.00     0.126 C 
BRANCH  31  32
HETATM   32  C3  UNL     1      -1.561  66.979  67.846  1.00  0.00     0.046 C 
BRANCH  32  33
HETATM   33  C2  UNL     1      -1.716  68.072  66.883  1.00  0.00    -0.035 C 
HETATM   34  C1  UNL     1      -2.862  68.276  66.257  1.00  0.00     0.007 C 
ENDBRANCH  32  33
ENDBRANCH  31  32
ENDBRANCH  28  31
ENDBRANCH  25  27
BRANCH  25  35
HETATM   35  C26 UNL     1       3.722  68.283  66.135  1.00  0.00     0.076 C 
BRANCH  35  36
HETATM   36  C27 UNL     1       4.119  68.445  64.739  1.00  0.00     0.010 A 
HETATM   37  C28 UNL     1       5.481  68.453  64.387  1.00  0.00     0.026 A 
HETATM   38  C29 UNL     1       5.554  68.600  63.027  1.00  0.00     0.019 A 
HETATM   39  C30 UNL     1       4.281  68.682  62.534  1.00  0.00     0.088 A 
HETATM   40  N4  UNL     1       3.443  68.584  63.595  1.00  0.00    -0.369 N 
ATOM     41  H4  UNL     1       2.426  68.613  63.529  1.00  0.00     0.165 HD
ENDBRANCH  35  36
ENDBRANCH  25  35
ENDBRANCH  24  25
ENDBRANCH   1  24
TORSDOF 14
ENDMDL
MODEL 3
REMARK VINA RESULT: -10.230651651      2.179      8.393
REMARK  14 active torsions:
REMARK  status: ('A' for Active; 'I' for Inactive)
REMARK    1  A    between atoms: C2_2  and  C3_3 
REMARK    2  A    between atoms: C3_3  and  C4_4 
REMARK    3  A    between atoms: C4_4  and  N1_5 
REMARK       I    between atoms: N1_5  and  C5_7 
REMARK    4  A    between atoms: C5_7  and  C6_9 
REMARK    5  A    between atoms: C6_9  and  C8_11 
REMARK    6  A    between atoms: C6_9  and  C26_35 
REMARK    7  A    between atoms: C8_11  and  C9_12 
REMARK       I    between atoms: C9_12  and  N2_14 
REMARK    8  A    between atoms: N2_14  and  C10_16 
REMARK    9  A    between atoms: C10_16  and  C11_17 
REMARK   10  A    between atoms: C10_16  and  C22_28 
REMARK   11  A    between atoms: C11_17  and  C12_18 
REMARK       I    between atoms: C22_28  and  N3_30 
REMARK   12  A    between atoms: N3_30  and  C23_32 
REMARK   13  A    between atoms: C23_32  and  C24_33 
REMARK   14  A    between atoms: C26_35  and  C27_36 
ROOT
HETATM    1  C9  UNL     1       0.619  64.358  70.684  1.00  0.00     0.219 C 
HETATM    2  O2  UNL     1      -0.037  64.885  71.633  1.00  0.00    -0.274 OA
HETATM    3  N2  UNL     1       1.146  65.232  69.698  1.00  0.00    -0.347 N 
ATOM      4  H2  UNL     1       1.681  64.853  68.917  1.00  0.00     0.163 HD
ENDROOT
BRANCH   3   5
HETATM    5  C10 UNL     1       0.924  66.671  69.798  1.00  0.00     0.180 C 
BRANCH   5   6
HETATM    6  C11 UNL     1       2.219  67.434  69.630  1.00  0.00     0.074 C 
BRANCH   6   7
HETATM    7  C12 UNL     1       3.353  66.620  69.200  1.00  0.00    -0.045 A 
HETATM    8  C13 UNL     1       3.949  65.692  70.058  1.00  0.00     0.008 A 
HETATM    9  C14 UNL     1       5.021  64.919  69.737  1.00  0.00     0.001 A 
HETATM   10  C15 UNL     1       5.577  65.035  68.491  1.00  0.00     0.012 A 
HETATM   11  C16 UNL     1       5.035  65.933  67.597  1.00  0.00    -0.025 A 
HETATM   12  C17 UNL     1       5.616  66.022  66.339  1.00  0.00     0.012 A 
HETATM   13  C21 UNL     1       3.944  66.707  67.952  1.00  0.00    -0.020 A 
HETATM   14  C18 UNL     1       5.102  66.904  65.402  1.00  0.00     0.001 A 
HETATM   15  C19 UNL     1       4.014  67.668  65.767  1.00  0.00     0.001 A 
HETATM   16  C20 UNL     1       3.450  67.564  67.026  1.00  0.00     0.013 A 
ENDBRANCH   6   7
ENDBRANCH   5   6
BRANCH   5  17
HETATM   17  C22 UNL     1      -0.063  67.022  68.747  1.00  0.00     0.241 C 
HETATM   18  O3  UNL     1      -1.008  66.254  68.433  1.00  0.00    -0.271 OA
HETATM   19  N3  UNL     1       0.044  68.263  68.060  1.00  0.00    -0.356 N 
ATOM     20  H3  UNL     1       0.802  68.902  68.299  1.00  0.00     0.162 HD
BRANCH  19  21
HETATM   21  C23 UNL     1      -0.898  68.641  67.031  1.00  0.00     0.149 C 
BRANCH  21  22
HETATM   22  C24 UNL     1      -0.582  67.944  65.735  1.00  0.00    -0.018 C 
HETATM   23  C25 UNL     1       0.479  68.276  65.021  1.00  0.00     0.008 C 
ENDBRANCH  21  22
ENDBRANCH  19  21
ENDBRANCH   5  17
ENDBRANCH   3   5
BRANCH   1  24
HETATM   24  C8  UNL     1       0.852  62.900  70.569  1.00  0.00     0.122 C 
BRANCH  24  25
HETATM   25  C6  UNL     1       0.722  62.200  71.909  1.00  0.00     0.051 C 
HETATM   26  C7  UNL     1      -0.770  62.135  72.198  1.00  0.00     0.026 C 
BRANCH  25  27
HETATM   27  C5  UNL     1       1.324  60.862  71.832  1.00  0.00     0.226 C 
HETATM   28  N1  UNL     1       2.320  60.596  70.869  1.00  0.00    -0.360 N 
ATOM     29  H1  UNL     1       2.605  61.346  70.240  1.00  0.00     0.162 HD
HETATM   30  O1  UNL     1       1.010  59.887  72.589  1.00  0.00    -0.273 OA
BRANCH  28  31
HETATM   31  C4  UNL     1       2.950  59.308  70.740  1.00  0.00     0.126 C 
BRANCH  31  32
HETATM   32  C3  UNL     1       4.293  59.282  71.421  1.00  0.00     0.046 C 
BRANCH  32  33
HETATM   33  C2  UNL     1       5.149  60.412  71.051  1.00  0.00    -0.035 C 
HETATM   34  C1  UNL     1       5.219  61.495  71.806  1.00  0.00     0.007 C 
ENDBRANCH  32  33
ENDBRANCH  31  32
ENDBRANCH  28  31
ENDBRANCH  25  27
BRANCH  25  35
HETATM   35  C26 UNL     1       1.381  63.014  72.956  1.00  0.00     0.076 C 
BRANCH  35  36
HETATM   36  C27 UNL     1       0.692  63.147  74.238  1.00  0.00     0.010 A 
HETATM   37  C28 UNL     1       1.054  62.328  75.323  1.00  0.00     0.026 A 
HETATM   38  C29 UNL     1       0.265  62.682  76.386  1.00  0.00     0.019 A 
HETATM   39  C30 UNL     1      -0.567  63.691  75.987  1.00  0.00     0.088 A 
HETATM   40  N4  UNL     1      -0.280  63.945  74.687  1.00  0.00    -0.369 N 
ATOM     41  H4  UNL     1      -0.747  64.654  74.123  1.00  0.00     0.165 HD
ENDBRANCH  35  36
ENDBRANCH  25  35
ENDBRANCH  24  25
ENDBRANCH   1  24
TORSDOF 14
ENDMDL
MODEL 4
REMARK VINA RESULT: -10.199572051      2.421      6.636
REMARK  14 active torsions:
REMARK  status: ('A' for Active; 'I' for Inactive)
REMARK    1  A    between atoms: C2_2  and  C3_3 
REMARK    2  A    between atoms: C3_3  and  C4_4 
REMARK    3  A    between atoms: C4_4  and  N1_5 
REMARK       I    between atoms: N1_5  and  C5_7 
REMARK    4  A    between atoms: C5_7  and  C6_9 
REMARK    5  A    between atoms: C6_9  and  C8_11 
REMARK    6  A    between atoms: C6_9  and  C26_35 
REMARK    7  A    between atoms: C8_11  and  C9_12 
REMARK       I    between atoms: C9_12  and  N2_14 
REMARK    8  A    between atoms: N2_14  and  C10_16 
REMARK    9  A    between atoms: C10_16  and  C11_17 
REMARK   10  A    between atoms: C10_16  and  C22_28 
REMARK   11  A    between atoms: C11_17  and  C12_18 
REMARK       I    between atoms: C22_28  and  N3_30 
REMARK   12  A    between atoms: N3_30  and  C23_32 
REMARK   13  A    between atoms: C23_32  and  C24_33 
REMARK   14  A    between atoms: C26_35  and  C27_36 
ROOT
HETATM    1  C9  UNL     1       4.001  64.843  67.517  1.00  0.00     0.219 C 
HETATM    2  O2  UNL     1       4.927  65.592  67.955  1.00  0.00    -0.274 OA
HETATM    3  N2  UNL     1       2.978  64.479  68.429  1.00  0.00    -0.347 N 
ATOM      4  H2  UNL     1       2.212  63.879  68.122  1.00  0.00     0.163 HD
ENDROOT
BRANCH   3   5
HETATM    5  C10 UNL     1       3.016  64.960  69.807  1.00  0.00     0.180 C 
BRANCH   5   6
HETATM    6  C11 UNL     1       1.751  65.711  70.157  1.00  0.00     0.074 C 
BRANCH   6   7
HETATM    7  C12 UNL     1       1.537  66.933  69.386  1.00  0.00    -0.045 A 
HETATM    8  C13 UNL     1       2.518  67.924  69.306  1.00  0.00     0.008 A 
HETATM    9  C14 UNL     1       2.380  69.096  68.630  1.00  0.00     0.001 A 
HETATM   10  C15 UNL     1       1.208  69.352  67.971  1.00  0.00     0.012 A 
HETATM   11  C16 UNL     1       0.199  68.414  68.010  1.00  0.00    -0.025 A 
HETATM   12  C17 UNL     1      -0.974  68.698  67.326  1.00  0.00     0.012 A 
HETATM   13  C21 UNL     1       0.368  67.229  68.707  1.00  0.00    -0.020 A 
HETATM   14  C18 UNL     1      -2.015  67.783  67.328  1.00  0.00     0.001 A 
HETATM   15  C19 UNL     1      -1.834  66.606  68.025  1.00  0.00     0.001 A 
HETATM   16  C20 UNL     1      -0.656  66.342  68.701  1.00  0.00     0.013 A 
ENDBRANCH   6   7
ENDBRANCH   5   6
BRANCH   5  17
HETATM   17  C22 UNL     1       3.205  63.766  70.668  1.00  0.00     0.241 C 
HETATM   18  O3  UNL     1       2.336  63.396  71.499  1.00  0.00    -0.271 OA
HETATM   19  N3  UNL     1       4.400  63.001  70.568  1.00  0.00    -0.356 N 
ATOM     20  H3  UNL     1       5.118  63.283  69.901  1.00  0.00     0.162 HD
BRANCH  19  21
HETATM   21  C23 UNL     1       4.620  61.832  71.389  1.00  0.00     0.149 C 
BRANCH  21  22
HETATM   22  C24 UNL     1       4.646  60.585  70.546  1.00  0.00    -0.018 C 
HETATM   23  C25 UNL     1       3.535  60.073  70.046  1.00  0.00     0.008 C 
ENDBRANCH  21  22
ENDBRANCH  19  21
ENDBRANCH   5  17
ENDBRANCH   3   5
BRANCH   1  24
HETATM   24  C8  UNL     1       3.949  64.347  66.123  1.00  0.00     0.122 C 
BRANCH  24  25
HETATM   25  C6  UNL     1       3.891  65.485  65.121  1.00  0.00     0.051 C 
HETATM   26  C7  UNL     1       4.109  64.845  63.758  1.00  0.00     0.026 C 
BRANCH  25  27
HETATM   27  C5  UNL     1       2.587  66.158  65.208  1.00  0.00     0.226 C 
HETATM   28  N1  UNL     1       2.268  67.189  64.300  1.00  0.00    -0.360 N 
ATOM     29  H1  UNL     1       2.957  67.449  63.594  1.00  0.00     0.162 HD
HETATM   30  O1  UNL     1       1.689  65.877  66.066  1.00  0.00    -0.273 OA
BRANCH  28  31
HETATM   31  C4  UNL     1       1.011  67.888  64.330  1.00  0.00     0.126 C 
BRANCH  31  32
HETATM   32  C3  UNL     1       0.803  68.700  63.078  1.00  0.00     0.046 C 
BRANCH  32  33
HETATM   33  C2  UNL     1       1.973  68.711  62.197  1.00  0.00    -0.035 C 
HETATM   34  C1  UNL     1       1.845  68.595  60.886  1.00  0.00     0.007 C 
ENDBRANCH  32  33
ENDBRANCH  31  32
ENDBRANCH  28  31
ENDBRANCH  25  27
BRANCH  25  35
HETATM   35  C26 UNL     1       4.992  66.436  65.390  1.00  0.00     0.076 C 
BRANCH  35  36
HETATM   36  C27 UNL     1       5.265  67.454  64.378  1.00  0.00     0.010 A 
HETATM   37  C28 UNL     1       5.249  68.818  64.723  1.00  0.00     0.026 A 
HETATM   38  C29 UNL     1       5.554  69.531  63.595  1.00  0.00     0.019 A 
HETATM   39  C30 UNL     1       5.757  68.650  62.569  1.00  0.00     0.088 A 
HETATM   40  N4  UNL     1       5.575  67.407  63.079  1.00  0.00    -0.369 N 
ATOM     41  H4  UNL     1       5.663  66.546  62.540  1.00  0.00     0.165 HD
ENDBRANCH  35  36
ENDBRANCH  25  35
ENDBRANCH  24  25
ENDBRANCH   1  24
TORSDOF 14
ENDMDL
MODEL 5
REMARK VINA RESULT: -10.170487787      1.864      3.901
REMARK  14 active torsions:
REMARK  status: ('A' for Active; 'I' for Inactive)
REMARK    1  A    between atoms: C2_2  and  C3_3 
REMARK    2  A    between atoms: C3_3  and  C4_4 
REMARK    3  A    between atoms: C4_4  and  N1_5 
REMARK       I    between atoms: N1_5  and  C5_7 
REMARK    4  A    between atoms: C5_7  and  C6_9 
REMARK    5  A    between atoms: C6_9  and  C8_11 
REMARK    6  A    between atoms: C6_9  and  C26_35 
REMARK    7  A    between atoms: C8_11  and  C9_12 
REMARK       I    between atoms: C9_12  and  N2_14 
REMARK    8  A    between atoms: N2_14  and  C10_16 
REMARK    9  A    between atoms: C10_16  and  C11_17 
REMARK   10  A    between atoms: C10_16  and  C22_28 
REMARK   11  A    between atoms: C11_17  and  C12_18 
REMARK       I    between atoms: C22_28  and  N3_30 
REMARK   12  A    between atoms: N3_30  and  C23_32 
REMARK   13  A    between atoms: C23_32  and  C24_33 
REMARK   14  A    between atoms: C26_35  and  C27_36 
ROOT
HETATM    1  C9  UNL     1       2.253  66.572  69.448  1.00  0.00     0.219 C 
HETATM    2  O2  UNL     1       3.286  67.131  69.928  1.00  0.00    -0.274 OA
HETATM    3  N2  UNL     1       2.336  65.182  69.177  1.00  0.00    -0.347 N 
ATOM      4  H2  UNL     1       1.530  64.690  68.790  1.00  0.00     0.163 HD
ENDROOT
BRANCH   3   5
HETATM    5  C10 UNL     1       3.572  64.453  69.449  1.00  0.00     0.180 C 
BRANCH   5   6
HETATM    6  C11 UNL     1       3.361  62.961  69.327  1.00  0.00     0.074 C 
BRANCH   6   7
HETATM    7  C12 UNL     1       3.496  62.224  70.582  1.00  0.00    -0.045 A 
HETATM    8  C13 UNL     1       4.746  61.834  71.065  1.00  0.00     0.008 A 
HETATM    9  C14 UNL     1       4.947  61.126  72.209  1.00  0.00     0.001 A 
HETATM   10  C15 UNL     1       3.866  60.755  72.962  1.00  0.00     0.012 A 
HETATM   11  C16 UNL     1       2.603  61.109  72.539  1.00  0.00    -0.025 A 
HETATM   12  C17 UNL     1       1.526  60.725  73.327  1.00  0.00     0.012 A 
HETATM   13  C21 UNL     1       2.429  61.830  71.370  1.00  0.00    -0.020 A 
HETATM   14  C18 UNL     1       0.237  61.064  72.950  1.00  0.00     0.001 A 
HETATM   15  C19 UNL     1       0.077  61.784  71.784  1.00  0.00     0.001 A 
HETATM   16  C20 UNL     1       1.164  62.157  71.013  1.00  0.00     0.013 A 
ENDBRANCH   6   7
ENDBRANCH   5   6
BRANCH   5  17
HETATM   17  C22 UNL     1       4.579  64.948  68.478  1.00  0.00     0.241 C 
HETATM   18  O3  UNL     1       5.803  65.018  68.759  1.00  0.00    -0.271 OA
HETATM   19  N3  UNL     1       4.169  65.363  67.180  1.00  0.00    -0.356 N 
ATOM     20  H3  UNL     1       3.182  65.315  66.930  1.00  0.00     0.162 HD
BRANCH  19  21
HETATM   21  C23 UNL     1       5.120  65.851  66.207  1.00  0.00     0.149 C 
BRANCH  21  22
HETATM   22  C24 UNL     1       4.852  65.253  64.852  1.00  0.00    -0.018 C 
HETATM   23  C25 UNL     1       3.910  64.343  64.679  1.00  0.00     0.008 C 
ENDBRANCH  21  22
ENDBRANCH  19  21
ENDBRANCH   5  17
ENDBRANCH   3   5
BRANCH   1  24
HETATM   24  C8  UNL     1       0.994  67.298  69.166  1.00  0.00     0.122 C 
BRANCH  24  25
HETATM   25  C6  UNL     1       1.164  68.313  68.051  1.00  0.00     0.051 C 
HETATM   26  C7  UNL     1       2.357  69.169  68.452  1.00  0.00     0.026 C 
BRANCH  25  27
HETATM   27  C5  UNL     1       1.391  67.619  66.776  1.00  0.00     0.226 C 
HETATM   28  N1  UNL     1       1.958  68.316  65.689  1.00  0.00    -0.360 N 
ATOM     29  H1  UNL     1       2.201  69.299  65.812  1.00  0.00     0.162 HD
HETATM   30  O1  UNL     1       1.109  66.395  66.564  1.00  0.00    -0.273 OA
BRANCH  28  31
HETATM   31  C4  UNL     1       2.206  67.696  64.415  1.00  0.00     0.126 C 
BRANCH  31  32
HETATM   32  C3  UNL     1       3.256  68.444  63.635  1.00  0.00     0.046 C 
BRANCH  32  33
HETATM   33  C2  UNL     1       4.364  68.918  64.468  1.00  0.00    -0.035 C 
HETATM   34  C1  UNL     1       5.559  69.151  63.951  1.00  0.00     0.007 C 
ENDBRANCH  32  33
ENDBRANCH  31  32
ENDBRANCH  28  31
ENDBRANCH  25  27
BRANCH  25  35
HETATM   35  C26 UNL     1      -0.040  69.170  67.976  1.00  0.00     0.076 C 
BRANCH  35  36
HETATM   36  C27 UNL     1      -1.241  68.593  67.377  1.00  0.00     0.010 A 
HETATM   37  C28 UNL     1      -1.844  67.460  67.952  1.00  0.00     0.026 A 
HETATM   38  C29 UNL     1      -2.948  67.156  67.200  1.00  0.00     0.019 A 
HETATM   39  C30 UNL     1      -3.041  68.065  66.183  1.00  0.00     0.088 A 
HETATM   40  N4  UNL     1      -1.995  68.917  66.323  1.00  0.00    -0.369 N 
ATOM     41  H4  UNL     1      -1.808  69.704  65.702  1.00  0.00     0.165 HD
ENDBRANCH  35  36
ENDBRANCH  25  35
ENDBRANCH  24  25
ENDBRANCH   1  24
TORSDOF 14
ENDMDL
