MODEL 1
REMARK VINA RESULT: -5.016263321      0.000      0.000
REMARK  3 active torsions:
REMARK  status: ('A' for Active; 'I' for Inactive)
REMARK    1  A    between atoms: C2_2  and  N1_3 
REMARK    2  A    between atoms: C2_2  and  C3_7 
REMARK    3  A    between atoms: C5_9  and  N2_10 
ROOT
HETATM    1  C3  UNL     1      19.747  25.746  28.993  1.00  0.00     0.116 C 
HETATM    2  C4  UNL     1      20.337  24.594  29.763  1.00  0.00     0.070 C 
HETATM    3  C5  UNL     1      21.828  24.748  29.462  1.00  0.00     0.276 C 
HETATM    4  C6  UNL     1      21.794  25.321  28.085  1.00  0.00     0.248 C 
HETATM    5  O1  UNL     1      22.780  25.500  27.295  1.00  0.00    -0.271 OA
HETATM    6  N3  UNL     1      20.460  25.665  27.733  1.00  0.00    -0.353 N 
ATOM      7  H3  UNL     1      20.086  25.820  26.798  1.00  0.00     0.163 HD
ENDROOT
BRANCH   1   8
HETATM    8  C2  UNL     1      18.255  25.623  28.818  1.00  0.00     0.202 C 
HETATM    9  C1  UNL     1      18.034  24.614  27.689  1.00  0.00     0.042 C 
BRANCH   8  10
HETATM   10  N1  UNL     1      17.702  25.131  30.065  1.00  0.00    -0.073 N 
ATOM     11  H13 UNL     1      17.163  24.276  29.927  1.00  0.00     0.274 HD
ATOM     12  H12 UNL     1      18.427  24.759  30.679  1.00  0.00     0.274 HD
ATOM     13  H11 UNL     1      17.151  25.854  30.527  1.00  0.00     0.274 HD
ENDBRANCH   8  10
ENDBRANCH   1   8
BRANCH   3  14
HETATM   14  N2  UNL     1      22.378  25.631  30.432  1.00  0.00    -0.066 N 
ATOM     15  H23 UNL     1      21.997  25.480  31.367  1.00  0.00     0.275 HD
ATOM     16  H22 UNL     1      23.354  25.423  30.648  1.00  0.00     0.275 HD
ATOM     17  H21 UNL     1      22.241  26.586  30.099  1.00  0.00     0.275 HD
ENDBRANCH   3  14
TORSDOF 3
ENDMDL
MODEL 2
REMARK VINA RESULT: -4.992155482      2.561      2.826
REMARK  3 active torsions:
REMARK  status: ('A' for Active; 'I' for Inactive)
REMARK    1  A    between atoms: C2_2  and  N1_3 
REMARK    2  A    between atoms: C2_2  and  C3_7 
REMARK    3  A    between atoms: C5_9  and  N2_10 
ROOT
HETATM    1  C3  UNL     1      19.363  25.296  29.601  1.00  0.00     0.116 C 
HETATM    2  C4  UNL     1      20.483  26.300  29.519  1.00  0.00     0.070 C 
HETATM    3  C5  UNL     1      21.174  26.106  30.868  1.00  0.00     0.276 C 
HETATM    4  C6  UNL     1      20.024  25.726  31.740  1.00  0.00     0.248 C 
HETATM    5  O1  UNL     1      20.021  25.602  33.009  1.00  0.00    -0.271 OA
HETATM    6  N3  UNL     1      18.865  25.507  30.946  1.00  0.00    -0.353 N 
ATOM      7  H3  UNL     1      17.894  25.499  31.256  1.00  0.00     0.163 HD
ENDROOT
BRANCH   1   8
HETATM    8  C2  UNL     1      18.303  25.523  28.553  1.00  0.00     0.202 C 
HETATM    9  C1  UNL     1      18.458  24.395  27.531  1.00  0.00     0.042 C 
BRANCH   8  10
HETATM   10  N1  UNL     1      17.011  25.453  29.208  1.00  0.00    -0.073 N 
ATOM     11  H13 UNL     1      16.278  25.154  28.564  1.00  0.00     0.274 HD
ATOM     12  H12 UNL     1      16.964  24.675  29.867  1.00  0.00     0.274 HD
ATOM     13  H11 UNL     1      16.782  26.341  29.654  1.00  0.00     0.274 HD
ENDBRANCH   8  10
ENDBRANCH   1   8
BRANCH   3  14
HETATM   14  N2  UNL     1      22.140  25.072  30.717  1.00  0.00    -0.066 N 
ATOM     15  H23 UNL     1      22.104  24.384  31.470  1.00  0.00     0.275 HD
ATOM     16  H22 UNL     1      21.925  24.440  29.945  1.00  0.00     0.275 HD
ATOM     17  H21 UNL     1      23.056  25.512  30.626  1.00  0.00     0.275 HD
ENDBRANCH   3  14
TORSDOF 3
ENDMDL
MODEL 3
REMARK VINA RESULT: -4.989218668      1.791      1.940
REMARK  3 active torsions:
REMARK  status: ('A' for Active; 'I' for Inactive)
REMARK    1  A    between atoms: C2_2  and  N1_3 
REMARK    2  A    between atoms: C2_2  and  C3_7 
REMARK    3  A    between atoms: C5_9  and  N2_10 
ROOT
HETATM    1  C3  UNL     1      19.336  26.029  29.671  1.00  0.00     0.116 C 
HETATM    2  C4  UNL     1      19.394  24.927  30.697  1.00  0.00     0.070 C 
HETATM    3  C5  UNL     1      20.674  25.274  31.455  1.00  0.00     0.276 C 
HETATM    4  C6  UNL     1      21.499  25.894  30.378  1.00  0.00     0.248 C 
HETATM    5  O1  UNL     1      22.730  26.223  30.436  1.00  0.00    -0.271 OA
HETATM    6  N3  UNL     1      20.710  26.086  29.211  1.00  0.00    -0.353 N 
ATOM      7  H3  UNL     1      21.039  26.233  28.257  1.00  0.00     0.163 HD
ENDROOT
BRANCH   1   8
HETATM    8  C2  UNL     1      18.368  25.733  28.555  1.00  0.00     0.202 C 
HETATM    9  C1  UNL     1      18.941  24.537  27.792  1.00  0.00     0.042 C 
BRANCH   8  10
HETATM   10  N1  UNL     1      17.090  25.398  29.154  1.00  0.00    -0.073 N 
ATOM     11  H13 UNL     1      16.365  25.271  28.448  1.00  0.00     0.274 HD
ATOM     12  H12 UNL     1      17.091  24.456  29.545  1.00  0.00     0.274 HD
ATOM     13  H11 UNL     1      16.822  26.095  29.849  1.00  0.00     0.274 HD
ENDBRANCH   8  10
ENDBRANCH   1   8
BRANCH   3  14
HETATM   14  N2  UNL     1      20.329  26.177  32.500  1.00  0.00    -0.066 N 
ATOM     15  H23 UNL     1      21.125  26.426  33.088  1.00  0.00     0.275 HD
ATOM     16  H22 UNL     1      20.116  27.115  32.158  1.00  0.00     0.275 HD
ATOM     17  H21 UNL     1      19.560  25.764  33.028  1.00  0.00     0.275 HD
ENDBRANCH   3  14
TORSDOF 3
ENDMDL
MODEL 4
REMARK VINA RESULT: -4.902917960      2.353      3.465
REMARK  3 active torsions:
REMARK  status: ('A' for Active; 'I' for Inactive)
REMARK    1  A    between atoms: C2_2  and  N1_3 
REMARK    2  A    between atoms: C2_2  and  C3_7 
REMARK    3  A    between atoms: C5_9  and  N2_10 
ROOT
HETATM    1  C3  UNL     1      20.438  25.725  30.408  1.00  0.00     0.116 C 
HETATM    2  C4  UNL     1      21.010  24.545  29.666  1.00  0.00     0.070 C 
HETATM    3  C5  UNL     1      20.244  24.607  28.345  1.00  0.00     0.276 C 
HETATM    4  C6  UNL     1      18.935  25.170  28.786  1.00  0.00     0.248 C 
HETATM    5  O1  UNL     1      17.867  25.282  28.098  1.00  0.00    -0.271 OA
HETATM    6  N3  UNL     1      19.019  25.591  30.142  1.00  0.00    -0.353 N 
ATOM      7  H3  UNL     1      18.248  25.762  30.787  1.00  0.00     0.163 HD
ENDROOT
BRANCH   1   8
HETATM    8  C2  UNL     1      20.752  25.692  31.881  1.00  0.00     0.202 C 
HETATM    9  C1  UNL     1      19.467  26.096  32.606  1.00  0.00     0.042 C 
BRANCH   8  10
HETATM   10  N1  UNL     1      21.133  24.335  32.223  1.00  0.00    -0.073 N 
ATOM     11  H13 UNL     1      21.990  24.311  32.776  1.00  0.00     0.274 HD
ATOM     12  H12 UNL     1      20.496  23.925  32.907  1.00  0.00     0.274 HD
ATOM     13  H11 UNL     1      21.209  23.758  31.385  1.00  0.00     0.274 HD
ENDBRANCH   8  10
ENDBRANCH   1   8
BRANCH   3  14
HETATM   14  N2  UNL     1      20.964  25.462  27.465  1.00  0.00    -0.066 N 
ATOM     15  H23 UNL     1      20.863  26.450  27.701  1.00  0.00     0.275 HD
ATOM     16  H22 UNL     1      21.975  25.396  27.587  1.00  0.00     0.275 HD
ATOM     17  H21 UNL     1      20.665  25.252  26.512  1.00  0.00     0.275 HD
ENDBRANCH   3  14
TORSDOF 3
ENDMDL
MODEL 5
REMARK VINA RESULT: -4.781271095      2.000      3.299
REMARK  3 active torsions:
REMARK  status: ('A' for Active; 'I' for Inactive)
REMARK    1  A    between atoms: C2_2  and  N1_3 
REMARK    2  A    between atoms: C2_2  and  C3_7 
REMARK    3  A    between atoms: C5_9  and  N2_10 
ROOT
HETATM    1  C3  UNL     1      20.299  24.844  30.396  1.00  0.00     0.116 C 
HETATM    2  C4  UNL     1      19.840  25.951  29.484  1.00  0.00     0.070 C 
HETATM    3  C5  UNL     1      19.786  25.240  28.133  1.00  0.00     0.276 C 
HETATM    4  C6  UNL     1      20.888  24.244  28.277  1.00  0.00     0.248 C 
HETATM    5  O1  UNL     1      21.376  23.491  27.371  1.00  0.00    -0.271 OA
HETATM    6  N3  UNL     1      21.359  24.232  29.618  1.00  0.00    -0.353 N 
ATOM      7  H3  UNL     1      22.249  23.871  29.960  1.00  0.00     0.163 HD
ENDROOT
BRANCH   1   8
HETATM    8  C2  UNL     1      20.785  25.354  31.728  1.00  0.00     0.202 C 
HETATM    9  C1  UNL     1      19.572  25.976  32.421  1.00  0.00     0.042 C 
BRANCH   8  10
HETATM   10  N1  UNL     1      21.284  24.220  32.481  1.00  0.00    -0.073 N 
ATOM     11  H13 UNL     1      21.751  24.513  33.340  1.00  0.00     0.274 HD
ATOM     12  H12 UNL     1      20.525  23.678  32.896  1.00  0.00     0.274 HD
ATOM     13  H11 UNL     1      21.891  23.639  31.903  1.00  0.00     0.274 HD
ENDBRANCH   8  10
ENDBRANCH   1   8
BRANCH   3  14
HETATM   14  N2  UNL     1      18.498  24.648  28.004  1.00  0.00    -0.066 N 
ATOM     15  H23 UNL     1      17.843  24.965  28.719  1.00  0.00     0.275 HD
ATOM     16  H22 UNL     1      17.985  24.990  27.190  1.00  0.00     0.275 HD
ATOM     17  H21 UNL     1      18.619  23.635  27.998  1.00  0.00     0.275 HD
ENDBRANCH   3  14
TORSDOF 3
ENDMDL
