MODEL 1
REMARK VINA RESULT: -5.095635086      0.000      0.000
REMARK  1 active torsions:
REMARK  status: ('A' for Active; 'I' for Inactive)
REMARK    1  A    between atoms: C4_5  and  N2_6 
REMARK       I    between atoms: N2_6  and  C5_8 
REMARK       I    between atoms: C5_8  and  N3_9 
REMARK       I    between atoms: C5_8  and  N4_13 
ROOT
HETATM    1  N2  UNL     1      19.431  25.827  33.124  1.00  0.00    -0.326 N 
ATOM      2  H2  UNL     1      19.732  25.021  33.670  1.00  0.00     0.164 HD
HETATM    3  C5  UNL     1      18.822  26.926  33.805  1.00  0.00     0.481 C 
HETATM    4  N3  UNL     1      17.378  26.879  33.789  1.00  0.00    -0.033 N 
ATOM      5  H31 UNL     1      16.944  27.663  34.275  1.00  0.00     0.278 HD
ATOM      6  H32 UNL     1      17.040  25.991  34.158  1.00  0.00     0.278 HD
ATOM      7  H33 UNL     1      17.029  26.806  32.833  1.00  0.00     0.278 HD
HETATM    8  N4  UNL     1      19.243  27.046  35.185  1.00  0.00    -0.033 N 
ATOM      9  H41 UNL     1      18.809  27.831  35.671  1.00  0.00     0.278 HD
ATOM     10  H42 UNL     1      20.259  27.097  35.250  1.00  0.00     0.278 HD
ATOM     11  H43 UNL     1      19.084  26.174  35.689  1.00  0.00     0.278 HD
ENDROOT
BRANCH   1  12
HETATM   12  C4  UNL     1      19.615  25.812  31.847  1.00  0.00     0.119 A 
HETATM   13  C3  UNL     1      20.773  26.205  31.198  1.00  0.00     0.068 A 
HETATM   14  C2  UNL     1      20.603  26.049  29.826  1.00  0.00     0.113 A 
HETATM   15  N1  UNL     1      19.369  25.572  29.678  1.00  0.00    -0.306 N 
HETATM   16  C1  UNL     1      18.744  25.252  28.409  1.00  0.00     0.177 C 
HETATM   17  N5  UNL     1      18.781  25.431  30.872  1.00  0.00    -0.284 N 
ATOM     18  H5  UNL     1      17.834  25.083  31.018  1.00  0.00     0.188 HD
ENDBRANCH   1  12
TORSDOF 1
ENDMDL
MODEL 2
REMARK VINA RESULT: -4.955127382      1.213      1.367
REMARK  1 active torsions:
REMARK  status: ('A' for Active; 'I' for Inactive)
REMARK    1  A    between atoms: C4_5  and  N2_6 
REMARK       I    between atoms: N2_6  and  C5_8 
REMARK       I    between atoms: C5_8  and  N3_9 
REMARK       I    between atoms: C5_8  and  N4_13 
ROOT
HETATM    1  N2  UNL     1      18.652  26.147  32.915  1.00  0.00    -0.326 N 
ATOM      2  H2  UNL     1      17.647  25.998  32.829  1.00  0.00     0.164 HD
HETATM    3  C5  UNL     1      19.139  26.890  34.034  1.00  0.00     0.481 C 
HETATM    4  N3  UNL     1      19.361  28.287  33.738  1.00  0.00    -0.033 N 
ATOM      5  H31 UNL     1      19.709  28.818  34.537  1.00  0.00     0.278 HD
ATOM      6  H32 UNL     1      18.518  28.716  33.358  1.00  0.00     0.278 HD
ATOM      7  H33 UNL     1      19.981  28.394  32.935  1.00  0.00     0.278 HD
HETATM    8  N4  UNL     1      18.270  26.818  35.189  1.00  0.00    -0.033 N 
ATOM      9  H41 UNL     1      18.619  27.348  35.988  1.00  0.00     0.278 HD
ATOM     10  H42 UNL     1      18.092  25.848  35.448  1.00  0.00     0.278 HD
ATOM     11  H43 UNL     1      17.322  27.106  34.948  1.00  0.00     0.278 HD
ENDROOT
BRANCH   1  12
HETATM   12  C4  UNL     1      19.429  25.657  32.009  1.00  0.00     0.119 A 
HETATM   13  C3  UNL     1      20.681  25.112  32.235  1.00  0.00     0.068 A 
HETATM   14  C2  UNL     1      21.219  24.687  31.024  1.00  0.00     0.113 A 
HETATM   15  N1  UNL     1      20.296  24.978  30.110  1.00  0.00    -0.306 N 
HETATM   16  C1  UNL     1      20.417  24.714  28.688  1.00  0.00     0.177 C 
HETATM   17  N5  UNL     1      19.235  25.552  30.690  1.00  0.00    -0.284 N 
ATOM     18  H5  UNL     1      18.400  25.865  30.196  1.00  0.00     0.188 HD
ENDBRANCH   1  12
TORSDOF 1
ENDMDL
MODEL 3
REMARK VINA RESULT: -4.856461023      1.848      2.746
REMARK  1 active torsions:
REMARK  status: ('A' for Active; 'I' for Inactive)
REMARK    1  A    between atoms: C4_5  and  N2_6 
REMARK       I    between atoms: N2_6  and  C5_8 
REMARK       I    between atoms: C5_8  and  N3_9 
REMARK       I    between atoms: C5_8  and  N4_13 
ROOT
HETATM    1  N2  UNL     1      20.673  26.357  31.251  1.00  0.00    -0.326 N 
ATOM      2  H2  UNL     1      21.202  27.206  31.452  1.00  0.00     0.164 HD
HETATM    3  C5  UNL     1      20.101  25.634  32.343  1.00  0.00     0.481 C 
HETATM    4  N3  UNL     1      20.924  24.535  32.794  1.00  0.00    -0.033 N 
ATOM      5  H31 UNL     1      20.515  24.019  33.573  1.00  0.00     0.278 HD
ATOM      6  H32 UNL     1      21.863  24.858  33.025  1.00  0.00     0.278 HD
ATOM      7  H33 UNL     1      21.148  23.909  32.021  1.00  0.00     0.278 HD
HETATM    8  N4  UNL     1      19.811  26.467  33.490  1.00  0.00    -0.033 N 
ATOM      9  H41 UNL     1      19.402  25.951  34.269  1.00  0.00     0.278 HD
ATOM     10  H42 UNL     1      19.218  27.254  33.226  1.00  0.00     0.278 HD
ATOM     11  H43 UNL     1      20.643  26.975  33.788  1.00  0.00     0.278 HD
ENDROOT
BRANCH   1  12
HETATM   12  C4  UNL     1      20.550  25.983  30.022  1.00  0.00     0.119 A 
HETATM   13  C3  UNL     1      19.408  25.441  29.459  1.00  0.00     0.068 A 
HETATM   14  C2  UNL     1      19.649  25.160  28.118  1.00  0.00     0.113 A 
HETATM   15  N1  UNL     1      20.909  25.534  27.903  1.00  0.00    -0.306 N 
HETATM   16  C1  UNL     1      21.607  25.429  26.635  1.00  0.00     0.177 C 
HETATM   17  N5  UNL     1      21.445  26.021  29.029  1.00  0.00    -0.284 N 
ATOM     18  H5  UNL     1      22.399  26.370  29.116  1.00  0.00     0.188 HD
ENDBRANCH   1  12
TORSDOF 1
ENDMDL
MODEL 4
REMARK VINA RESULT: -4.787088638      1.526      2.199
REMARK  1 active torsions:
REMARK  status: ('A' for Active; 'I' for Inactive)
REMARK    1  A    between atoms: C4_5  and  N2_6 
REMARK       I    between atoms: N2_6  and  C5_8 
REMARK       I    between atoms: C5_8  and  N3_9 
REMARK       I    between atoms: C5_8  and  N4_13 
ROOT
HETATM    1  N2  UNL     1      20.496  26.269  31.372  1.00  0.00    -0.326 N 
ATOM      2  H2  UNL     1      21.091  27.095  31.416  1.00  0.00     0.164 HD
HETATM    3  C5  UNL     1      20.141  25.616  32.593  1.00  0.00     0.481 C 
HETATM    4  N3  UNL     1      20.995  24.493  32.908  1.00  0.00    -0.033 N 
ATOM      5  H31 UNL     1      20.742  24.027  33.779  1.00  0.00     0.278 HD
ATOM      6  H32 UNL     1      21.975  24.774  32.918  1.00  0.00     0.278 HD
ATOM      7  H33 UNL     1      21.019  23.828  32.135  1.00  0.00     0.278 HD
HETATM    8  N4  UNL     1      20.141  26.504  33.736  1.00  0.00    -0.033 N 
ATOM      9  H41 UNL     1      19.888  26.037  34.607  1.00  0.00     0.278 HD
ATOM     10  H42 UNL     1      19.540  27.310  33.568  1.00  0.00     0.278 HD
ATOM     11  H43 UNL     1      21.040  26.978  33.825  1.00  0.00     0.278 HD
ENDROOT
BRANCH   1  12
HETATM   12  C4  UNL     1      20.094  25.857  30.216  1.00  0.00     0.119 A 
HETATM   13  C3  UNL     1      20.908  25.619  29.122  1.00  0.00     0.068 A 
HETATM   14  C2  UNL     1      20.125  25.187  28.056  1.00  0.00     0.113 A 
HETATM   15  N1  UNL     1      18.878  25.172  28.522  1.00  0.00    -0.306 N 
HETATM   16  C1  UNL     1      17.706  24.784  27.759  1.00  0.00     0.177 C 
HETATM   17  N5  UNL     1      18.856  25.568  29.800  1.00  0.00    -0.284 N 
ATOM     18  H5  UNL     1      18.016  25.640  30.374  1.00  0.00     0.188 HD
ENDBRANCH   1  12
TORSDOF 1
ENDMDL
MODEL 5
REMARK VINA RESULT: -4.703683843      2.094      2.710
REMARK  1 active torsions:
REMARK  status: ('A' for Active; 'I' for Inactive)
REMARK    1  A    between atoms: C4_5  and  N2_6 
REMARK       I    between atoms: N2_6  and  C5_8 
REMARK       I    between atoms: C5_8  and  N3_9 
REMARK       I    between atoms: C5_8  and  N4_13 
ROOT
HETATM    1  N2  UNL     1      20.740  24.959  31.415  1.00  0.00    -0.326 N 
ATOM      2  H2  UNL     1      21.238  24.400  32.108  1.00  0.00     0.164 HD
HETATM    3  C5  UNL     1      19.761  25.895  31.869  1.00  0.00     0.481 C 
HETATM    4  N3  UNL     1      18.413  25.375  31.830  1.00  0.00    -0.033 N 
ATOM      5  H31 UNL     1      17.713  26.044  32.153  1.00  0.00     0.278 HD
ATOM      6  H32 UNL     1      18.347  24.501  32.350  1.00  0.00     0.278 HD
ATOM      7  H33 UNL     1      18.183  25.033  30.897  1.00  0.00     0.278 HD
HETATM    8  N4  UNL     1      20.008  26.376  33.211  1.00  0.00    -0.033 N 
ATOM      9  H41 UNL     1      19.309  27.045  33.534  1.00  0.00     0.278 HD
ATOM     10  H42 UNL     1      20.947  26.768  33.288  1.00  0.00     0.278 HD
ATOM     11  H43 UNL     1      20.096  25.598  33.864  1.00  0.00     0.278 HD
ENDROOT
BRANCH   1  12
HETATM   12  C4  UNL     1      21.023  24.791  30.167  1.00  0.00     0.119 A 
HETATM   13  C3  UNL     1      21.365  23.587  29.577  1.00  0.00     0.068 A 
HETATM   14  C2  UNL     1      21.599  23.793  28.221  1.00  0.00     0.113 A 
HETATM   15  N1  UNL     1      21.395  25.094  28.025  1.00  0.00    -0.306 N 
HETATM   16  C1  UNL     1      21.525  25.777  26.751  1.00  0.00     0.177 C 
HETATM   17  N5  UNL     1      21.055  25.688  29.175  1.00  0.00    -0.284 N 
ATOM     18  H5  UNL     1      20.849  26.681  29.280  1.00  0.00     0.188 HD
ENDBRANCH   1  12
TORSDOF 1
ENDMDL
