MODEL 1
REMARK VINA RESULT: -5.022406914      0.000      0.000
REMARK  3 active torsions:
REMARK  status: ('A' for Active; 'I' for Inactive)
REMARK    1  A    between atoms: O1_2  and  C2_3 
REMARK    2  A    between atoms: C2_3  and  C3_4 
REMARK    3  A    between atoms: C4_7  and  N2_8 
ROOT
HETATM    1  C3  UNL     1      20.314  24.693  28.817  1.00  0.00     0.138 A 
HETATM    2  N1  UNL     1      19.091  24.547  28.225  1.00  0.00    -0.176 N 
ATOM      3  H1  UNL     1      18.884  23.959  27.418  1.00  0.00     0.185 HD
HETATM    4  C4  UNL     1      18.213  25.310  28.885  1.00  0.00     0.692 A 
HETATM    5  N3  UNL     1      18.916  25.906  29.865  1.00  0.00    -0.129 N 
ATOM      6  H3  UNL     1      18.513  26.555  30.541  1.00  0.00     0.206 HD
HETATM    7  N4  UNL     1      20.173  25.558  29.851  1.00  0.00    -0.268 N 
HETATM    8  C5  UNL     1      21.271  25.963  30.725  1.00  0.00     0.180 C 
ENDROOT
BRANCH   1   9
HETATM    9  C2  UNL     1      21.563  24.012  28.384  1.00  0.00     0.245 C 
BRANCH   9  10
HETATM   10  O1  UNL     1      21.845  24.164  27.052  1.00  0.00    -0.389 OA
HETATM   11  C1  UNL     1      21.878  25.504  26.698  1.00  0.00     0.202 C 
ENDBRANCH   9  10
ENDBRANCH   1   9
BRANCH   4  12
HETATM   12  N2  UNL     1      16.937  25.479  28.667  1.00  0.00    -0.233 N 
ATOM     13  H22 UNL     1      16.370  26.230  29.062  1.00  0.00     0.174 HD
ATOM     14  H21 UNL     1      16.300  24.926  28.094  1.00  0.00     0.174 HD
ENDBRANCH   4  12
TORSDOF 3
ENDMDL
MODEL 2
REMARK VINA RESULT: -4.959386778      2.242      3.401
REMARK  3 active torsions:
REMARK  status: ('A' for Active; 'I' for Inactive)
REMARK    1  A    between atoms: O1_2  and  C2_3 
REMARK    2  A    between atoms: C2_3  and  C3_4 
REMARK    3  A    between atoms: C4_7  and  N2_8 
ROOT
HETATM    1  C3  UNL     1      19.983  25.270  30.315  1.00  0.00     0.138 A 
HETATM    2  N1  UNL     1      18.642  25.530  30.275  1.00  0.00    -0.176 N 
ATOM      3  H1  UNL     1      18.065  25.820  31.064  1.00  0.00     0.185 HD
HETATM    4  C4  UNL     1      18.216  25.338  29.022  1.00  0.00     0.692 A 
HETATM    5  N3  UNL     1      19.303  24.965  28.323  1.00  0.00    -0.129 N 
ATOM      6  H3  UNL     1      19.292  24.746  27.327  1.00  0.00     0.206 HD
HETATM    7  N4  UNL     1      20.373  24.915  29.066  1.00  0.00    -0.268 N 
HETATM    8  C5  UNL     1      21.747  24.562  28.716  1.00  0.00     0.180 C 
ENDROOT
BRANCH   1   9
HETATM    9  C2  UNL     1      20.840  25.367  31.526  1.00  0.00     0.245 C 
BRANCH   9  10
HETATM   10  O1  UNL     1      20.162  25.173  32.701  1.00  0.00    -0.389 OA
HETATM   11  C1  UNL     1      19.964  26.373  33.367  1.00  0.00     0.202 C 
ENDBRANCH   9  10
ENDBRANCH   1   9
BRANCH   4  12
HETATM   12  N2  UNL     1      17.014  25.469  28.528  1.00  0.00    -0.233 N 
ATOM     13  H22 UNL     1      16.166  25.080  28.940  1.00  0.00     0.174 HD
ATOM     14  H21 UNL     1      16.712  25.957  27.685  1.00  0.00     0.174 HD
ENDBRANCH   4  12
TORSDOF 3
ENDMDL
MODEL 3
REMARK VINA RESULT: -4.911630809      1.567      2.848
REMARK  3 active torsions:
REMARK  status: ('A' for Active; 'I' for Inactive)
REMARK    1  A    between atoms: O1_2  and  C2_3 
REMARK    2  A    between atoms: C2_3  and  C3_4 
REMARK    3  A    between atoms: C4_7  and  N2_8 
ROOT
HETATM    1  C3  UNL     1      20.182  25.486  29.474  1.00  0.00     0.138 A 
HETATM    2  N1  UNL     1      18.901  25.850  29.782  1.00  0.00    -0.176 N 
ATOM      3  H1  UNL     1      18.610  26.374  30.608  1.00  0.00     0.185 HD
HETATM    4  C4  UNL     1      18.094  25.401  28.816  1.00  0.00     0.692 A 
HETATM    5  N3  UNL     1      18.896  24.771  27.937  1.00  0.00    -0.129 N 
ATOM      6  H3  UNL     1      18.565  24.320  27.085  1.00  0.00     0.206 HD
HETATM    7  N4  UNL     1      20.148  24.805  28.302  1.00  0.00    -0.268 N 
HETATM    8  C5  UNL     1      21.333  24.254  27.651  1.00  0.00     0.180 C 
ENDROOT
BRANCH   1   9
HETATM    9  C2  UNL     1      21.382  25.795  30.295  1.00  0.00     0.245 C 
BRANCH   9  10
HETATM   10  O1  UNL     1      21.753  24.780  31.137  1.00  0.00    -0.389 OA
HETATM   11  C1  UNL     1      20.809  24.587  32.133  1.00  0.00     0.202 C 
ENDBRANCH   9  10
ENDBRANCH   1   9
BRANCH   4  12
HETATM   12  N2  UNL     1      16.799  25.517  28.698  1.00  0.00    -0.233 N 
ATOM     13  H22 UNL     1      16.285  25.480  27.818  1.00  0.00     0.174 HD
ATOM     14  H21 UNL     1      16.094  25.656  29.422  1.00  0.00     0.174 HD
ENDBRANCH   4  12
TORSDOF 3
ENDMDL
MODEL 4
REMARK VINA RESULT: -4.910408249      1.618      2.913
REMARK  3 active torsions:
REMARK  status: ('A' for Active; 'I' for Inactive)
REMARK    1  A    between atoms: O1_2  and  C2_3 
REMARK    2  A    between atoms: C2_3  and  C3_4 
REMARK    3  A    between atoms: C4_7  and  N2_8 
ROOT
HETATM    1  C3  UNL     1      20.148  26.065  29.480  1.00  0.00     0.138 A 
HETATM    2  N1  UNL     1      20.810  26.236  30.663  1.00  0.00    -0.176 N 
ATOM      3  H1  UNL     1      21.754  26.607  30.772  1.00  0.00     0.185 HD
HETATM    4  C4  UNL     1      20.007  25.834  31.653  1.00  0.00     0.692 A 
HETATM    5  N3  UNL     1      18.873  25.424  31.057  1.00  0.00    -0.129 N 
ATOM      6  H3  UNL     1      18.065  25.058  31.560  1.00  0.00     0.206 HD
HETATM    7  N4  UNL     1      18.926  25.549  29.760  1.00  0.00    -0.268 N 
HETATM    8  C5  UNL     1      17.928  25.229  28.743  1.00  0.00     0.180 C 
ENDROOT
BRANCH   1   9
HETATM    9  C2  UNL     1      20.694  26.393  28.136  1.00  0.00     0.245 C 
BRANCH   9  10
HETATM   10  O1  UNL     1      21.929  25.853  27.893  1.00  0.00    -0.389 OA
HETATM   11  C1  UNL     1      21.823  24.548  27.436  1.00  0.00     0.202 C 
ENDBRANCH   9  10
ENDBRANCH   1   9
BRANCH   4  12
HETATM   12  N2  UNL     1      20.226  25.818  32.941  1.00  0.00    -0.233 N 
ATOM     13  H22 UNL     1      20.841  26.462  33.439  1.00  0.00     0.174 HD
ATOM     14  H21 UNL     1      19.845  25.196  33.653  1.00  0.00     0.174 HD
ENDBRANCH   4  12
TORSDOF 3
ENDMDL
MODEL 5
REMARK VINA RESULT: -4.596502282      2.304      3.641
REMARK  3 active torsions:
REMARK  status: ('A' for Active; 'I' for Inactive)
REMARK    1  A    between atoms: O1_2  and  C2_3 
REMARK    2  A    between atoms: C2_3  and  C3_4 
REMARK    3  A    between atoms: C4_7  and  N2_8 
ROOT
HETATM    1  C3  UNL     1      20.106  25.728  29.618  1.00  0.00     0.138 A 
HETATM    2  N1  UNL     1      19.914  25.582  30.963  1.00  0.00    -0.176 N 
ATOM      3  H1  UNL     1      19.153  25.990  31.506  1.00  0.00     0.185 HD
HETATM    4  C4  UNL     1      20.895  24.812  31.445  1.00  0.00     0.692 A 
HETATM    5  N3  UNL     1      21.667  24.504  30.386  1.00  0.00    -0.129 N 
ATOM      6  H3  UNL     1      22.502  23.922  30.441  1.00  0.00     0.206 HD
HETATM    7  N4  UNL     1      21.222  25.035  29.282  1.00  0.00    -0.268 N 
HETATM    8  C5  UNL     1      21.748  24.956  27.921  1.00  0.00     0.180 C 
ENDROOT
BRANCH   1   9
HETATM    9  C2  UNL     1      19.232  26.512  28.707  1.00  0.00     0.245 C 
BRANCH   9  10
HETATM   10  O1  UNL     1      17.928  26.091  28.690  1.00  0.00    -0.389 OA
HETATM   11  C1  UNL     1      17.812  24.850  28.083  1.00  0.00     0.202 C 
ENDBRANCH   9  10
ENDBRANCH   1   9
BRANCH   4  12
HETATM   12  N2  UNL     1      21.109  24.414  32.670  1.00  0.00    -0.233 N 
ATOM     13  H22 UNL     1      21.975  23.994  33.007  1.00  0.00     0.174 HD
ATOM     14  H21 UNL     1      20.487  24.447  33.478  1.00  0.00     0.174 HD
ENDBRANCH   4  12
TORSDOF 3
ENDMDL
