MODEL 1
REMARK VINA RESULT: -7.796596417      0.000      0.000
REMARK  5 active torsions:
REMARK  status: ('A' for Active; 'I' for Inactive)
REMARK    1  A    between atoms: C1_2  and  C2_3 
REMARK       I    between atoms: C1_2  and  N1_10 
REMARK    2  A    between atoms: C2_3  and  C3_4 
REMARK    3  A    between atoms: N1_10  and  C9_12 
REMARK    4  A    between atoms: C9_12  and  C10_13 
REMARK    5  A    between atoms: C10_13  and  C11_14 
ROOT
HETATM    1  O1  UNL     1       4.155   8.327  23.549  1.00  0.00    -0.274 OA
HETATM    2  C1  UNL     1       4.507   7.492  22.692  1.00  0.00     0.217 C 
HETATM    3  N1  UNL     1       5.273   6.368  23.124  1.00  0.00    -0.361 N 
ATOM      4  H1  UNL     1       5.571   5.672  22.440  1.00  0.00     0.162 HD
ENDROOT
BRANCH   3   5
HETATM    5  C9  UNL     1       5.632   6.200  24.513  1.00  0.00     0.129 C 
BRANCH   5   6
HETATM    6  C10 UNL     1       7.078   5.804  24.653  1.00  0.00     0.084 C 
BRANCH   6   7
HETATM    7  C11 UNL     1       7.122   4.469  25.335  1.00  0.00     0.052 A 
HETATM    8  N2  UNL     1       6.974   3.299  24.730  1.00  0.00    -0.363 N 
HETATM    9  C12 UNL     1       7.025   2.209  25.420  1.00  0.00     0.095 A 
ATOM     10  H2  UNL     1       6.820   3.261  23.722  1.00  0.00     0.165 HD
HETATM   11  C13 UNL     1       7.234   2.311  26.770  1.00  0.00     0.068 A 
HETATM   12  S1  UNL     1       7.346   4.014  26.963  1.00  0.00    -0.087 SA
ENDBRANCH   6   7
ENDBRANCH   5   6
ENDBRANCH   3   5
BRANCH   2  13
HETATM   13  C2  UNL     1       4.162   7.632  21.286  1.00  0.00     0.107 C 
BRANCH  13  14
HETATM   14  C3  UNL     1       2.802   8.260  21.128  1.00  0.00    -0.006 C 
HETATM   15  C4  UNL     1       2.042   7.327  20.168  1.00  0.00     0.005 C 
HETATM   16  C5  UNL     1       0.701   7.899  19.814  1.00  0.00     0.000 C 
HETATM   17  C6  UNL     1       0.379   9.206  20.457  1.00  0.00     0.000 C 
HETATM   18  C7  UNL     1       1.499  10.200  20.446  1.00  0.00     0.000 C 
HETATM   19  C8  UNL     1       2.859   9.572  20.353  1.00  0.00     0.005 C 
ENDBRANCH  13  14
ENDBRANCH   2  13
TORSDOF 5
ENDMDL
MODEL 2
REMARK VINA RESULT: -7.610982942      3.255      4.510
REMARK  5 active torsions:
REMARK  status: ('A' for Active; 'I' for Inactive)
REMARK    1  A    between atoms: C1_2  and  C2_3 
REMARK       I    between atoms: C1_2  and  N1_10 
REMARK    2  A    between atoms: C2_3  and  C3_4 
REMARK    3  A    between atoms: N1_10  and  C9_12 
REMARK    4  A    between atoms: C9_12  and  C10_13 
REMARK    5  A    between atoms: C10_13  and  C11_14 
ROOT
HETATM    1  O1  UNL     1       7.669   6.187  24.343  1.00  0.00    -0.274 OA
HETATM    2  C1  UNL     1       6.508   5.796  24.579  1.00  0.00     0.217 C 
HETATM    3  N1  UNL     1       6.342   4.634  25.390  1.00  0.00    -0.361 N 
ATOM      4  H1  UNL     1       5.401   4.297  25.596  1.00  0.00     0.162 HD
ENDROOT
BRANCH   3   5
HETATM    5  C9  UNL     1       7.483   3.928  25.924  1.00  0.00     0.129 C 
BRANCH   5   6
HETATM    6  C10 UNL     1       7.297   2.438  25.814  1.00  0.00     0.084 C 
BRANCH   6   7
HETATM    7  C11 UNL     1       7.153   1.892  27.203  1.00  0.00     0.052 A 
HETATM    8  N2  UNL     1       7.029   0.608  27.507  1.00  0.00    -0.363 N 
HETATM    9  C12 UNL     1       6.906   0.250  28.743  1.00  0.00     0.095 A 
ATOM     10  H2  UNL     1       7.032  -0.095  26.769  1.00  0.00     0.165 HD
HETATM   11  C13 UNL     1       6.909   1.230  29.700  1.00  0.00     0.068 A 
HETATM   12  S1  UNL     1       7.093   2.640  28.734  1.00  0.00    -0.087 SA
ENDBRANCH   6   7
ENDBRANCH   5   6
ENDBRANCH   3   5
BRANCH   2  13
HETATM   13  C2  UNL     1       5.338   6.484  24.055  1.00  0.00     0.107 C 
BRANCH  13  14
HETATM   14  C3  UNL     1       5.089   7.765  24.807  1.00  0.00    -0.006 C 
HETATM   15  C4  UNL     1       4.578   7.323  26.190  1.00  0.00     0.005 C 
HETATM   16  C5  UNL     1       4.162   8.507  27.012  1.00  0.00     0.000 C 
HETATM   17  C6  UNL     1       4.341   9.832  26.351  1.00  0.00     0.000 C 
HETATM   18  C7  UNL     1       3.892   9.882  24.923  1.00  0.00     0.000 C 
HETATM   19  C8  UNL     1       3.907   8.545  24.241  1.00  0.00     0.005 C 
ENDBRANCH  13  14
ENDBRANCH   2  13
TORSDOF 5
ENDMDL
MODEL 3
REMARK VINA RESULT: -7.584988434      3.449      5.334
REMARK  5 active torsions:
REMARK  status: ('A' for Active; 'I' for Inactive)
REMARK    1  A    between atoms: C1_2  and  C2_3 
REMARK       I    between atoms: C1_2  and  N1_10 
REMARK    2  A    between atoms: C2_3  and  C3_4 
REMARK    3  A    between atoms: N1_10  and  C9_12 
REMARK    4  A    between atoms: C9_12  and  C10_13 
REMARK    5  A    between atoms: C10_13  and  C11_14 
ROOT
HETATM    1  O1  UNL     1       0.836  10.040  21.251  1.00  0.00    -0.274 OA
HETATM    2  C1  UNL     1       1.826  10.428  20.599  1.00  0.00     0.217 C 
HETATM    3  N1  UNL     1       2.877   9.495  20.354  1.00  0.00    -0.361 N 
ATOM      4  H1  UNL     1       3.696   9.791  19.823  1.00  0.00     0.162 HD
ENDROOT
BRANCH   3   5
HETATM    5  C9  UNL     1       2.801   8.140  20.846  1.00  0.00     0.129 C 
BRANCH   5   6
HETATM    6  C10 UNL     1       4.175   7.571  21.081  1.00  0.00     0.084 C 
BRANCH   6   7
HETATM    7  C11 UNL     1       4.416   7.556  22.561  1.00  0.00     0.052 A 
HETATM    8  N2  UNL     1       4.927   6.539  23.239  1.00  0.00    -0.363 N 
HETATM    9  C12 UNL     1       5.086   6.634  24.517  1.00  0.00     0.095 A 
ATOM     10  H2  UNL     1       5.194   5.683  22.753  1.00  0.00     0.165 HD
HETATM   11  C13 UNL     1       4.713   7.803  25.126  1.00  0.00     0.068 A 
HETATM   12  S1  UNL     1       4.143   8.712  23.784  1.00  0.00    -0.087 SA
ENDBRANCH   6   7
ENDBRANCH   5   6
ENDBRANCH   3   5
BRANCH   2  13
HETATM   13  C2  UNL     1       1.933  11.787  20.091  1.00  0.00     0.107 C 
BRANCH  13  14
HETATM   14  C3  UNL     1       1.691  12.790  21.188  1.00  0.00    -0.006 C 
HETATM   15  C4  UNL     1       1.993  14.158  20.551  1.00  0.00     0.005 C 
HETATM   16  C5  UNL     1       1.918  15.254  21.573  1.00  0.00     0.000 C 
HETATM   17  C6  UNL     1       1.560  14.812  22.951  1.00  0.00     0.000 C 
HETATM   18  C7  UNL     1       2.272  13.579  23.417  1.00  0.00     0.000 C 
HETATM   19  C8  UNL     1       2.735  12.694  22.297  1.00  0.00     0.005 C 
ENDBRANCH  13  14
ENDBRANCH   2  13
TORSDOF 5
ENDMDL
MODEL 4
REMARK VINA RESULT: -7.347990766      3.137      7.825
REMARK  5 active torsions:
REMARK  status: ('A' for Active; 'I' for Inactive)
REMARK    1  A    between atoms: C1_2  and  C2_3 
REMARK       I    between atoms: C1_2  and  N1_10 
REMARK    2  A    between atoms: C2_3  and  C3_4 
REMARK    3  A    between atoms: N1_10  and  C9_12 
REMARK    4  A    between atoms: C9_12  and  C10_13 
REMARK    5  A    between atoms: C10_13  and  C11_14 
ROOT
HETATM    1  O1  UNL     1       7.050   7.053  23.755  1.00  0.00    -0.274 OA
HETATM    2  C1  UNL     1       6.144   6.239  24.025  1.00  0.00     0.217 C 
HETATM    3  N1  UNL     1       4.833   6.503  23.527  1.00  0.00    -0.361 N 
ATOM      4  H1  UNL     1       4.077   5.850  23.735  1.00  0.00     0.162 HD
ENDROOT
BRANCH   3   5
HETATM    5  C9  UNL     1       4.559   7.677  22.733  1.00  0.00     0.129 C 
BRANCH   5   6
HETATM    6  C10 UNL     1       4.291   7.310  21.298  1.00  0.00     0.084 C 
BRANCH   6   7
HETATM    7  C11 UNL     1       3.002   7.960  20.894  1.00  0.00     0.052 A 
HETATM    8  N2  UNL     1       2.082   7.408  20.115  1.00  0.00    -0.363 N 
HETATM    9  C12 UNL     1       1.007   8.065  19.827  1.00  0.00     0.095 A 
ATOM     10  H2  UNL     1       2.222   6.468  19.746  1.00  0.00     0.165 HD
HETATM   11  C13 UNL     1       0.863   9.323  20.347  1.00  0.00     0.068 A 
HETATM   12  S1  UNL     1       2.321   9.485  21.241  1.00  0.00    -0.087 SA
ENDBRANCH   6   7
ENDBRANCH   5   6
ENDBRANCH   3   5
BRANCH   2  13
HETATM   13  C2  UNL     1       6.387   5.047  24.822  1.00  0.00     0.107 C 
BRANCH  13  14
HETATM   14  C3  UNL     1       6.656   5.409  26.259  1.00  0.00    -0.006 C 
HETATM   15  C4  UNL     1       6.834   4.062  26.983  1.00  0.00     0.005 C 
HETATM   16  C5  UNL     1       6.981   4.264  28.463  1.00  0.00     0.000 C 
HETATM   17  C6  UNL     1       6.946   5.685  28.915  1.00  0.00     0.000 C 
HETATM   18  C7  UNL     1       5.873   6.515  28.282  1.00  0.00     0.000 C 
HETATM   19  C8  UNL     1       5.429   6.003  26.943  1.00  0.00     0.005 C 
ENDBRANCH  13  14
ENDBRANCH   2  13
TORSDOF 5
ENDMDL
MODEL 5
REMARK VINA RESULT: -7.332177141      2.154      3.284
REMARK  5 active torsions:
REMARK  status: ('A' for Active; 'I' for Inactive)
REMARK    1  A    between atoms: C1_2  and  C2_3 
REMARK       I    between atoms: C1_2  and  N1_10 
REMARK    2  A    between atoms: C2_3  and  C3_4 
REMARK    3  A    between atoms: N1_10  and  C9_12 
REMARK    4  A    between atoms: C9_12  and  C10_13 
REMARK    5  A    between atoms: C10_13  and  C11_14 
ROOT
HETATM    1  O1  UNL     1       4.534   8.562  23.090  1.00  0.00    -0.274 OA
HETATM    2  C1  UNL     1       4.621   7.482  22.473  1.00  0.00     0.217 C 
HETATM    3  N1  UNL     1       5.374   6.426  23.068  1.00  0.00    -0.361 N 
ATOM      4  H1  UNL     1       5.458   5.534  22.581  1.00  0.00     0.162 HD
ENDROOT
BRANCH   3   5
HETATM    5  C9  UNL     1       6.019   6.601  24.348  1.00  0.00     0.129 C 
BRANCH   5   6
HETATM    6  C10 UNL     1       5.210   5.975  25.452  1.00  0.00     0.084 C 
BRANCH   6   7
HETATM    7  C11 UNL     1       4.772   7.072  26.376  1.00  0.00     0.052 A 
HETATM    8  N2  UNL     1       4.228   8.218  25.993  1.00  0.00    -0.363 N 
HETATM    9  C12 UNL     1       3.893   9.097  26.879  1.00  0.00     0.095 A 
ATOM     10  H2  UNL     1       4.076   8.406  25.002  1.00  0.00     0.165 HD
HETATM   11  C13 UNL     1       4.117   8.800  28.197  1.00  0.00     0.068 A 
HETATM   12  S1  UNL     1       4.814   7.235  28.073  1.00  0.00    -0.087 SA
ENDBRANCH   6   7
ENDBRANCH   5   6
ENDBRANCH   3   5
BRANCH   2  13
HETATM   13  C2  UNL     1       3.984   7.274  21.182  1.00  0.00     0.107 C 
BRANCH  13  14
HETATM   14  C3  UNL     1       2.725   8.094  21.068  1.00  0.00    -0.006 C 
HETATM   15  C4  UNL     1       1.803   7.282  20.141  1.00  0.00     0.005 C 
HETATM   16  C5  UNL     1       0.549   8.044  19.830  1.00  0.00     0.000 C 
HETATM   17  C6  UNL     1       0.445   9.384  20.476  1.00  0.00     0.000 C 
HETATM   18  C7  UNL     1       1.697  10.203  20.419  1.00  0.00     0.000 C 
HETATM   19  C8  UNL     1       2.946   9.383  20.283  1.00  0.00     0.005 C 
ENDBRANCH  13  14
ENDBRANCH   2  13
TORSDOF 5
ENDMDL
