MODEL 1
REMARK VINA RESULT: -6.398723208      0.000      0.000
REMARK  8 active torsions:
REMARK  status: ('A' for Active; 'I' for Inactive)
REMARK    1  A    between atoms: C2_2  and  C4_4 
REMARK    2  A    between atoms: C4_4  and  C5_5 
REMARK    3  A    between atoms: C4_4  and  N2_12 
REMARK    4  A    between atoms: C5_5  and  C6_6 
REMARK    5  A    between atoms: C6_6  and  C7_7 
REMARK    6  A    between atoms: C7_7  and  N1_8 
REMARK    7  A    between atoms: N1_8  and  C8_10 
REMARK    8  A    between atoms: N2_12  and  N3_14 
ROOT
HETATM    1  C4  UNL     1       2.296   9.969  20.969  1.00  0.00     0.022 C 
ENDROOT
BRANCH   1   2
HETATM    2  C2  UNL     1       1.903   8.771  20.578  1.00  0.00    -0.064 C 
HETATM    3  C1  UNL     1       0.473   8.569  20.247  1.00  0.00     0.045 C 
HETATM    4  C3  UNL     1       2.816   7.610  20.452  1.00  0.00     0.045 C 
ENDBRANCH   1   2
BRANCH   1   5
HETATM    5  C5  UNL     1       1.687  11.208  20.481  1.00  0.00     0.060 C 
BRANCH   5   6
HETATM    6  C6  UNL     1       2.325  12.473  20.958  1.00  0.00     0.025 C 
BRANCH   6   7
HETATM    7  C7  UNL     1       2.601  13.417  19.812  1.00  0.00     0.120 C 
BRANCH   7   8
HETATM    8  N1  UNL     1       2.213  14.767  20.151  1.00  0.00    -0.390 N 
ATOM      9  H1  UNL     1       2.136  15.462  19.408  1.00  0.00     0.159 HD
BRANCH   8  10
HETATM   10  C8  UNL     1       1.964  15.113  21.349  1.00  0.00     0.165 C 
HETATM   11  S1  UNL     1       1.685  15.995  22.666  1.00  0.00    -0.075 SA
ENDBRANCH   8  10
ENDBRANCH   7   8
ENDBRANCH   6   7
ENDBRANCH   5   6
ENDBRANCH   1   5
BRANCH   1  12
HETATM   12  N2  UNL     1       3.338  10.016  21.919  1.00  0.00    -0.323 N 
ATOM     13  H2  UNL     1       4.264  10.325  21.626  1.00  0.00     0.180 HD
BRANCH  12  14
HETATM   14  N3  UNL     1       3.133   9.657  23.223  1.00  0.00    -0.231 NA
HETATM   15  C9  UNL     1       3.245  10.847  24.060  1.00  0.00     0.113 C 
HETATM   16  C10 UNL     1       2.976  10.359  25.490  1.00  0.00     0.016 C 
HETATM   17  C11 UNL     1       4.248   9.665  25.926  1.00  0.00     0.002 C 
HETATM   18  C12 UNL     1       4.940   8.987  24.768  1.00  0.00     0.016 C 
HETATM   19  C13 UNL     1       3.994   8.587  23.676  1.00  0.00     0.113 C 
ENDBRANCH  12  14
ENDBRANCH   1  12
TORSDOF 8
ENDMDL
MODEL 2
REMARK VINA RESULT: -6.397749761      3.660      5.467
REMARK  8 active torsions:
REMARK  status: ('A' for Active; 'I' for Inactive)
REMARK    1  A    between atoms: C2_2  and  C4_4 
REMARK    2  A    between atoms: C4_4  and  C5_5 
REMARK    3  A    between atoms: C4_4  and  N2_12 
REMARK    4  A    between atoms: C5_5  and  C6_6 
REMARK    5  A    between atoms: C6_6  and  C7_7 
REMARK    6  A    between atoms: C7_7  and  N1_8 
REMARK    7  A    between atoms: N1_8  and  C8_10 
REMARK    8  A    between atoms: N2_12  and  N3_14 
ROOT
HETATM    1  C4  UNL     1       3.752   9.268  24.420  1.00  0.00     0.022 C 
ENDROOT
BRANCH   1   2
HETATM    2  C2  UNL     1       3.205  10.128  25.259  1.00  0.00    -0.064 C 
HETATM    3  C1  UNL     1       3.322   9.869  26.713  1.00  0.00     0.045 C 
HETATM    4  C3  UNL     1       2.476  11.344  24.827  1.00  0.00     0.045 C 
ENDBRANCH   1   2
BRANCH   1   5
HETATM    5  C5  UNL     1       4.119   9.615  23.046  1.00  0.00     0.060 C 
BRANCH   5   6
HETATM    6  C6  UNL     1       3.190   9.122  21.984  1.00  0.00     0.025 C 
BRANCH   6   7
HETATM    7  C7  UNL     1       3.854   8.088  21.107  1.00  0.00     0.120 C 
BRANCH   7   8
HETATM    8  N1  UNL     1       2.872   7.355  20.340  1.00  0.00    -0.390 N 
ATOM      9  H1  UNL     1       3.092   6.409  20.029  1.00  0.00     0.159 HD
BRANCH   8  10
HETATM   10  C8  UNL     1       1.743   7.858  20.042  1.00  0.00     0.165 C 
HETATM   11  S1  UNL     1       0.162   8.153  19.982  1.00  0.00    -0.075 SA
ENDBRANCH   8  10
ENDBRANCH   7   8
ENDBRANCH   6   7
ENDBRANCH   5   6
ENDBRANCH   1   5
BRANCH   1  12
HETATM   12  N2  UNL     1       4.000   7.971  24.916  1.00  0.00    -0.323 N 
ATOM     13  H2  UNL     1       3.212   7.382  25.185  1.00  0.00     0.180 HD
BRANCH  12  14
HETATM   14  N3  UNL     1       5.273   7.484  25.042  1.00  0.00    -0.231 NA
HETATM   15  C9  UNL     1       5.501   6.491  23.998  1.00  0.00     0.113 C 
HETATM   16  C10 UNL     1       6.950   6.024  24.197  1.00  0.00     0.016 C 
HETATM   17  C11 UNL     1       6.912   5.087  25.384  1.00  0.00     0.002 C 
HETATM   18  C12 UNL     1       5.863   5.500  26.389  1.00  0.00     0.016 C 
HETATM   19  C13 UNL     1       5.574   6.970  26.359  1.00  0.00     0.113 C 
ENDBRANCH  12  14
ENDBRANCH   1  12
TORSDOF 8
ENDMDL
MODEL 3
REMARK VINA RESULT: -6.388428584      3.280      5.907
REMARK  8 active torsions:
REMARK  status: ('A' for Active; 'I' for Inactive)
REMARK    1  A    between atoms: C2_2  and  C4_4 
REMARK    2  A    between atoms: C4_4  and  C5_5 
REMARK    3  A    between atoms: C4_4  and  N2_12 
REMARK    4  A    between atoms: C5_5  and  C6_6 
REMARK    5  A    between atoms: C6_6  and  C7_7 
REMARK    6  A    between atoms: C7_7  and  N1_8 
REMARK    7  A    between atoms: N1_8  and  C8_10 
REMARK    8  A    between atoms: N2_12  and  N3_14 
ROOT
HETATM    1  C4  UNL     1       2.699   9.882  22.086  1.00  0.00     0.022 C 
ENDROOT
BRANCH   1   2
HETATM    2  C2  UNL     1       2.420   9.031  21.116  1.00  0.00    -0.064 C 
HETATM    3  C1  UNL     1       3.421   7.992  20.777  1.00  0.00     0.045 C 
HETATM    4  C3  UNL     1       1.155   9.056  20.342  1.00  0.00     0.045 C 
ENDBRANCH   1   2
BRANCH   1   5
HETATM    5  C5  UNL     1       3.851   9.729  22.976  1.00  0.00     0.060 C 
BRANCH   5   6
HETATM    6  C6  UNL     1       3.528   9.431  24.406  1.00  0.00     0.025 C 
BRANCH   6   7
HETATM    7  C7  UNL     1       4.258   8.201  24.890  1.00  0.00     0.120 C 
BRANCH   7   8
HETATM    8  N1  UNL     1       5.211   7.745  23.903  1.00  0.00    -0.390 N 
ATOM      9  H1  UNL     1       5.333   8.284  23.046  1.00  0.00     0.159 HD
BRANCH   8  10
HETATM   10  C8  UNL     1       5.900   6.690  24.074  1.00  0.00     0.165 C 
HETATM   11  S1  UNL     1       6.858   5.570  24.721  1.00  0.00    -0.075 SA
ENDBRANCH   8  10
ENDBRANCH   7   8
ENDBRANCH   6   7
ENDBRANCH   5   6
ENDBRANCH   1   5
BRANCH   1  12
HETATM   12  N2  UNL     1       1.836  10.989  22.224  1.00  0.00    -0.323 N 
ATOM     13  H2  UNL     1       0.832  10.831  22.308  1.00  0.00     0.180 HD
BRANCH  12  14
HETATM   14  N3  UNL     1       2.315  12.271  22.250  1.00  0.00    -0.231 NA
HETATM   15  C9  UNL     1       1.404  13.097  23.035  1.00  0.00     0.113 C 
HETATM   16  C10 UNL     1       2.030  14.499  23.033  1.00  0.00     0.016 C 
HETATM   17  C11 UNL     1       1.726  15.075  21.668  1.00  0.00     0.002 C 
HETATM   18  C12 UNL     1       1.702  14.005  20.602  1.00  0.00     0.016 C 
HETATM   19  C13 UNL     1       2.565  12.827  20.939  1.00  0.00     0.113 C 
ENDBRANCH  12  14
ENDBRANCH   1  12
TORSDOF 8
ENDMDL
MODEL 4
REMARK VINA RESULT: -6.366030414      2.892      5.741
REMARK  8 active torsions:
REMARK  status: ('A' for Active; 'I' for Inactive)
REMARK    1  A    between atoms: C2_2  and  C4_4 
REMARK    2  A    between atoms: C4_4  and  C5_5 
REMARK    3  A    between atoms: C4_4  and  N2_12 
REMARK    4  A    between atoms: C5_5  and  C6_6 
REMARK    5  A    between atoms: C6_6  and  C7_7 
REMARK    6  A    between atoms: C7_7  and  N1_8 
REMARK    7  A    between atoms: N1_8  and  C8_10 
REMARK    8  A    between atoms: N2_12  and  N3_14 
ROOT
HETATM    1  C4  UNL     1       2.851  12.033  22.249  1.00  0.00     0.022 C 
ENDROOT
BRANCH   1   2
HETATM    2  C2  UNL     1       2.255  13.200  22.087  1.00  0.00    -0.064 C 
HETATM    3  C1  UNL     1       1.755  13.556  20.739  1.00  0.00     0.045 C 
HETATM    4  C3  UNL     1       2.058  14.179  23.182  1.00  0.00     0.045 C 
ENDBRANCH   1   2
BRANCH   1   5
HETATM    5  C5  UNL     1       3.511  11.639  23.495  1.00  0.00     0.060 C 
BRANCH   5   6
HETATM    6  C6  UNL     1       2.678  10.838  24.444  1.00  0.00     0.025 C 
BRANCH   6   7
HETATM    7  C7  UNL     1       3.434   9.638  24.962  1.00  0.00     0.120 C 
BRANCH   7   8
HETATM    8  N1  UNL     1       3.800   8.753  23.879  1.00  0.00    -0.390 N 
ATOM      9  H1  UNL     1       3.244   8.758  23.025  1.00  0.00     0.159 HD
BRANCH   8  10
HETATM   10  C8  UNL     1       4.797   7.968  23.963  1.00  0.00     0.165 C 
HETATM   11  S1  UNL     1       5.701   6.645  24.114  1.00  0.00    -0.075 SA
ENDBRANCH   8  10
ENDBRANCH   7   8
ENDBRANCH   6   7
ENDBRANCH   5   6
ENDBRANCH   1   5
BRANCH   1  12
HETATM   12  N2  UNL     1       2.807  11.142  21.156  1.00  0.00    -0.323 N 
ATOM     13  H2  UNL     1       3.064  11.480  20.228  1.00  0.00     0.180 HD
BRANCH  12  14
HETATM   14  N3  UNL     1       2.430   9.836  21.311  1.00  0.00    -0.231 NA
HETATM   15  C9  UNL     1       3.132   9.024  20.323  1.00  0.00     0.113 C 
HETATM   16  C10 UNL     1       2.673   7.583  20.587  1.00  0.00     0.016 C 
HETATM   17  C11 UNL     1       1.282   7.488  20.001  1.00  0.00     0.002 C 
HETATM   18  C12 UNL     1       0.536   8.797  20.115  1.00  0.00     0.016 C 
HETATM   19  C13 UNL     1       0.999   9.632  21.269  1.00  0.00     0.113 C 
ENDBRANCH  12  14
ENDBRANCH   1  12
TORSDOF 8
ENDMDL
MODEL 5
REMARK VINA RESULT: -6.337552106      3.587      6.870
REMARK  8 active torsions:
REMARK  status: ('A' for Active; 'I' for Inactive)
REMARK    1  A    between atoms: C2_2  and  C4_4 
REMARK    2  A    between atoms: C4_4  and  C5_5 
REMARK    3  A    between atoms: C4_4  and  N2_12 
REMARK    4  A    between atoms: C5_5  and  C6_6 
REMARK    5  A    between atoms: C6_6  and  C7_7 
REMARK    6  A    between atoms: C7_7  and  N1_8 
REMARK    7  A    between atoms: N1_8  and  C8_10 
REMARK    8  A    between atoms: N2_12  and  N3_14 
ROOT
HETATM    1  C4  UNL     1       3.529   9.727  25.159  1.00  0.00     0.022 C 
ENDROOT
BRANCH   1   2
HETATM    2  C2  UNL     1       3.100  10.298  26.269  1.00  0.00    -0.064 C 
HETATM    3  C1  UNL     1       3.403   9.642  27.563  1.00  0.00     0.045 C 
HETATM    4  C3  UNL     1       2.328  11.563  26.295  1.00  0.00     0.045 C 
ENDBRANCH   1   2
BRANCH   1   5
HETATM    5  C5  UNL     1       3.994   8.340  25.101  1.00  0.00     0.060 C 
BRANCH   5   6
HETATM    6  C6  UNL     1       5.244   8.108  24.314  1.00  0.00     0.025 C 
BRANCH   6   7
HETATM    7  C7  UNL     1       5.078   6.967  23.340  1.00  0.00     0.120 C 
BRANCH   7   8
HETATM    8  N1  UNL     1       6.088   5.955  23.556  1.00  0.00    -0.390 N 
ATOM      9  H1  UNL     1       6.471   5.457  22.752  1.00  0.00     0.159 HD
BRANCH   8  10
HETATM   10  C8  UNL     1       6.511   5.668  24.720  1.00  0.00     0.165 C 
HETATM   11  S1  UNL     1       6.616   5.073  26.212  1.00  0.00    -0.075 SA
ENDBRANCH   8  10
ENDBRANCH   7   8
ENDBRANCH   6   7
ENDBRANCH   5   6
ENDBRANCH   1   5
BRANCH   1  12
HETATM   12  N2  UNL     1       3.503  10.516  23.990  1.00  0.00    -0.323 N 
ATOM     13  H2  UNL     1       4.275  11.156  23.804  1.00  0.00     0.180 HD
BRANCH  12  14
HETATM   14  N3  UNL     1       2.466  10.442  23.100  1.00  0.00    -0.231 NA
HETATM   15  C9  UNL     1       2.886   9.639  21.957  1.00  0.00     0.113 C 
HETATM   16  C10 UNL     1       1.662   9.586  21.031  1.00  0.00     0.016 C 
HETATM   17  C11 UNL     1       1.616  10.934  20.346  1.00  0.00     0.002 C 
HETATM   18  C12 UNL     1       2.126  12.037  21.244  1.00  0.00     0.016 C 
HETATM   19  C13 UNL     1       1.946  11.731  22.700  1.00  0.00     0.113 C 
ENDBRANCH  12  14
ENDBRANCH   1  12
TORSDOF 8
ENDMDL
