MODEL 1
REMARK VINA RESULT: -4.917654502      0.000      0.000
REMARK  2 active torsions:
REMARK  status: ('A' for Active; 'I' for Inactive)
REMARK    1  A    between atoms: N2_4  and  N3_6 
REMARK    2  A    between atoms: N3_6  and  C1_8 
ROOT
HETATM    1  N3  UNL     1      50.435  36.725  40.850  1.00  0.00    -0.317 N 
ATOM      2  H3  UNL     1      51.432  36.591  40.682  1.00  0.00     0.182 HD
ENDROOT
BRANCH   1   3
HETATM    3  N2  UNL     1      49.995  37.807  41.605  1.00  0.00    -0.253 N 
HETATM    4  N1  UNL     1      49.290  37.610  42.643  1.00  0.00    -0.331 N 
ATOM      5  H12 UNL     1      49.055  36.654  42.908  1.00  0.00     0.178 HD
ATOM      6  H11 UNL     1      48.968  38.403  43.196  1.00  0.00     0.178 HD
ATOM      7  H2  UNL     1      50.239  38.758  41.326  1.00  0.00     0.207 HD
ENDBRANCH   1   3
BRANCH   1   8
HETATM    8  C1  UNL     1      49.495  35.808  40.312  1.00  0.00     0.105 C 
HETATM    9  C2  UNL     1      49.993  34.351  40.420  1.00  0.00     0.031 C 
HETATM   10  C3  UNL     1      49.816  33.938  38.997  1.00  0.00    -0.012 C 
HETATM   11  C4  UNL     1      50.502  35.105  38.277  1.00  0.00     0.011 C 
HETATM   12  C6  UNL     1      48.513  34.616  38.562  1.00  0.00     0.011 C 
HETATM   13  C5  UNL     1      49.305  35.887  38.834  1.00  0.00     0.010 C 
ENDBRANCH   1   8
TORSDOF 2
ENDMDL
MODEL 2
REMARK VINA RESULT: -4.886298360      0.712      1.074
REMARK  2 active torsions:
REMARK  status: ('A' for Active; 'I' for Inactive)
REMARK    1  A    between atoms: N2_4  and  N3_6 
REMARK    2  A    between atoms: N3_6  and  C1_8 
ROOT
HETATM    1  N3  UNL     1      50.533  36.523  40.898  1.00  0.00    -0.317 N 
ATOM      2  H3  UNL     1      51.400  36.110  41.241  1.00  0.00     0.182 HD
ENDROOT
BRANCH   1   3
HETATM    3  N2  UNL     1      50.334  37.897  40.984  1.00  0.00    -0.253 N 
HETATM    4  N1  UNL     1      51.076  38.686  40.322  1.00  0.00    -0.331 N 
ATOM      5  H12 UNL     1      51.812  38.297  39.733  1.00  0.00     0.178 HD
ATOM      6  H11 UNL     1      50.931  39.693  40.385  1.00  0.00     0.178 HD
ATOM      7  H2  UNL     1      49.593  38.270  41.578  1.00  0.00     0.207 HD
ENDBRANCH   1   3
BRANCH   1   8
HETATM    8  C1  UNL     1      49.528  35.695  40.332  1.00  0.00     0.105 C 
HETATM    9  C2  UNL     1      49.925  34.205  40.376  1.00  0.00     0.031 C 
HETATM   10  C3  UNL     1      49.710  33.864  38.939  1.00  0.00    -0.012 C 
HETATM   11  C4  UNL     1      50.471  35.009  38.261  1.00  0.00     0.011 C 
HETATM   12  C6  UNL     1      48.454  34.647  38.544  1.00  0.00     0.011 C 
HETATM   13  C5  UNL     1      49.335  35.849  38.861  1.00  0.00     0.010 C 
ENDBRANCH   1   8
TORSDOF 2
ENDMDL
MODEL 3
REMARK VINA RESULT: -4.748555316      0.974      1.880
REMARK  2 active torsions:
REMARK  status: ('A' for Active; 'I' for Inactive)
REMARK    1  A    between atoms: N2_4  and  N3_6 
REMARK    2  A    between atoms: N3_6  and  C1_8 
ROOT
HETATM    1  N3  UNL     1      49.726  36.376  41.199  1.00  0.00    -0.317 N 
ATOM      2  H3  UNL     1      49.205  35.592  41.591  1.00  0.00     0.182 HD
ENDROOT
BRANCH   1   3
HETATM    3  N2  UNL     1      49.735  37.603  41.853  1.00  0.00    -0.253 N 
HETATM    4  N1  UNL     1      49.188  37.716  42.994  1.00  0.00    -0.331 N 
ATOM      5  H12 UNL     1      48.747  36.899  43.415  1.00  0.00     0.178 HD
ATOM      6  H11 UNL     1      49.195  38.616  43.473  1.00  0.00     0.178 HD
ATOM      7  H2  UNL     1      50.181  38.411  41.418  1.00  0.00     0.207 HD
ENDBRANCH   1   3
BRANCH   1   8
HETATM    8  C1  UNL     1      50.444  36.214  39.985  1.00  0.00     0.105 C 
HETATM    9  C2  UNL     1      50.119  37.337  38.977  1.00  0.00     0.031 C 
HETATM   10  C3  UNL     1      49.761  36.495  37.798  1.00  0.00    -0.012 C 
HETATM   11  C4  UNL     1      48.778  35.511  38.443  1.00  0.00     0.011 C 
HETATM   12  C6  UNL     1      50.751  35.327  37.848  1.00  0.00     0.011 C 
HETATM   13  C5  UNL     1      50.045  35.034  39.165  1.00  0.00     0.010 C 
ENDBRANCH   1   8
TORSDOF 2
ENDMDL
MODEL 4
REMARK VINA RESULT: -4.727196411      1.815      2.157
REMARK  2 active torsions:
REMARK  status: ('A' for Active; 'I' for Inactive)
REMARK    1  A    between atoms: N2_4  and  N3_6 
REMARK    2  A    between atoms: N3_6  and  C1_8 
ROOT
HETATM    1  N3  UNL     1      51.017  37.674  39.547  1.00  0.00    -0.317 N 
ATOM      2  H3  UNL     1      51.662  37.605  40.335  1.00  0.00     0.182 HD
ENDROOT
BRANCH   1   3
HETATM    3  N2  UNL     1      51.216  38.643  38.569  1.00  0.00    -0.253 N 
HETATM    4  N1  UNL     1      50.443  39.648  38.508  1.00  0.00    -0.331 N 
ATOM      5  H12 UNL     1      49.683  39.731  39.182  1.00  0.00     0.178 HD
ATOM      6  H11 UNL     1      50.588  40.358  37.790  1.00  0.00     0.178 HD
ATOM      7  H2  UNL     1      51.982  38.546  37.901  1.00  0.00     0.207 HD
ENDBRANCH   1   3
BRANCH   1   8
HETATM    8  C1  UNL     1      49.917  36.784  39.449  1.00  0.00     0.105 C 
HETATM    9  C2  UNL     1      50.219  35.428  40.123  1.00  0.00     0.031 C 
HETATM   10  C3  UNL     1      49.862  34.522  38.993  1.00  0.00    -0.012 C 
HETATM   11  C4  UNL     1      50.637  35.183  37.847  1.00  0.00     0.011 C 
HETATM   12  C6  UNL     1      48.631  35.172  38.355  1.00  0.00     0.011 C 
HETATM   13  C5  UNL     1      49.612  36.303  38.071  1.00  0.00     0.010 C 
ENDBRANCH   1   8
TORSDOF 2
ENDMDL
MODEL 5
REMARK VINA RESULT: -4.499997422      0.781      1.566
REMARK  2 active torsions:
REMARK  status: ('A' for Active; 'I' for Inactive)
REMARK    1  A    between atoms: N2_4  and  N3_6 
REMARK    2  A    between atoms: N3_6  and  C1_8 
ROOT
HETATM    1  N3  UNL     1      49.966  36.951  40.917  1.00  0.00    -0.317 N 
ATOM      2  H3  UNL     1      50.091  37.872  40.497  1.00  0.00     0.182 HD
ENDROOT
BRANCH   1   3
HETATM    3  N2  UNL     1      49.364  36.831  42.165  1.00  0.00    -0.253 N 
HETATM    4  N1  UNL     1      49.280  37.844  42.927  1.00  0.00    -0.331 N 
ATOM      5  H12 UNL     1      49.659  38.736  42.609  1.00  0.00     0.178 HD
ATOM      6  H11 UNL     1      48.839  37.756  43.841  1.00  0.00     0.178 HD
ATOM      7  H2  UNL     1      48.990  35.932  42.468  1.00  0.00     0.207 HD
ENDBRANCH   1   3
BRANCH   1   8
HETATM    8  C1  UNL     1      50.406  35.791  40.228  1.00  0.00     0.105 C 
HETATM    9  C2  UNL     1      50.570  36.053  38.716  1.00  0.00     0.031 C 
HETATM   10  C3  UNL     1      49.748  34.922  38.193  1.00  0.00    -0.012 C 
HETATM   11  C4  UNL     1      48.476  35.087  39.033  1.00  0.00     0.011 C 
HETATM   12  C6  UNL     1      50.057  33.757  39.138  1.00  0.00     0.011 C 
HETATM   13  C5  UNL     1      49.418  34.674  40.172  1.00  0.00     0.010 C 
ENDBRANCH   1   8
TORSDOF 2
ENDMDL
