MODEL 1
REMARK VINA RESULT: -4.275860672      0.000      0.000
REMARK  1 active torsions:
REMARK  status: ('A' for Active; 'I' for Inactive)
REMARK    1  A    between atoms: C3_3  and  N1_4 
ROOT
HETATM    1  C1  UNL     1      50.513  38.726  39.625  1.00  0.00     0.013 C 
HETATM    2  C2  UNL     1      50.320  37.749  38.923  1.00  0.00    -0.088 C 
HETATM    3  C3  UNL     1      50.110  36.596  38.098  1.00  0.00     0.352 C 
ENDROOT
BRANCH   3   4
HETATM    4  N1  UNL     1      49.744  35.463  38.815  1.00  0.00     0.023 N 
HETATM    5  C4  UNL     1      49.757  35.472  40.252  1.00  0.00     0.263 C 
HETATM    6  C5  UNL     1      49.373  33.996  40.490  1.00  0.00     0.054 C 
HETATM    7  C6  UNL     1      49.149  33.634  39.036  1.00  0.00     0.136 C 
HETATM    8  C7  UNL     1      48.447  34.841  38.512  1.00  0.00     0.284 C 
HETATM    9  N2  UNL     1      50.312  34.229  38.410  1.00  0.00    -0.039 NA
ENDBRANCH   3   4
TORSDOF 1
ENDMDL
MODEL 2
REMARK VINA RESULT: -3.941033172      1.043      3.521
REMARK  1 active torsions:
REMARK  status: ('A' for Active; 'I' for Inactive)
REMARK    1  A    between atoms: C3_3  and  N1_4 
ROOT
HETATM    1  C1  UNL     1      47.053  33.292  38.234  1.00  0.00     0.013 C 
HETATM    2  C2  UNL     1      48.186  33.528  38.614  1.00  0.00    -0.088 C 
HETATM    3  C3  UNL     1      49.525  33.802  39.045  1.00  0.00     0.352 C 
ENDROOT
BRANCH   3   4
HETATM    4  N1  UNL     1      49.845  35.154  39.027  1.00  0.00     0.023 N 
HETATM    5  C4  UNL     1      50.325  35.808  40.213  1.00  0.00     0.263 C 
HETATM    6  C5  UNL     1      50.420  37.244  39.655  1.00  0.00     0.054 C 
HETATM    7  C6  UNL     1      50.047  36.905  38.226  1.00  0.00     0.136 C 
HETATM    8  C7  UNL     1      50.784  35.628  38.000  1.00  0.00     0.284 C 
HETATM    9  N2  UNL     1      48.909  36.032  38.427  1.00  0.00    -0.039 NA
ENDBRANCH   3   4
TORSDOF 1
ENDMDL
MODEL 3
REMARK VINA RESULT: -3.683506973      1.660      3.930
REMARK  1 active torsions:
REMARK  status: ('A' for Active; 'I' for Inactive)
REMARK    1  A    between atoms: C3_3  and  N1_4 
ROOT
HETATM    1  C1  UNL     1      45.684  33.171  37.647  1.00  0.00     0.013 C 
HETATM    2  C2  UNL     1      46.773  33.108  38.190  1.00  0.00    -0.088 C 
HETATM    3  C3  UNL     1      48.061  33.026  38.813  1.00  0.00     0.352 C 
ENDROOT
BRANCH   3   4
HETATM    4  N1  UNL     1      48.817  34.184  38.672  1.00  0.00     0.023 N 
HETATM    5  C4  UNL     1      48.443  35.189  37.715  1.00  0.00     0.263 C 
HETATM    6  C5  UNL     1      49.634  36.149  37.920  1.00  0.00     0.054 C 
HETATM    7  C6  UNL     1      50.277  35.392  39.064  1.00  0.00     0.136 C 
HETATM    8  C7  UNL     1      49.096  34.978  39.876  1.00  0.00     0.284 C 
HETATM    9  N2  UNL     1      50.222  34.031  38.575  1.00  0.00    -0.039 NA
ENDBRANCH   3   4
TORSDOF 1
ENDMDL
MODEL 4
REMARK VINA RESULT: -3.603200415      1.074      1.808
REMARK  1 active torsions:
REMARK  status: ('A' for Active; 'I' for Inactive)
REMARK    1  A    between atoms: C3_3  and  N1_4 
ROOT
HETATM    1  C1  UNL     1      50.375  38.727  39.732  1.00  0.00     0.013 C 
HETATM    2  C2  UNL     1      50.551  37.522  39.766  1.00  0.00    -0.088 C 
HETATM    3  C3  UNL     1      50.751  36.104  39.822  1.00  0.00     0.352 C 
ENDROOT
BRANCH   3   4
HETATM    4  N1  UNL     1      49.753  35.381  39.180  1.00  0.00     0.023 N 
HETATM    5  C4  UNL     1      49.178  35.858  37.953  1.00  0.00     0.263 C 
HETATM    6  C5  UNL     1      48.113  34.758  37.761  1.00  0.00     0.054 C 
HETATM    7  C6  UNL     1      48.520  33.907  38.946  1.00  0.00     0.136 C 
HETATM    8  C7  UNL     1      50.009  33.964  38.882  1.00  0.00     0.284 C 
HETATM    9  N2  UNL     1      48.680  34.910  39.977  1.00  0.00    -0.039 NA
ENDBRANCH   3   4
TORSDOF 1
ENDMDL
MODEL 5
REMARK VINA RESULT: -3.587208690      1.341      3.562
REMARK  1 active torsions:
REMARK  status: ('A' for Active; 'I' for Inactive)
REMARK    1  A    between atoms: C3_3  and  N1_4 
ROOT
HETATM    1  C1  UNL     1      47.585  33.732  38.246  1.00  0.00     0.013 C 
HETATM    2  C2  UNL     1      48.623  33.919  38.855  1.00  0.00    -0.088 C 
HETATM    3  C3  UNL     1      49.853  34.140  39.558  1.00  0.00     0.352 C 
ENDROOT
BRANCH   3   4
HETATM    4  N1  UNL     1      50.072  35.474  39.881  1.00  0.00     0.023 N 
HETATM    5  C4  UNL     1      50.038  36.488  38.863  1.00  0.00     0.263 C 
HETATM    6  C5  UNL     1      50.424  37.698  39.739  1.00  0.00     0.054 C 
HETATM    7  C6  UNL     1      50.447  36.961  41.061  1.00  0.00     0.136 C 
HETATM    8  C7  UNL     1      49.257  36.068  40.950  1.00  0.00     0.284 C 
HETATM    9  N2  UNL     1      51.184  35.764  40.710  1.00  0.00    -0.039 NA
ENDBRANCH   3   4
TORSDOF 1
ENDMDL
