MODEL 1
REMARK VINA RESULT: -6.918500513      0.000      0.000
REMARK  18 active torsions:
REMARK  status: ('A' for Active; 'I' for Inactive)
REMARK    1  A    between atoms: N3_7  and  C2_8 
REMARK    2  A    between atoms: C2_8  and  C3_9 
REMARK    3  A    between atoms: C3_9  and  O1_10 
REMARK    4  A    between atoms: C3_9  and  N4_12 
REMARK    5  A    between atoms: N4_12  and  C4_15 
REMARK    6  A    between atoms: C4_15  and  C5_16 
REMARK    7  A    between atoms: C10_21  and  C11_22 
REMARK    8  A    between atoms: C11_22  and  N5_23 
REMARK    9  A    between atoms: N5_23  and  C12_26 
REMARK   10  A    between atoms: C12_26  and  C13_27 
REMARK   11  A    between atoms: C13_27  and  O2_28 
REMARK   12  A    between atoms: O2_28  and  S1_29 
REMARK   13  A    between atoms: S1_29  and  C14_32 
REMARK   14  A    between atoms: C14_32  and  S2_33 
REMARK   15  A    between atoms: S2_33  and  C15_34 
REMARK   16  A    between atoms: N7_36  and  C16_38 
REMARK   17  A    between atoms: C16_38  and  C17_39 
REMARK   18  A    between atoms: C17_39  and  O5_40 
ROOT
HETATM    1  C5  UNL     1      10.594  17.931   9.675  1.00  0.00     0.061 A 
HETATM    2  C6  UNL     1       9.263  17.645   9.456  1.00  0.00     0.029 A 
HETATM    3  C7  UNL     1       8.819  16.330   9.471  1.00  0.00     0.004 A 
HETATM    4  C8  UNL     1       9.740  15.340   9.710  1.00  0.00     0.034 A 
HETATM    5  C9  UNL     1      11.093  15.669   9.931  1.00  0.00     0.083 A 
HETATM    6  C10 UNL     1      12.224  14.860  10.080  1.00  0.00     0.081 A 
HETATM    7  N8  UNL     1      13.259  15.721  10.139  1.00  0.00    -0.286 N 
ATOM      8  H8  UNL     1      14.242  15.470  10.243  1.00  0.00     0.188 HD
HETATM    9  N9  UNL     1      12.779  16.953  10.039  1.00  0.00    -0.235 N 
ATOM     10  H9  UNL     1      13.346  17.801  10.060  1.00  0.00     0.209 HD
HETATM   11  N10 UNL     1      11.471  16.930   9.908  1.00  0.00    -0.243 N 
ENDROOT
BRANCH   1  12
HETATM   12  C4  UNL     1      11.192  19.296   9.510  1.00  0.00     0.294 C 
BRANCH  12  13
HETATM   13  N4  UNL     1      10.074  20.239   9.474  1.00  0.00    -0.042 N 
ATOM     14  H42 UNL     1       9.768  20.485  10.414  1.00  0.00     0.280 HD
ATOM     15  H41 UNL     1       9.222  19.790   9.138  1.00  0.00     0.280 HD
BRANCH  13  16
HETATM   16  C3  UNL     1      10.379  21.399   8.710  1.00  0.00     0.339 C 
BRANCH  16  17
HETATM   17  C2  UNL     1       9.273  21.469   7.621  1.00  0.00     0.214 C 
BRANCH  17  18
HETATM   18  N3  UNL     1       9.789  20.926   6.404  1.00  0.00    -0.249 N 
HETATM   19  N2  UNL     1      10.677  21.555   5.597  1.00  0.00    -0.260 N 
HETATM   20  C1  UNL     1      10.947  20.682   4.603  1.00  0.00     0.239 A 
ATOM     21  H2  UNL     1      11.061  22.493   5.715  1.00  0.00     0.191 HD
HETATM   22  N1  UNL     1      11.789  21.025   3.674  1.00  0.00    -0.364 N 
HETATM   23  O6  UNL     1      10.251  19.617   4.824  1.00  0.00    -0.245 OA
ATOM     24  H12 UNL     1      12.338  21.867   3.500  1.00  0.00     0.159 HD
ATOM     25  H11 UNL     1      11.993  20.365   2.924  1.00  0.00     0.159 HD
HETATM   26  C18 UNL     1       9.534  19.716   5.904  1.00  0.00     0.242 A 
HETATM   27  N11 UNL     1       8.744  18.824   6.383  1.00  0.00    -0.364 N 
ATOM     28 2H11 UNL     1       8.181  18.903   7.231  1.00  0.00     0.159 HD
ATOM     29 1H11 UNL     1       8.549  17.899   6.001  1.00  0.00     0.159 HD
ENDBRANCH  17  18
ENDBRANCH  16  17
BRANCH  16  30
HETATM   30  O1  UNL     1      11.614  21.635   8.260  1.00  0.00    -0.368 OA
ATOM     31  H1  UNL     1      12.024  20.894   7.828  1.00  0.00     0.212 HD
ENDBRANCH  16  30
ENDBRANCH  13  16
ENDBRANCH  12  13
ENDBRANCH   1  12
BRANCH   6  32
HETATM   32  C11 UNL     1      12.163  13.410  10.284  1.00  0.00     0.293 C 
BRANCH  32  33
HETATM   33  N5  UNL     1      11.264  12.876   9.194  1.00  0.00    -0.068 N 
ATOM     34  H52 UNL     1      10.587  12.189   9.525  1.00  0.00     0.277 HD
ATOM     35  H51 UNL     1      10.589  13.560   8.852  1.00  0.00     0.277 HD
BRANCH  33  36
HETATM   36  C12 UNL     1      12.120  12.381   8.188  1.00  0.00     0.260 C 
BRANCH  36  37
HETATM   37  C13 UNL     1      12.027  13.199   6.879  1.00  0.00     0.217 C 
BRANCH  37  38
HETATM   38  O2  UNL     1      13.197  13.680   6.719  1.00  0.00    -0.274 OA
BRANCH  38  39
HETATM   39  S1  UNL     1      13.860  15.065   6.534  1.00  0.00     0.274 S 
HETATM   40  O3  UNL     1      14.515  15.068   5.089  1.00  0.00    -0.198 OA
HETATM   41  O4  UNL     1      14.905  15.510   7.474  1.00  0.00    -0.198 OA
BRANCH  39  42
HETATM   42  C14 UNL     1      12.594  16.369   6.462  1.00  0.00     0.252 C 
BRANCH  42  43
HETATM   43  S2  UNL     1      13.272  17.793   5.622  1.00  0.00    -0.080 SA
BRANCH  43  44
HETATM   44  C15 UNL     1      13.851  18.975   6.859  1.00  0.00     0.151 C 
HETATM   45  N6  UNL     1      13.611  20.350   6.774  1.00  0.00    -0.075 NA
HETATM   46  N7  UNL     1      14.559  18.528   7.831  1.00  0.00    -0.371 N 
ATOM     47  H7  UNL     1      14.756  17.528   7.848  1.00  0.00     0.161 HD
BRANCH  46  48
HETATM   48  C16 UNL     1      15.098  19.329   8.899  1.00  0.00     0.147 C 
BRANCH  48  49
HETATM   49  C17 UNL     1      16.073  18.407   9.663  1.00  0.00     0.183 C 
BRANCH  49  50
HETATM   50  O5  UNL     1      15.430  17.851  10.730  1.00  0.00    -0.399 OA
ATOM     51  H5  UNL     1      15.313  18.509  11.405  1.00  0.00     0.209 HD
ENDBRANCH  49  50
ENDBRANCH  48  49
ENDBRANCH  46  48
ENDBRANCH  43  44
ENDBRANCH  42  43
ENDBRANCH  39  42
ENDBRANCH  38  39
ENDBRANCH  37  38
ENDBRANCH  36  37
ENDBRANCH  33  36
ENDBRANCH  32  33
ENDBRANCH   6  32
TORSDOF 18
ENDMDL
MODEL 2
REMARK VINA RESULT: -6.697693768      2.535      6.509
REMARK  18 active torsions:
REMARK  status: ('A' for Active; 'I' for Inactive)
REMARK    1  A    between atoms: N3_7  and  C2_8 
REMARK    2  A    between atoms: C2_8  and  C3_9 
REMARK    3  A    between atoms: C3_9  and  O1_10 
REMARK    4  A    between atoms: C3_9  and  N4_12 
REMARK    5  A    between atoms: N4_12  and  C4_15 
REMARK    6  A    between atoms: C4_15  and  C5_16 
REMARK    7  A    between atoms: C10_21  and  C11_22 
REMARK    8  A    between atoms: C11_22  and  N5_23 
REMARK    9  A    between atoms: N5_23  and  C12_26 
REMARK   10  A    between atoms: C12_26  and  C13_27 
REMARK   11  A    between atoms: C13_27  and  O2_28 
REMARK   12  A    between atoms: O2_28  and  S1_29 
REMARK   13  A    between atoms: S1_29  and  C14_32 
REMARK   14  A    between atoms: C14_32  and  S2_33 
REMARK   15  A    between atoms: S2_33  and  C15_34 
REMARK   16  A    between atoms: N7_36  and  C16_38 
REMARK   17  A    between atoms: C16_38  and  C17_39 
REMARK   18  A    between atoms: C17_39  and  O5_40 
ROOT
HETATM    1  C5  UNL     1      11.550  18.085   5.902  1.00  0.00     0.061 A 
HETATM    2  C6  UNL     1      11.801  18.702   4.695  1.00  0.00     0.029 A 
HETATM    3  C7  UNL     1      11.497  20.044   4.519  1.00  0.00     0.004 A 
HETATM    4  C8  UNL     1      10.947  20.726   5.577  1.00  0.00     0.034 A 
HETATM    5  C9  UNL     1      10.706  20.064   6.798  1.00  0.00     0.083 A 
HETATM    6  C10 UNL     1      10.064  20.491   7.965  1.00  0.00     0.081 A 
HETATM    7  N8  UNL     1      10.018  19.398   8.753  1.00  0.00    -0.286 N 
ATOM      8  H8  UNL     1       9.611  19.351   9.687  1.00  0.00     0.188 HD
HETATM    9  N9  UNL     1      10.596  18.396   8.105  1.00  0.00    -0.235 N 
ATOM     10  H9  UNL     1      10.704  17.451   8.475  1.00  0.00     0.209 HD
HETATM   11  N10 UNL     1      11.010  18.789   6.921  1.00  0.00    -0.243 N 
ENDROOT
BRANCH   1  12
HETATM   12  C4  UNL     1      11.686  16.609   6.130  1.00  0.00     0.294 C 
BRANCH  12  13
HETATM   13  N4  UNL     1      13.034  16.391   6.656  1.00  0.00    -0.042 N 
ATOM     14  H42 UNL     1      13.057  16.503   7.670  1.00  0.00     0.280 HD
ATOM     15  H41 UNL     1      13.661  17.153   6.396  1.00  0.00     0.280 HD
BRANCH  13  16
HETATM   16  C3  UNL     1      13.563  15.131   6.264  1.00  0.00     0.339 C 
BRANCH  16  17
HETATM   17  C2  UNL     1      13.976  14.435   7.590  1.00  0.00     0.214 C 
BRANCH  17  18
HETATM   18  N3  UNL     1      12.800  13.940   8.235  1.00  0.00    -0.249 N 
HETATM   19  N2  UNL     1      12.125  14.595   9.209  1.00  0.00    -0.260 N 
HETATM   20  C1  UNL     1      11.056  13.820   9.495  1.00  0.00     0.239 A 
ATOM     21  H2  UNL     1      12.371  15.487   9.638  1.00  0.00     0.191 HD
HETATM   22  N1  UNL     1      10.215  14.216  10.404  1.00  0.00    -0.364 N 
HETATM   23  O6  UNL     1      11.118  12.779   8.732  1.00  0.00    -0.245 OA
ATOM     24  H12 UNL     1      10.167  15.038  11.006  1.00  0.00     0.159 HD
ATOM     25  H11 UNL     1       9.408  13.630  10.619  1.00  0.00     0.159 HD
HETATM   26  C18 UNL     1      12.156  12.807   7.951  1.00  0.00     0.242 A 
HETATM   27  N11 UNL     1      12.487  11.917   7.085  1.00  0.00    -0.364 N 
ATOM     28 2H11 UNL     1      13.302  11.939   6.473  1.00  0.00     0.159 HD
ATOM     29 1H11 UNL     1      11.995  11.051   6.868  1.00  0.00     0.159 HD
ENDBRANCH  17  18
ENDBRANCH  16  17
BRANCH  16  30
HETATM   30  O1  UNL     1      14.460  15.026   5.281  1.00  0.00    -0.368 OA
ATOM     31  H1  UNL     1      14.102  14.739   4.449  1.00  0.00     0.212 HD
ENDBRANCH  16  30
ENDBRANCH  13  16
ENDBRANCH  12  13
ENDBRANCH   1  12
BRANCH   6  32
HETATM   32  C11 UNL     1       9.710  21.888   8.231  1.00  0.00     0.293 C 
BRANCH  32  33
HETATM   33  N5  UNL     1      10.337  22.228   9.563  1.00  0.00    -0.068 N 
ATOM     34  H52 UNL     1       9.960  23.076   9.986  1.00  0.00     0.277 HD
ATOM     35  H51 UNL     1      10.073  21.588  10.311  1.00  0.00     0.277 HD
BRANCH  33  36
HETATM   36  C12 UNL     1      11.728  22.284   9.337  1.00  0.00     0.260 C 
BRANCH  36  37
HETATM   37  C13 UNL     1      12.531  21.493  10.396  1.00  0.00     0.217 C 
BRANCH  37  38
HETATM   38  O2  UNL     1      12.603  20.310   9.926  1.00  0.00    -0.274 OA
BRANCH  38  39
HETATM   39  S1  UNL     1      13.684  19.237   9.661  1.00  0.00     0.274 S 
HETATM   40  O3  UNL     1      12.928  17.847   9.540  1.00  0.00    -0.198 OA
HETATM   41  O4  UNL     1      14.778  19.041  10.629  1.00  0.00    -0.198 OA
BRANCH  39  42
HETATM   42  C14 UNL     1      14.437  19.487   8.025  1.00  0.00     0.252 C 
BRANCH  42  43
HETATM   43  S2  UNL     1      15.671  20.776   8.141  1.00  0.00    -0.080 SA
BRANCH  43  44
HETATM   44  C15 UNL     1      17.291  20.009   8.367  1.00  0.00     0.151 C 
HETATM   45  N6  UNL     1      18.174  19.764   7.311  1.00  0.00    -0.075 NA
HETATM   46  N7  UNL     1      17.615  19.629   9.549  1.00  0.00    -0.371 N 
ATOM     47  H7  UNL     1      16.937  19.781  10.295  1.00  0.00     0.161 HD
BRANCH  46  48
HETATM   48  C16 UNL     1      18.862  19.005   9.903  1.00  0.00     0.147 C 
BRANCH  48  49
HETATM   49  C17 UNL     1      18.485  17.747  10.717  1.00  0.00     0.183 C 
BRANCH  49  50
HETATM   50  O5  UNL     1      17.127  17.640  10.781  1.00  0.00    -0.399 OA
ATOM     51  H5  UNL     1      16.756  18.476  11.038  1.00  0.00     0.209 HD
ENDBRANCH  49  50
ENDBRANCH  48  49
ENDBRANCH  46  48
ENDBRANCH  43  44
ENDBRANCH  42  43
ENDBRANCH  39  42
ENDBRANCH  38  39
ENDBRANCH  37  38
ENDBRANCH  36  37
ENDBRANCH  33  36
ENDBRANCH  32  33
ENDBRANCH   6  32
TORSDOF 18
ENDMDL
MODEL 3
REMARK VINA RESULT: -6.534997939      2.441      4.767
REMARK  18 active torsions:
REMARK  status: ('A' for Active; 'I' for Inactive)
REMARK    1  A    between atoms: N3_7  and  C2_8 
REMARK    2  A    between atoms: C2_8  and  C3_9 
REMARK    3  A    between atoms: C3_9  and  O1_10 
REMARK    4  A    between atoms: C3_9  and  N4_12 
REMARK    5  A    between atoms: N4_12  and  C4_15 
REMARK    6  A    between atoms: C4_15  and  C5_16 
REMARK    7  A    between atoms: C10_21  and  C11_22 
REMARK    8  A    between atoms: C11_22  and  N5_23 
REMARK    9  A    between atoms: N5_23  and  C12_26 
REMARK   10  A    between atoms: C12_26  and  C13_27 
REMARK   11  A    between atoms: C13_27  and  O2_28 
REMARK   12  A    between atoms: O2_28  and  S1_29 
REMARK   13  A    between atoms: S1_29  and  C14_32 
REMARK   14  A    between atoms: C14_32  and  S2_33 
REMARK   15  A    between atoms: S2_33  and  C15_34 
REMARK   16  A    between atoms: N7_36  and  C16_38 
REMARK   17  A    between atoms: C16_38  and  C17_39 
REMARK   18  A    between atoms: C17_39  and  O5_40 
ROOT
HETATM    1  C5  UNL     1      10.067  20.305   5.854  1.00  0.00     0.061 A 
HETATM    2  C6  UNL     1      10.466  20.913   4.683  1.00  0.00     0.029 A 
HETATM    3  C7  UNL     1      11.417  20.310   3.871  1.00  0.00     0.004 A 
HETATM    4  C8  UNL     1      11.936  19.104   4.271  1.00  0.00     0.034 A 
HETATM    5  C9  UNL     1      11.505  18.510   5.475  1.00  0.00     0.083 A 
HETATM    6  C10 UNL     1      11.950  17.369   6.150  1.00  0.00     0.081 A 
HETATM    7  N8  UNL     1      11.256  17.359   7.305  1.00  0.00    -0.286 N 
ATOM      8  H8  UNL     1      11.335  16.661   8.044  1.00  0.00     0.188 HD
HETATM    9  N9  UNL     1      10.452  18.413   7.316  1.00  0.00    -0.235 N 
ATOM     10  H9  UNL     1       9.809  18.646   8.072  1.00  0.00     0.209 HD
HETATM   11  N10 UNL     1      10.600  19.117   6.214  1.00  0.00    -0.243 N 
ENDROOT
BRANCH   1  12
HETATM   12  C4  UNL     1       9.179  20.956   6.872  1.00  0.00     0.294 C 
BRANCH  12  13
HETATM   13  N4  UNL     1       9.584  22.361   6.940  1.00  0.00    -0.042 N 
ATOM     14  H42 UNL     1       8.835  22.977   6.625  1.00  0.00     0.280 HD
ATOM     15  H41 UNL     1      10.283  22.579   6.230  1.00  0.00     0.280 HD
BRANCH  13  16
HETATM   16  C3  UNL     1      10.037  22.723   8.239  1.00  0.00     0.339 C 
BRANCH  16  17
HETATM   17  C2  UNL     1      11.407  23.419   8.009  1.00  0.00     0.214 C 
BRANCH  17  18
HETATM   18  N3  UNL     1      12.376  22.427   7.661  1.00  0.00    -0.249 N 
HETATM   19  N2  UNL     1      12.646  21.324   8.400  1.00  0.00    -0.260 N 
HETATM   20  C1  UNL     1      13.563  20.630   7.694  1.00  0.00     0.239 A 
ATOM     21  H2  UNL     1      12.243  21.073   9.302  1.00  0.00     0.191 HD
HETATM   22  N1  UNL     1      14.006  19.504   8.171  1.00  0.00    -0.364 N 
HETATM   23  O6  UNL     1      13.808  21.296   6.615  1.00  0.00    -0.245 OA
ATOM     24  H12 UNL     1      13.813  18.978   9.023  1.00  0.00     0.159 HD
ATOM     25  H11 UNL     1      14.699  18.979   7.637  1.00  0.00     0.159 HD
HETATM   26  C18 UNL     1      13.112  22.392   6.549  1.00  0.00     0.242 A 
HETATM   27  N11 UNL     1      13.136  23.259   5.601  1.00  0.00    -0.364 N 
ATOM     28 2H11 UNL     1      12.590  24.119   5.550  1.00  0.00     0.159 HD
ATOM     29 1H11 UNL     1      13.699  23.232   4.752  1.00  0.00     0.159 HD
ENDBRANCH  17  18
ENDBRANCH  16  17
BRANCH  16  30
HETATM   30  O1  UNL     1      10.021  21.853   9.252  1.00  0.00    -0.368 OA
ATOM     31  H1  UNL     1       9.212  21.363   9.338  1.00  0.00     0.212 HD
ENDBRANCH  16  30
ENDBRANCH  13  16
ENDBRANCH  12  13
ENDBRANCH   1  12
BRANCH   6  32
HETATM   32  C11 UNL     1      12.856  16.379   5.559  1.00  0.00     0.293 C 
BRANCH  32  33
HETATM   33  N5  UNL     1      14.224  16.684   6.120  1.00  0.00    -0.068 N 
ATOM     34  H52 UNL     1      14.977  16.573   5.440  1.00  0.00     0.277 HD
ATOM     35  H51 UNL     1      14.374  17.675   6.311  1.00  0.00     0.277 HD
BRANCH  33  36
HETATM   36  C12 UNL     1      14.371  15.865   7.259  1.00  0.00     0.260 C 
BRANCH  36  37
HETATM   37  C13 UNL     1      14.479  14.365   6.898  1.00  0.00     0.217 C 
BRANCH  37  38
HETATM   38  O2  UNL     1      13.797  13.770   7.795  1.00  0.00    -0.274 OA
BRANCH  38  39
HETATM   39  S1  UNL     1      12.314  13.605   8.199  1.00  0.00     0.274 S 
HETATM   40  O3  UNL     1      12.052  12.047   8.348  1.00  0.00    -0.198 OA
HETATM   41  O4  UNL     1      11.251  14.132   7.325  1.00  0.00    -0.198 OA
BRANCH  39  42
HETATM   42  C14 UNL     1      12.034  14.273   9.867  1.00  0.00     0.252 C 
BRANCH  42  43
HETATM   43  S2  UNL     1      10.281  14.255  10.216  1.00  0.00    -0.080 SA
BRANCH  43  44
HETATM   44  C15 UNL     1       9.624  15.920   9.978  1.00  0.00     0.151 C 
HETATM   45  N6  UNL     1       8.915  16.306   8.836  1.00  0.00    -0.075 NA
HETATM   46  N7  UNL     1       9.870  16.797  10.882  1.00  0.00    -0.371 N 
ATOM     47  H7  UNL     1      10.425  16.503  11.685  1.00  0.00     0.161 HD
BRANCH  46  48
HETATM   48  C16 UNL     1       9.423  18.165  10.850  1.00  0.00     0.147 C 
BRANCH  48  49
HETATM   49  C17 UNL     1      10.690  19.025  11.056  1.00  0.00     0.183 C 
BRANCH  49  50
HETATM   50  O5  UNL     1      11.351  19.148   9.869  1.00  0.00    -0.399 OA
ATOM     51  H5  UNL     1      11.983  18.444   9.785  1.00  0.00     0.209 HD
ENDBRANCH  49  50
ENDBRANCH  48  49
ENDBRANCH  46  48
ENDBRANCH  43  44
ENDBRANCH  42  43
ENDBRANCH  39  42
ENDBRANCH  38  39
ENDBRANCH  37  38
ENDBRANCH  36  37
ENDBRANCH  33  36
ENDBRANCH  32  33
ENDBRANCH   6  32
TORSDOF 18
ENDMDL
MODEL 4
REMARK VINA RESULT: -6.533669901      1.832      3.444
REMARK  18 active torsions:
REMARK  status: ('A' for Active; 'I' for Inactive)
REMARK    1  A    between atoms: N3_7  and  C2_8 
REMARK    2  A    between atoms: C2_8  and  C3_9 
REMARK    3  A    between atoms: C3_9  and  O1_10 
REMARK    4  A    between atoms: C3_9  and  N4_12 
REMARK    5  A    between atoms: N4_12  and  C4_15 
REMARK    6  A    between atoms: C4_15  and  C5_16 
REMARK    7  A    between atoms: C10_21  and  C11_22 
REMARK    8  A    between atoms: C11_22  and  N5_23 
REMARK    9  A    between atoms: N5_23  and  C12_26 
REMARK   10  A    between atoms: C12_26  and  C13_27 
REMARK   11  A    between atoms: C13_27  and  O2_28 
REMARK   12  A    between atoms: O2_28  and  S1_29 
REMARK   13  A    between atoms: S1_29  and  C14_32 
REMARK   14  A    between atoms: C14_32  and  S2_33 
REMARK   15  A    between atoms: S2_33  and  C15_34 
REMARK   16  A    between atoms: N7_36  and  C16_38 
REMARK   17  A    between atoms: C16_38  and  C17_39 
REMARK   18  A    between atoms: C17_39  and  O5_40 
ROOT
HETATM    1  C5  UNL     1      12.152  17.933   9.419  1.00  0.00     0.061 A 
HETATM    2  C6  UNL     1      13.450  17.718   9.830  1.00  0.00     0.029 A 
HETATM    3  C7  UNL     1      13.858  16.452  10.227  1.00  0.00     0.004 A 
HETATM    4  C8  UNL     1      12.934  15.436  10.195  1.00  0.00     0.034 A 
HETATM    5  C9  UNL     1      11.615  15.692   9.769  1.00  0.00     0.083 A 
HETATM    6  C10 UNL     1      10.479  14.876   9.752  1.00  0.00     0.081 A 
HETATM    7  N8  UNL     1       9.477  15.688   9.358  1.00  0.00    -0.286 N 
ATOM      8  H8  UNL     1       8.500  15.419   9.241  1.00  0.00     0.188 HD
HETATM    9  N9  UNL     1       9.980  16.896   9.150  1.00  0.00    -0.235 N 
ATOM     10  H9  UNL     1       9.441  17.704   8.838  1.00  0.00     0.209 HD
HETATM   11  N10 UNL     1      11.271  16.908   9.400  1.00  0.00    -0.243 N 
ENDROOT
BRANCH   1  12
HETATM   12  C4  UNL     1      11.579  19.290   9.136  1.00  0.00     0.294 C 
BRANCH  12  13
HETATM   13  N4  UNL     1      12.707  20.150   8.777  1.00  0.00    -0.042 N 
ATOM     14  H42 UNL     1      13.107  19.879   7.879  1.00  0.00     0.280 HD
ATOM     15  H41 UNL     1      13.514  19.971   9.374  1.00  0.00     0.280 HD
BRANCH  13  16
HETATM   16  C3  UNL     1      12.352  21.527   8.790  1.00  0.00     0.339 C 
BRANCH  16  17
HETATM   17  C2  UNL     1      10.798  21.545   8.767  1.00  0.00     0.214 C 
BRANCH  17  18
HETATM   18  N3  UNL     1      10.362  22.678   8.012  1.00  0.00    -0.249 N 
HETATM   19  N2  UNL     1      10.454  22.786   6.665  1.00  0.00    -0.260 N 
HETATM   20  C1  UNL     1       9.878  23.967   6.355  1.00  0.00     0.239 A 
ATOM     21  H2  UNL     1      10.871  22.115   6.020  1.00  0.00     0.191 HD
HETATM   22  N1  UNL     1       9.817  24.331   5.108  1.00  0.00    -0.364 N 
HETATM   23  O6  UNL     1       9.483  24.507   7.460  1.00  0.00    -0.245 OA
ATOM     24  H12 UNL     1      10.129  23.904   4.236  1.00  0.00     0.159 HD
ATOM     25  H11 UNL     1       9.382  25.223   4.874  1.00  0.00     0.159 HD
HETATM   26  C18 UNL     1       9.753  23.764   8.491  1.00  0.00     0.242 A 
HETATM   27  N11 UNL     1       9.485  24.030   9.718  1.00  0.00    -0.364 N 
ATOM     28 2H11 UNL     1       9.697  23.447  10.528  1.00  0.00     0.159 HD
ATOM     29 1H11 UNL     1       9.019  24.861  10.085  1.00  0.00     0.159 HD
ENDBRANCH  17  18
ENDBRANCH  16  17
BRANCH  16  30
HETATM   30  O1  UNL     1      12.928  22.405   7.965  1.00  0.00    -0.368 OA
ATOM     31  H1  UNL     1      13.696  22.835   8.321  1.00  0.00     0.212 HD
ENDBRANCH  16  30
ENDBRANCH  13  16
ENDBRANCH  12  13
ENDBRANCH   1  12
BRANCH   6  32
HETATM   32  C11 UNL     1      10.517  13.428   9.973  1.00  0.00     0.293 C 
BRANCH  32  33
HETATM   33  N5  UNL     1      10.432  12.798   8.602  1.00  0.00    -0.068 N 
ATOM     34  H52 UNL     1       9.760  12.032   8.548  1.00  0.00     0.277 HD
ATOM     35  H51 UNL     1       9.991  13.399   7.906  1.00  0.00     0.277 HD
BRANCH  33  36
HETATM   36  C12 UNL     1      11.747  12.417   8.265  1.00  0.00     0.260 C 
BRANCH  36  37
HETATM   37  C13 UNL     1      12.194  12.986   6.898  1.00  0.00     0.217 C 
BRANCH  37  38
HETATM   38  O2  UNL     1      13.150  13.781   7.179  1.00  0.00    -0.274 OA
BRANCH  38  39
HETATM   39  S1  UNL     1      13.817  15.041   6.582  1.00  0.00     0.274 S 
HETATM   40  O3  UNL     1      14.441  14.610   5.188  1.00  0.00    -0.198 OA
HETATM   41  O4  UNL     1      14.884  15.732   7.328  1.00  0.00    -0.198 OA
BRANCH  39  42
HETATM   42  C14 UNL     1      12.558  16.281   6.151  1.00  0.00     0.252 C 
BRANCH  42  43
HETATM   43  S2  UNL     1      13.362  17.846   5.840  1.00  0.00    -0.080 SA
BRANCH  43  44
HETATM   44  C15 UNL     1      12.096  19.098   5.535  1.00  0.00     0.151 C 
HETATM   45  N6  UNL     1      12.369  20.469   5.505  1.00  0.00    -0.075 NA
HETATM   46  N7  UNL     1      10.884  18.703   5.392  1.00  0.00    -0.371 N 
ATOM     47  H7  UNL     1      10.704  17.702   5.460  1.00  0.00     0.161 HD
BRANCH  46  48
HETATM   48  C16 UNL     1       9.758  19.564   5.143  1.00  0.00     0.147 C 
BRANCH  48  49
HETATM   49  C17 UNL     1       8.890  19.499   6.420  1.00  0.00     0.183 C 
BRANCH  49  50
HETATM   50  O5  UNL     1       8.492  18.212   6.631  1.00  0.00    -0.399 OA
ATOM     51  H5  UNL     1       8.459  18.041   7.565  1.00  0.00     0.209 HD
ENDBRANCH  49  50
ENDBRANCH  48  49
ENDBRANCH  46  48
ENDBRANCH  43  44
ENDBRANCH  42  43
ENDBRANCH  39  42
ENDBRANCH  38  39
ENDBRANCH  37  38
ENDBRANCH  36  37
ENDBRANCH  33  36
ENDBRANCH  32  33
ENDBRANCH   6  32
TORSDOF 18
ENDMDL
MODEL 5
REMARK VINA RESULT: -6.509515338      2.328      5.120
REMARK  18 active torsions:
REMARK  status: ('A' for Active; 'I' for Inactive)
REMARK    1  A    between atoms: N3_7  and  C2_8 
REMARK    2  A    between atoms: C2_8  and  C3_9 
REMARK    3  A    between atoms: C3_9  and  O1_10 
REMARK    4  A    between atoms: C3_9  and  N4_12 
REMARK    5  A    between atoms: N4_12  and  C4_15 
REMARK    6  A    between atoms: C4_15  and  C5_16 
REMARK    7  A    between atoms: C10_21  and  C11_22 
REMARK    8  A    between atoms: C11_22  and  N5_23 
REMARK    9  A    between atoms: N5_23  and  C12_26 
REMARK   10  A    between atoms: C12_26  and  C13_27 
REMARK   11  A    between atoms: C13_27  and  O2_28 
REMARK   12  A    between atoms: O2_28  and  S1_29 
REMARK   13  A    between atoms: S1_29  and  C14_32 
REMARK   14  A    between atoms: C14_32  and  S2_33 
REMARK   15  A    between atoms: S2_33  and  C15_34 
REMARK   16  A    between atoms: N7_36  and  C16_38 
REMARK   17  A    between atoms: C16_38  and  C17_39 
REMARK   18  A    between atoms: C17_39  and  O5_40 
ROOT
HETATM    1  C5  UNL     1      10.746  22.449   4.932  1.00  0.00     0.061 A 
HETATM    2  C6  UNL     1      11.699  22.057   4.016  1.00  0.00     0.029 A 
HETATM    3  C7  UNL     1      11.892  20.711   3.741  1.00  0.00     0.004 A 
HETATM    4  C8  UNL     1      11.110  19.797   4.403  1.00  0.00     0.034 A 
HETATM    5  C9  UNL     1      10.144  20.234   5.333  1.00  0.00     0.083 A 
HETATM    6  C10 UNL     1       9.317  19.519   6.205  1.00  0.00     0.081 A 
HETATM    7  N8  UNL     1       8.693  20.461   6.940  1.00  0.00    -0.286 N 
ATOM      8  H8  UNL     1       8.015  20.290   7.682  1.00  0.00     0.188 HD
HETATM    9  N9  UNL     1       9.113  21.651   6.531  1.00  0.00    -0.235 N 
ATOM     10  H9  UNL     1       8.798  22.541   6.915  1.00  0.00     0.209 HD
HETATM   11  N10 UNL     1       9.994  21.521   5.563  1.00  0.00    -0.243 N 
ENDROOT
BRANCH   1  12
HETATM   12  C4  UNL     1      10.584  23.859   5.416  1.00  0.00     0.294 C 
BRANCH  12  13
HETATM   13  N4  UNL     1      11.655  24.093   6.385  1.00  0.00    -0.042 N 
ATOM     14  H42 UNL     1      12.243  24.877   6.104  1.00  0.00     0.280 HD
ATOM     15  H41 UNL     1      12.352  23.348   6.353  1.00  0.00     0.280 HD
BRANCH  13  16
HETATM   16  C3  UNL     1      11.152  24.271   7.704  1.00  0.00     0.339 C 
BRANCH  16  17
HETATM   17  C2  UNL     1      12.196  23.589   8.630  1.00  0.00     0.214 C 
BRANCH  17  18
HETATM   18  N3  UNL     1      11.802  22.233   8.850  1.00  0.00    -0.249 N 
HETATM   19  N2  UNL     1      10.830  21.845   9.710  1.00  0.00    -0.260 N 
HETATM   20  C1  UNL     1      10.733  20.506   9.568  1.00  0.00     0.239 A 
ATOM     21  H2  UNL     1      10.286  22.440  10.334  1.00  0.00     0.191 HD
HETATM   22  N1  UNL     1       9.857  19.858  10.278  1.00  0.00    -0.364 N 
HETATM   23  O6  UNL     1      11.601  20.146   8.682  1.00  0.00    -0.245 OA
ATOM     24  H12 UNL     1       9.171  20.143  10.978  1.00  0.00     0.159 HD
ATOM     25  H11 UNL     1       9.784  18.847  10.171  1.00  0.00     0.159 HD
HETATM   26  C18 UNL     1      12.273  21.157   8.218  1.00  0.00     0.242 A 
HETATM   27  N11 UNL     1      13.200  21.117   7.330  1.00  0.00    -0.364 N 
ATOM     28 2H11 UNL     1      13.728  21.911   6.965  1.00  0.00     0.159 HD
ATOM     29 1H11 UNL     1      13.560  20.295   6.846  1.00  0.00     0.159 HD
ENDBRANCH  17  18
ENDBRANCH  16  17
BRANCH  16  30
HETATM   30  O1  UNL     1       9.881  24.000   8.009  1.00  0.00    -0.368 OA
ATOM     31  H1  UNL     1       9.493  23.298   7.498  1.00  0.00     0.212 HD
ENDBRANCH  16  30
ENDBRANCH  13  16
ENDBRANCH  12  13
ENDBRANCH   1  12
BRANCH   6  32
HETATM   32  C11 UNL     1       9.124  18.067   6.133  1.00  0.00     0.293 C 
BRANCH  32  33
HETATM   33  N5  UNL     1       9.005  17.594   7.563  1.00  0.00    -0.068 N 
ATOM     34  H52 UNL     1       8.669  18.315   8.202  1.00  0.00     0.277 HD
ATOM     35  H51 UNL     1       8.243  16.933   7.709  1.00  0.00     0.277 HD
BRANCH  33  36
HETATM   36  C12 UNL     1      10.271  17.080   7.911  1.00  0.00     0.260 C 
BRANCH  36  37
HETATM   37  C13 UNL     1      10.269  16.394   9.297  1.00  0.00     0.217 C 
BRANCH  37  38
HETATM   38  O2  UNL     1      11.353  15.725   9.325  1.00  0.00    -0.274 OA
BRANCH  38  39
HETATM   39  S1  UNL     1      11.801  14.247   9.241  1.00  0.00     0.274 S 
HETATM   40  O3  UNL     1      10.603  13.374   9.807  1.00  0.00    -0.198 OA
HETATM   41  O4  UNL     1      13.017  13.806   9.949  1.00  0.00    -0.198 OA
BRANCH  39  42
HETATM   42  C14 UNL     1      11.959  13.730   7.505  1.00  0.00     0.252 C 
BRANCH  42  43
HETATM   43  S2  UNL     1      13.658  13.934   6.987  1.00  0.00    -0.080 SA
BRANCH  43  44
HETATM   44  C15 UNL     1      14.063  15.695   7.009  1.00  0.00     0.151 C 
HETATM   45  N6  UNL     1      14.549  16.381   5.892  1.00  0.00    -0.075 NA
HETATM   46  N7  UNL     1      13.944  16.324   8.121  1.00  0.00    -0.371 N 
ATOM     47  H7  UNL     1      13.628  15.792   8.931  1.00  0.00     0.161 HD
BRANCH  46  48
HETATM   48  C16 UNL     1      14.223  17.723   8.313  1.00  0.00     0.147 C 
BRANCH  48  49
HETATM   49  C17 UNL     1      14.345  17.920   9.840  1.00  0.00     0.183 C 
BRANCH  49  50
HETATM   50  O5  UNL     1      14.143  16.726  10.468  1.00  0.00    -0.399 OA
ATOM     51  H5  UNL     1      13.393  16.797  11.047  1.00  0.00     0.209 HD
ENDBRANCH  49  50
ENDBRANCH  48  49
ENDBRANCH  46  48
ENDBRANCH  43  44
ENDBRANCH  42  43
ENDBRANCH  39  42
ENDBRANCH  38  39
ENDBRANCH  37  38
ENDBRANCH  36  37
ENDBRANCH  33  36
ENDBRANCH  32  33
ENDBRANCH   6  32
TORSDOF 18
ENDMDL
