MODEL 1
REMARK VINA RESULT: -6.791418946      0.000      0.000
REMARK  20 active torsions:
REMARK  status: ('A' for Active; 'I' for Inactive)
REMARK    1  A    between atoms: N2_3  and  C2_5 
REMARK    2  A    between atoms: C2_5  and  C3_6 
REMARK    3  A    between atoms: C3_6  and  C4_7 
REMARK    4  A    between atoms: C4_7  and  C5_8 
REMARK    5  A    between atoms: C5_8  and  C6_9 
REMARK    6  A    between atoms: C6_9  and  N3_10 
REMARK    7  A    between atoms: C7_15  and  C8_16 
REMARK    8  A    between atoms: C8_16  and  O1_17 
REMARK    9  A    between atoms: C8_16  and  C9_19 
REMARK   10  A    between atoms: C9_19  and  O2_20 
REMARK   11  A    between atoms: C9_19  and  C10_22 
REMARK   12  A    between atoms: C10_22  and  N6_23 
REMARK       I    between atoms: N6_23  and  C11_25 
REMARK   13  A    between atoms: C11_25  and  C12_27 
REMARK   14  A    between atoms: C12_27  and  S1_28 
REMARK   15  A    between atoms: S1_28  and  C13_29 
REMARK   16  A    between atoms: C14_32  and  N8_33 
REMARK   17  A    between atoms: N8_33  and  N9_35 
REMARK   18  A    between atoms: C15_38  and  N11_39 
REMARK   19  A    between atoms: C16_43  and  N12_44 
REMARK   20  A    between atoms: C17_49  and  N14_50 
ROOT
HETATM    1  N1  UNL     1      11.886  18.686   9.401  1.00  0.00    -0.172 NA
HETATM    2  C1  UNL     1      10.808  18.384   9.709  1.00  0.00     0.177 C 
HETATM    3  N2  UNL     1       9.509  18.013  10.091  1.00  0.00    -0.329 N 
ATOM      4  H2  UNL     1       8.987  18.610  10.732  1.00  0.00     0.171 HD
ENDROOT
BRANCH   3   5
HETATM    5  C2  UNL     1       8.892  16.791   9.586  1.00  0.00     0.131 C 
BRANCH   5   6
HETATM    6  C3  UNL     1       9.951  15.774   9.199  1.00  0.00     0.020 C 
BRANCH   6   7
HETATM    7  C4  UNL     1       9.942  14.728  10.295  1.00  0.00     0.003 C 
BRANCH   7   8
HETATM    8  C5  UNL     1      10.337  13.364   9.843  1.00  0.00     0.024 C 
BRANCH   8   9
HETATM    9  C6  UNL     1      11.797  13.039  10.011  1.00  0.00     0.171 C 
BRANCH   9  10
HETATM   10  N3  UNL     1      12.437  13.311   8.712  1.00  0.00    -0.218 N 
HETATM   11  N4  UNL     1      12.580  12.508   7.687  1.00  0.00    -0.225 N 
HETATM   12  N5  UNL     1      13.212  13.097   6.696  1.00  0.00    -0.270 N 
ATOM     13  H4  UNL     1      12.242  11.545   7.661  1.00  0.00     0.210 HD
HETATM   14  C7  UNL     1      13.490  14.352   7.113  1.00  0.00     0.145 A 
ATOM     15  H5  UNL     1      13.447  12.688   5.792  1.00  0.00     0.190 HD
HETATM   16  N16 UNL     1      13.000  14.450   8.351  1.00  0.00    -0.268 N 
ATOM     17  H16 UNL     1      13.054  15.284   8.934  1.00  0.00     0.190 HD
BRANCH  14  18
HETATM   18  C8  UNL     1      14.194  15.432   6.421  1.00  0.00     0.218 C 
BRANCH  18  19
HETATM   19  O1  UNL     1      14.507  15.028   5.090  1.00  0.00    -0.385 OA
ATOM     20  H1  UNL     1      15.243  14.427   5.102  1.00  0.00     0.210 HD
ENDBRANCH  18  19
BRANCH  18  21
HETATM   21  C9  UNL     1      13.489  16.737   6.284  1.00  0.00     0.172 C 
BRANCH  21  22
HETATM   22  O2  UNL     1      13.645  17.325   7.605  1.00  0.00    -0.391 OA
ATOM     23  H2  UNL     1      12.926  17.944   7.645  1.00  0.00     0.210 HD
ENDBRANCH  21  22
BRANCH  21  24
HETATM   24  C10 UNL     1      12.010  16.672   6.114  1.00  0.00     0.157 C 
BRANCH  24  25
HETATM   25  N6  UNL     1      11.421  17.984   6.135  1.00  0.00    -0.358 N 
HETATM   26  C11 UNL     1      10.023  18.168   6.146  1.00  0.00     0.227 C 
HETATM   27  O3  UNL     1       9.261  17.188   6.135  1.00  0.00    -0.273 OA
ATOM     28  H6  UNL     1      12.030  18.802   6.141  1.00  0.00     0.162 HD
BRANCH  26  29
HETATM   29  C12 UNL     1       9.468  19.539   6.169  1.00  0.00     0.185 C 
BRANCH  29  30
HETATM   30  S1  UNL     1      10.735  20.779   5.798  1.00  0.00    -0.084 SA
BRANCH  30  31
HETATM   31  C13 UNL     1      11.524  21.314   7.298  1.00  0.00     0.175 A 
HETATM   32  N7  UNL     1      12.878  21.288   7.389  1.00  0.00    -0.168 N 
HETATM   33  C14 UNL     1      13.536  21.667   8.496  1.00  0.00     0.715 A 
ATOM     34  H7  UNL     1      13.417  20.967   6.585  1.00  0.00     0.186 HD
HETATM   35  N13 UNL     1      12.778  22.085   9.538  1.00  0.00    -0.021 N 
HETATM   36  C17 UNL     1      11.439  22.120   9.470  1.00  0.00     0.692 A 
ATOM     37  H13 UNL     1      13.239  22.383  10.398  1.00  0.00     0.203 HD
HETATM   38  N15 UNL     1      10.791  21.732   8.344  1.00  0.00    -0.170 N 
ATOM     39  H15 UNL     1       9.773  21.757   8.292  1.00  0.00     0.186 HD
BRANCH  33  40
HETATM   40  N8  UNL     1      14.831  21.631   8.557  1.00  0.00    -0.108 N 
ATOM     41  H8  UNL     1      15.407  22.401   8.215  1.00  0.00     0.208 HD
BRANCH  40  42
HETATM   42  N9  UNL     1      15.413  20.445   9.136  1.00  0.00    -0.156 N 
HETATM   43  N10 UNL     1      14.730  19.408   9.435  1.00  0.00    -0.256 N 
HETATM   44  C15 UNL     1      15.349  18.352   9.968  1.00  0.00     0.162 A 
ATOM     45  H10 UNL     1      13.724  19.386   9.269  1.00  0.00     0.191 HD
HETATM   46  S2  UNL     1      16.970  18.887  10.035  1.00  0.00    -0.014 SA
HETATM   47  C16 UNL     1      16.728  20.438   9.368  1.00  0.00     0.185 A 
BRANCH  44  48
HETATM   48  N11 UNL     1      14.834  17.200  10.342  1.00  0.00    -0.378 N 
ATOM     49 2H11 UNL     1      14.030  16.698   9.964  1.00  0.00     0.158 HD
ATOM     50 1H11 UNL     1      15.141  16.579  11.091  1.00  0.00     0.158 HD
ENDBRANCH  44  48
BRANCH  47  51
HETATM   51  N12 UNL     1      17.601  21.399   9.133  1.00  0.00    -0.377 N 
ATOM     52 2H12 UNL     1      17.498  22.409   9.226  1.00  0.00     0.158 HD
ATOM     53 1H12 UNL     1      18.564  21.310   8.807  1.00  0.00     0.158 HD
ENDBRANCH  47  51
ENDBRANCH  40  42
ENDBRANCH  33  40
BRANCH  36  54
HETATM   54  N14 UNL     1      10.711  22.515  10.453  1.00  0.00    -0.234 N 
ATOM     55 2H14 UNL     1      11.171  23.068  11.175  1.00  0.00     0.174 HD
ATOM     56 1H14 UNL     1       9.718  22.292  10.521  1.00  0.00     0.174 HD
ENDBRANCH  36  54
ENDBRANCH  30  31
ENDBRANCH  29  30
ENDBRANCH  26  29
ENDBRANCH  24  25
ENDBRANCH  21  24
ENDBRANCH  18  21
ENDBRANCH  14  18
ENDBRANCH   9  10
ENDBRANCH   8   9
ENDBRANCH   7   8
ENDBRANCH   6   7
ENDBRANCH   5   6
ENDBRANCH   3   5
TORSDOF 20
ENDMDL
MODEL 2
REMARK VINA RESULT: -6.743432156      2.326      6.108
REMARK  20 active torsions:
REMARK  status: ('A' for Active; 'I' for Inactive)
REMARK    1  A    between atoms: N2_3  and  C2_5 
REMARK    2  A    between atoms: C2_5  and  C3_6 
REMARK    3  A    between atoms: C3_6  and  C4_7 
REMARK    4  A    between atoms: C4_7  and  C5_8 
REMARK    5  A    between atoms: C5_8  and  C6_9 
REMARK    6  A    between atoms: C6_9  and  N3_10 
REMARK    7  A    between atoms: C7_15  and  C8_16 
REMARK    8  A    between atoms: C8_16  and  O1_17 
REMARK    9  A    between atoms: C8_16  and  C9_19 
REMARK   10  A    between atoms: C9_19  and  O2_20 
REMARK   11  A    between atoms: C9_19  and  C10_22 
REMARK   12  A    between atoms: C10_22  and  N6_23 
REMARK       I    between atoms: N6_23  and  C11_25 
REMARK   13  A    between atoms: C11_25  and  C12_27 
REMARK   14  A    between atoms: C12_27  and  S1_28 
REMARK   15  A    between atoms: S1_28  and  C13_29 
REMARK   16  A    between atoms: C14_32  and  N8_33 
REMARK   17  A    between atoms: N8_33  and  N9_35 
REMARK   18  A    between atoms: C15_38  and  N11_39 
REMARK   19  A    between atoms: C16_43  and  N12_44 
REMARK   20  A    between atoms: C17_49  and  N14_50 
ROOT
HETATM    1  N1  UNL     1      14.365  15.312   5.438  1.00  0.00    -0.172 NA
HETATM    2  C1  UNL     1      14.065  14.478   6.188  1.00  0.00     0.177 C 
HETATM    3  N2  UNL     1      13.690  13.470   7.089  1.00  0.00    -0.329 N 
ATOM      4  H2  UNL     1      13.843  12.493   6.838  1.00  0.00     0.171 HD
ENDROOT
BRANCH   3   5
HETATM    5  C2  UNL     1      13.087  13.792   8.378  1.00  0.00     0.131 C 
BRANCH   5   6
HETATM    6  C3  UNL     1      11.864  12.928   8.632  1.00  0.00     0.020 C 
BRANCH   6   7
HETATM    7  C4  UNL     1      11.251  13.444   9.917  1.00  0.00     0.003 C 
BRANCH   7   8
HETATM    8  C5  UNL     1      11.186  14.930  10.011  1.00  0.00     0.024 C 
BRANCH   8   9
HETATM    9  C6  UNL     1       9.795  15.504  10.001  1.00  0.00     0.171 C 
BRANCH   9  10
HETATM   10  N3  UNL     1       9.937  16.947  10.263  1.00  0.00    -0.218 N 
HETATM   11  N4  UNL     1       9.007  17.820  10.561  1.00  0.00    -0.225 N 
HETATM   12  N5  UNL     1       9.509  19.026  10.719  1.00  0.00    -0.270 N 
ATOM     13  H4  UNL     1       8.017  17.593  10.657  1.00  0.00     0.210 HD
HETATM   14  C7  UNL     1      10.839  18.916  10.512  1.00  0.00     0.145 A 
ATOM     15  H5  UNL     1       8.996  19.876  10.953  1.00  0.00     0.190 HD
HETATM   16  N16 UNL     1      11.068  17.630  10.235  1.00  0.00    -0.268 N 
ATOM     17  H16 UNL     1      11.984  17.232  10.032  1.00  0.00     0.190 HD
BRANCH  14  18
HETATM   18  C8  UNL     1      11.878  19.946  10.542  1.00  0.00     0.218 C 
BRANCH  18  19
HETATM   19  O1  UNL     1      12.118  20.427   9.222  1.00  0.00    -0.385 OA
ATOM     20  H1  UNL     1      12.798  21.091   9.240  1.00  0.00     0.210 HD
ENDBRANCH  18  19
BRANCH  18  21
HETATM   21  C9  UNL     1      11.620  21.160  11.366  1.00  0.00     0.172 C 
BRANCH  21  22
HETATM   22  O2  UNL     1      10.915  22.031  10.439  1.00  0.00    -0.391 OA
ATOM     23  H2  UNL     1      11.268  22.888  10.648  1.00  0.00     0.210 HD
ENDBRANCH  21  22
BRANCH  21  24
HETATM   24  C10 UNL     1      12.814  21.964  11.747  1.00  0.00     0.157 C 
BRANCH  24  25
HETATM   25  N6  UNL     1      13.522  22.435  10.587  1.00  0.00    -0.358 N 
HETATM   26  C11 UNL     1      14.906  22.218  10.424  1.00  0.00     0.227 C 
HETATM   27  O3  UNL     1      15.552  21.610  11.293  1.00  0.00    -0.273 OA
ATOM     28  H6  UNL     1      13.009  22.939   9.863  1.00  0.00     0.162 HD
BRANCH  26  29
HETATM   29  C12 UNL     1      15.585  22.721   9.210  1.00  0.00     0.185 C 
BRANCH  29  30
HETATM   30  S1  UNL     1      16.434  21.392   8.321  1.00  0.00    -0.084 SA
BRANCH  30  31
HETATM   31  C13 UNL     1      15.438  19.920   8.328  1.00  0.00     0.175 A 
HETATM   32  N7  UNL     1      14.610  19.665   7.283  1.00  0.00    -0.168 N 
HETATM   33  C14 UNL     1      13.825  18.579   7.231  1.00  0.00     0.715 A 
ATOM     34  H7  UNL     1      14.584  20.326   6.507  1.00  0.00     0.186 HD
HETATM   35  N13 UNL     1      13.893  17.730   8.285  1.00  0.00    -0.021 N 
HETATM   36  C17 UNL     1      14.704  17.961   9.328  1.00  0.00     0.692 A 
ATOM     37  H13 UNL     1      13.312  16.891   8.284  1.00  0.00     0.203 HD
HETATM   38  N15 UNL     1      15.491  19.064   9.363  1.00  0.00    -0.170 N 
ATOM     39  H15 UNL     1      16.108  19.241  10.156  1.00  0.00     0.186 HD
BRANCH  33  40
HETATM   40  N8  UNL     1      13.041  18.360   6.221  1.00  0.00    -0.108 N 
ATOM     41  H8  UNL     1      13.406  18.101   5.304  1.00  0.00     0.208 HD
BRANCH  40  42
HETATM   42  N9  UNL     1      11.626  18.505   6.464  1.00  0.00    -0.156 N 
HETATM   43  N10 UNL     1      11.052  19.639   6.592  1.00  0.00    -0.256 N 
HETATM   44  C15 UNL     1       9.737  19.681   6.816  1.00  0.00     0.162 A 
ATOM     45  H10 UNL     1      11.592  20.501   6.525  1.00  0.00     0.191 HD
HETATM   46  S2  UNL     1       9.327  18.023   6.840  1.00  0.00    -0.014 SA
HETATM   47  C16 UNL     1      10.888  17.395   6.559  1.00  0.00     0.185 A 
BRANCH  44  48
HETATM   48  N11 UNL     1       8.965  20.734   6.975  1.00  0.00    -0.378 N 
ATOM     49 2H11 UNL     1       8.836  21.541   6.363  1.00  0.00     0.158 HD
ATOM     50 1H11 UNL     1       8.337  20.952   7.750  1.00  0.00     0.158 HD
ENDBRANCH  44  48
BRANCH  47  51
HETATM   51  N12 UNL     1      11.286  16.142   6.457  1.00  0.00    -0.377 N 
ATOM     52 2H12 UNL     1      12.041  15.657   6.942  1.00  0.00     0.158 HD
ATOM     53 1H12 UNL     1      10.904  15.406   5.863  1.00  0.00     0.158 HD
ENDBRANCH  47  51
ENDBRANCH  40  42
ENDBRANCH  33  40
BRANCH  36  54
HETATM   54  N14 UNL     1      14.777  17.162  10.332  1.00  0.00    -0.234 N 
ATOM     55 2H14 UNL     1      14.480  17.528  11.236  1.00  0.00     0.174 HD
ATOM     56 1H14 UNL     1      15.113  16.203  10.243  1.00  0.00     0.174 HD
ENDBRANCH  36  54
ENDBRANCH  30  31
ENDBRANCH  29  30
ENDBRANCH  26  29
ENDBRANCH  24  25
ENDBRANCH  21  24
ENDBRANCH  18  21
ENDBRANCH  14  18
ENDBRANCH   9  10
ENDBRANCH   8   9
ENDBRANCH   7   8
ENDBRANCH   6   7
ENDBRANCH   5   6
ENDBRANCH   3   5
TORSDOF 20
ENDMDL
MODEL 3
REMARK VINA RESULT: -6.683032480      2.069      4.205
REMARK  20 active torsions:
REMARK  status: ('A' for Active; 'I' for Inactive)
REMARK    1  A    between atoms: N2_3  and  C2_5 
REMARK    2  A    between atoms: C2_5  and  C3_6 
REMARK    3  A    between atoms: C3_6  and  C4_7 
REMARK    4  A    between atoms: C4_7  and  C5_8 
REMARK    5  A    between atoms: C5_8  and  C6_9 
REMARK    6  A    between atoms: C6_9  and  N3_10 
REMARK    7  A    between atoms: C7_15  and  C8_16 
REMARK    8  A    between atoms: C8_16  and  O1_17 
REMARK    9  A    between atoms: C8_16  and  C9_19 
REMARK   10  A    between atoms: C9_19  and  O2_20 
REMARK   11  A    between atoms: C9_19  and  C10_22 
REMARK   12  A    between atoms: C10_22  and  N6_23 
REMARK       I    between atoms: N6_23  and  C11_25 
REMARK   13  A    between atoms: C11_25  and  C12_27 
REMARK   14  A    between atoms: C12_27  and  S1_28 
REMARK   15  A    between atoms: S1_28  and  C13_29 
REMARK   16  A    between atoms: C14_32  and  N8_33 
REMARK   17  A    between atoms: N8_33  and  N9_35 
REMARK   18  A    between atoms: C15_38  and  N11_39 
REMARK   19  A    between atoms: C16_43  and  N12_44 
REMARK   20  A    between atoms: C17_49  and  N14_50 
ROOT
HETATM    1  N1  UNL     1       9.965  17.201   6.602  1.00  0.00    -0.172 NA
HETATM    2  C1  UNL     1       9.764  17.049   7.735  1.00  0.00     0.177 C 
HETATM    3  N2  UNL     1       9.526  16.875   9.108  1.00  0.00    -0.329 N 
ATOM      4  H2  UNL     1       8.657  17.223   9.512  1.00  0.00     0.171 HD
ENDROOT
BRANCH   3   5
HETATM    5  C2  UNL     1      10.499  16.207   9.966  1.00  0.00     0.131 C 
BRANCH   5   6
HETATM    6  C3  UNL     1      10.087  14.769  10.228  1.00  0.00     0.020 C 
BRANCH   6   7
HETATM    7  C4  UNL     1      11.377  13.980  10.323  1.00  0.00     0.003 C 
BRANCH   7   8
HETATM    8  C5  UNL     1      11.367  12.698   9.563  1.00  0.00     0.024 C 
BRANCH   8   9
HETATM    9  C6  UNL     1      11.004  12.829   8.108  1.00  0.00     0.171 C 
BRANCH   9  10
HETATM   10  N3  UNL     1      12.154  13.469   7.447  1.00  0.00    -0.218 N 
HETATM   11  N4  UNL     1      13.348  12.978   7.227  1.00  0.00    -0.225 N 
HETATM   12  N5  UNL     1      14.123  13.847   6.614  1.00  0.00    -0.270 N 
ATOM     13  H4  UNL     1      13.641  12.039   7.497  1.00  0.00     0.210 HD
HETATM   14  C7  UNL     1      13.378  14.959   6.431  1.00  0.00     0.145 A 
ATOM     15  H5  UNL     1      15.093  13.709   6.332  1.00  0.00     0.190 HD
HETATM   16  N16 UNL     1      12.179  14.694   6.952  1.00  0.00    -0.268 N 
ATOM     17  H16 UNL     1      11.393  15.344   6.966  1.00  0.00     0.190 HD
BRANCH  14  18
HETATM   18  C8  UNL     1      13.743  16.238   5.819  1.00  0.00     0.218 C 
BRANCH  18  19
HETATM   19  O1  UNL     1      12.579  16.865   5.285  1.00  0.00    -0.385 OA
ATOM     20  H1  UNL     1      12.831  17.512   4.637  1.00  0.00     0.210 HD
ENDBRANCH  18  19
BRANCH  18  21
HETATM   21  C9  UNL     1      14.381  17.262   6.692  1.00  0.00     0.172 C 
BRANCH  21  22
HETATM   22  O2  UNL     1      14.456  16.583   7.977  1.00  0.00    -0.391 OA
ATOM     23  H2  UNL     1      13.545  16.393   8.166  1.00  0.00     0.210 HD
ENDBRANCH  21  22
BRANCH  21  24
HETATM   24  C10 UNL     1      13.565  18.471   6.994  1.00  0.00     0.157 C 
BRANCH  24  25
HETATM   25  N6  UNL     1      14.185  19.284   8.006  1.00  0.00    -0.358 N 
HETATM   26  C11 UNL     1      14.340  20.676   7.845  1.00  0.00     0.227 C 
HETATM   27  O3  UNL     1      13.941  21.237   6.812  1.00  0.00    -0.273 OA
ATOM     28  H6  UNL     1      14.522  18.842   8.861  1.00  0.00     0.162 HD
BRANCH  26  29
HETATM   29  C12 UNL     1      14.983  21.467   8.917  1.00  0.00     0.185 C 
BRANCH  29  30
HETATM   30  S1  UNL     1      13.757  22.272   9.980  1.00  0.00    -0.084 SA
BRANCH  30  31
HETATM   31  C13 UNL     1      12.190  21.446   9.838  1.00  0.00     0.175 A 
HETATM   32  N7  UNL     1      11.439  21.622   8.721  1.00  0.00    -0.168 N 
HETATM   33  C14 UNL     1      10.243  21.037   8.554  1.00  0.00     0.715 A 
ATOM     34  H7  UNL     1      11.798  22.222   7.978  1.00  0.00     0.186 HD
HETATM   35  N13 UNL     1       9.808  20.249   9.566  1.00  0.00    -0.021 N 
HETATM   36  C17 UNL     1      10.532  20.060  10.679  1.00  0.00     0.692 A 
ATOM     37  H13 UNL     1       8.903  19.785   9.479  1.00  0.00     0.203 HD
HETATM   38  N15 UNL     1      11.739  20.660  10.830  1.00  0.00    -0.170 N 
ATOM     39  H15 UNL     1      12.291  20.518  11.676  1.00  0.00     0.186 HD
BRANCH  33  40
HETATM   40  N8  UNL     1       9.545  21.223   7.477  1.00  0.00    -0.108 N 
ATOM     41  H8  UNL     1       8.536  21.371   7.510  1.00  0.00     0.208 HD
BRANCH  40  42
HETATM   42  N9  UNL     1      10.272  21.211   6.231  1.00  0.00    -0.156 N 
HETATM   43  N10 UNL     1      10.649  20.135   5.654  1.00  0.00    -0.256 N 
HETATM   44  C15 UNL     1      11.318  20.215   4.502  1.00  0.00     0.162 A 
ATOM     45  H10 UNL     1      10.441  19.228   6.069  1.00  0.00     0.191 HD
HETATM   46  S2  UNL     1      11.401  21.903   4.255  1.00  0.00    -0.014 SA
HETATM   47  C16 UNL     1      10.562  22.383   5.661  1.00  0.00     0.185 A 
BRANCH  44  48
HETATM   48  N11 UNL     1      11.789  19.238   3.757  1.00  0.00    -0.378 N 
ATOM     49 2H11 UNL     1      12.014  18.277   4.016  1.00  0.00     0.158 HD
ATOM     50 1H11 UNL     1      12.023  19.251   2.764  1.00  0.00     0.158 HD
ENDBRANCH  44  48
BRANCH  47  51
HETATM   51  N12 UNL     1      10.266  23.594   6.092  1.00  0.00    -0.377 N 
ATOM     52 2H12 UNL     1      10.113  23.927   7.044  1.00  0.00     0.158 HD
ATOM     53 1H12 UNL     1      10.131  24.443   5.543  1.00  0.00     0.158 HD
ENDBRANCH  47  51
ENDBRANCH  40  42
ENDBRANCH  33  40
BRANCH  36  54
HETATM   54  N14 UNL     1      10.128  19.314  11.644  1.00  0.00    -0.234 N 
ATOM     55 2H14 UNL     1       9.957  19.770  12.540  1.00  0.00     0.174 HD
ATOM     56 1H14 UNL     1       9.980  18.312  11.533  1.00  0.00     0.174 HD
ENDBRANCH  36  54
ENDBRANCH  30  31
ENDBRANCH  29  30
ENDBRANCH  26  29
ENDBRANCH  24  25
ENDBRANCH  21  24
ENDBRANCH  18  21
ENDBRANCH  14  18
ENDBRANCH   9  10
ENDBRANCH   8   9
ENDBRANCH   7   8
ENDBRANCH   6   7
ENDBRANCH   5   6
ENDBRANCH   3   5
TORSDOF 20
ENDMDL
MODEL 4
REMARK VINA RESULT: -6.650416653      2.191      4.520
REMARK  20 active torsions:
REMARK  status: ('A' for Active; 'I' for Inactive)
REMARK    1  A    between atoms: N2_3  and  C2_5 
REMARK    2  A    between atoms: C2_5  and  C3_6 
REMARK    3  A    between atoms: C3_6  and  C4_7 
REMARK    4  A    between atoms: C4_7  and  C5_8 
REMARK    5  A    between atoms: C5_8  and  C6_9 
REMARK    6  A    between atoms: C6_9  and  N3_10 
REMARK    7  A    between atoms: C7_15  and  C8_16 
REMARK    8  A    between atoms: C8_16  and  O1_17 
REMARK    9  A    between atoms: C8_16  and  C9_19 
REMARK   10  A    between atoms: C9_19  and  O2_20 
REMARK   11  A    between atoms: C9_19  and  C10_22 
REMARK   12  A    between atoms: C10_22  and  N6_23 
REMARK       I    between atoms: N6_23  and  C11_25 
REMARK   13  A    between atoms: C11_25  and  C12_27 
REMARK   14  A    between atoms: C12_27  and  S1_28 
REMARK   15  A    between atoms: S1_28  and  C13_29 
REMARK   16  A    between atoms: C14_32  and  N8_33 
REMARK   17  A    between atoms: N8_33  and  N9_35 
REMARK   18  A    between atoms: C15_38  and  N11_39 
REMARK   19  A    between atoms: C16_43  and  N12_44 
REMARK   20  A    between atoms: C17_49  and  N14_50 
ROOT
HETATM    1  N1  UNL     1      10.315  17.687   8.572  1.00  0.00    -0.172 NA
HETATM    2  C1  UNL     1      11.108  17.099   9.184  1.00  0.00     0.177 C 
HETATM    3  N2  UNL     1      12.072  16.386   9.914  1.00  0.00    -0.329 N 
ATOM      4  H2  UNL     1      12.923  16.860  10.215  1.00  0.00     0.171 HD
ENDROOT
BRANCH   3   5
HETATM    5  C2  UNL     1      11.878  14.979  10.250  1.00  0.00     0.131 C 
BRANCH   5   6
HETATM    6  C3  UNL     1      10.407  14.608  10.189  1.00  0.00     0.020 C 
BRANCH   6   7
HETATM    7  C4  UNL     1      10.346  13.270   9.482  1.00  0.00     0.003 C 
BRANCH   7   8
HETATM    8  C5  UNL     1      11.676  12.720   9.095  1.00  0.00     0.024 C 
BRANCH   8   9
HETATM    9  C6  UNL     1      11.842  12.444   7.625  1.00  0.00     0.171 C 
BRANCH   9  10
HETATM   10  N3  UNL     1      12.727  13.498   7.100  1.00  0.00    -0.218 N 
HETATM   11  N4  UNL     1      14.020  13.453   6.894  1.00  0.00    -0.225 N 
HETATM   12  N5  UNL     1      14.473  14.594   6.421  1.00  0.00    -0.270 N 
ATOM     13  H4  UNL     1      14.601  12.636   7.077  1.00  0.00     0.210 HD
HETATM   14  C7  UNL     1      13.407  15.416   6.319  1.00  0.00     0.145 A 
ATOM     15  H5  UNL     1      15.440  14.814   6.180  1.00  0.00     0.190 HD
HETATM   16  N16 UNL     1      12.354  14.714   6.742  1.00  0.00    -0.268 N 
ATOM     17  H16 UNL     1      11.397  15.065   6.783  1.00  0.00     0.190 HD
BRANCH  14  18
HETATM   18  C8  UNL     1      13.339  16.807   5.869  1.00  0.00     0.218 C 
BRANCH  18  19
HETATM   19  O1  UNL     1      12.008  17.297   6.018  1.00  0.00    -0.385 OA
ATOM     20  H1  UNL     1      11.956  18.189   5.696  1.00  0.00     0.210 HD
ENDBRANCH  18  19
BRANCH  18  21
HETATM   21  C9  UNL     1      14.207  17.798   6.563  1.00  0.00     0.172 C 
BRANCH  21  22
HETATM   22  O2  UNL     1      14.441  17.169   7.853  1.00  0.00    -0.391 OA
ATOM     23  H2  UNL     1      13.560  17.047   8.188  1.00  0.00     0.210 HD
ENDBRANCH  21  22
BRANCH  21  24
HETATM   24  C10 UNL     1      13.568  19.094   6.927  1.00  0.00     0.157 C 
BRANCH  24  25
HETATM   25  N6  UNL     1      13.389  19.210   8.349  1.00  0.00    -0.358 N 
HETATM   26  C11 UNL     1      13.765  20.374   9.050  1.00  0.00     0.227 C 
HETATM   27  O3  UNL     1      14.267  21.336   8.446  1.00  0.00    -0.273 OA
ATOM     28  H6  UNL     1      12.981  18.429   8.864  1.00  0.00     0.162 HD
BRANCH  26  29
HETATM   29  C12 UNL     1      13.558  20.443  10.513  1.00  0.00     0.185 C 
BRANCH  29  30
HETATM   30  S1  UNL     1      11.800  20.387  10.942  1.00  0.00    -0.084 SA
BRANCH  30  31
HETATM   31  C13 UNL     1      10.871  21.434   9.847  1.00  0.00     0.175 A 
HETATM   32  N7  UNL     1      10.301  20.902   8.735  1.00  0.00    -0.168 N 
HETATM   33  C14 UNL     1       9.596  21.638   7.862  1.00  0.00     0.715 A 
ATOM     34  H7  UNL     1      10.412  19.904   8.557  1.00  0.00     0.186 HD
HETATM   35  N13 UNL     1       9.475  22.957   8.140  1.00  0.00    -0.021 N 
HETATM   36  C17 UNL     1      10.029  23.504   9.232  1.00  0.00     0.692 A 
ATOM     37  H13 UNL     1       8.946  23.552   7.501  1.00  0.00     0.203 HD
HETATM   38  N15 UNL     1      10.738  22.746  10.104  1.00  0.00    -0.170 N 
ATOM     39  H15 UNL     1      11.160  23.161  10.934  1.00  0.00     0.186 HD
BRANCH  33  40
HETATM   40  N8  UNL     1       9.063  21.105   6.806  1.00  0.00    -0.108 N 
ATOM     41  H8  UNL     1       8.074  20.856   6.771  1.00  0.00     0.208 HD
BRANCH  40  42
HETATM   42  N9  UNL     1       9.944  20.883   5.685  1.00  0.00    -0.156 N 
HETATM   43  N10 UNL     1      10.661  21.805   5.168  1.00  0.00    -0.256 N 
HETATM   44  C15 UNL     1      11.449  21.512   4.132  1.00  0.00     0.162 A 
ATOM     45  H10 UNL     1      10.632  22.752   5.543  1.00  0.00     0.191 HD
HETATM   46  S2  UNL     1      11.135  19.849   3.904  1.00  0.00    -0.014 SA
HETATM   47  C16 UNL     1      10.006  19.653   5.168  1.00  0.00     0.185 A 
BRANCH  44  48
HETATM   48  N11 UNL     1      12.257  22.308   3.463  1.00  0.00    -0.378 N 
ATOM     49 2H11 UNL     1      12.931  22.988   3.815  1.00  0.00     0.158 HD
ATOM     50 1H11 UNL     1      12.366  22.401   2.453  1.00  0.00     0.158 HD
ENDBRANCH  44  48
BRANCH  47  51
HETATM   51  N12 UNL     1       9.352  18.574   5.553  1.00  0.00    -0.377 N 
ATOM     52 2H12 UNL     1       8.668  18.459   6.300  1.00  0.00     0.158 HD
ATOM     53 1H12 UNL     1       9.410  17.631   5.167  1.00  0.00     0.158 HD
ENDBRANCH  47  51
ENDBRANCH  40  42
ENDBRANCH  33  40
BRANCH  36  54
HETATM   54  N14 UNL     1       9.920  24.756   9.505  1.00  0.00    -0.234 N 
ATOM     55 2H14 UNL     1       8.979  25.149   9.499  1.00  0.00     0.174 HD
ATOM     56 1H14 UNL     1      10.728  25.340   9.719  1.00  0.00     0.174 HD
ENDBRANCH  36  54
ENDBRANCH  30  31
ENDBRANCH  29  30
ENDBRANCH  26  29
ENDBRANCH  24  25
ENDBRANCH  21  24
ENDBRANCH  18  21
ENDBRANCH  14  18
ENDBRANCH   9  10
ENDBRANCH   8   9
ENDBRANCH   7   8
ENDBRANCH   6   7
ENDBRANCH   5   6
ENDBRANCH   3   5
TORSDOF 20
ENDMDL
MODEL 5
REMARK VINA RESULT: -6.625518234      1.826      3.245
REMARK  20 active torsions:
REMARK  status: ('A' for Active; 'I' for Inactive)
REMARK    1  A    between atoms: N2_3  and  C2_5 
REMARK    2  A    between atoms: C2_5  and  C3_6 
REMARK    3  A    between atoms: C3_6  and  C4_7 
REMARK    4  A    between atoms: C4_7  and  C5_8 
REMARK    5  A    between atoms: C5_8  and  C6_9 
REMARK    6  A    between atoms: C6_9  and  N3_10 
REMARK    7  A    between atoms: C7_15  and  C8_16 
REMARK    8  A    between atoms: C8_16  and  O1_17 
REMARK    9  A    between atoms: C8_16  and  C9_19 
REMARK   10  A    between atoms: C9_19  and  O2_20 
REMARK   11  A    between atoms: C9_19  and  C10_22 
REMARK   12  A    between atoms: C10_22  and  N6_23 
REMARK       I    between atoms: N6_23  and  C11_25 
REMARK   13  A    between atoms: C11_25  and  C12_27 
REMARK   14  A    between atoms: C12_27  and  S1_28 
REMARK   15  A    between atoms: S1_28  and  C13_29 
REMARK   16  A    between atoms: C14_32  and  N8_33 
REMARK   17  A    between atoms: N8_33  and  N9_35 
REMARK   18  A    between atoms: C15_38  and  N11_39 
REMARK   19  A    between atoms: C16_43  and  N12_44 
REMARK   20  A    between atoms: C17_49  and  N14_50 
ROOT
HETATM    1  N1  UNL     1      14.439  15.258   5.484  1.00  0.00    -0.172 NA
HETATM    2  C1  UNL     1      14.076  14.434   6.217  1.00  0.00     0.177 C 
HETATM    3  N2  UNL     1      13.640  13.430   7.096  1.00  0.00    -0.329 N 
ATOM      4  H2  UNL     1      14.274  13.086   7.816  1.00  0.00     0.171 HD
ENDROOT
BRANCH   3   5
HETATM    5  C2  UNL     1      12.296  12.869   6.997  1.00  0.00     0.131 C 
BRANCH   5   6
HETATM    6  C3  UNL     1      11.950  12.077   8.246  1.00  0.00     0.020 C 
BRANCH   6   7
HETATM    7  C4  UNL     1      10.499  12.390   8.547  1.00  0.00     0.003 C 
BRANCH   7   8
HETATM    8  C5  UNL     1      10.302  13.466   9.559  1.00  0.00     0.024 C 
BRANCH   8   9
HETATM    9  C6  UNL     1      11.518  13.789  10.384  1.00  0.00     0.171 C 
BRANCH   9  10
HETATM   10  N3  UNL     1      12.102  15.012   9.805  1.00  0.00    -0.218 N 
HETATM   11  N4  UNL     1      13.310  15.494   9.960  1.00  0.00    -0.225 N 
HETATM   12  N5  UNL     1      13.471  16.615   9.292  1.00  0.00    -0.270 N 
ATOM     13  H4  UNL     1      14.034  15.054  10.528  1.00  0.00     0.210 HD
HETATM   14  C7  UNL     1      12.297  16.864   8.673  1.00  0.00     0.145 A 
ATOM     15  H5  UNL     1      14.317  17.185   9.250  1.00  0.00     0.190 HD
HETATM   16  N16 UNL     1      11.481  15.862   9.007  1.00  0.00    -0.268 N 
ATOM     17  H16 UNL     1      10.516  15.767   8.692  1.00  0.00     0.190 HD
BRANCH  14  18
HETATM   18  C8  UNL     1      11.912  17.985   7.815  1.00  0.00     0.218 C 
BRANCH  18  19
HETATM   19  O1  UNL     1      13.074  18.707   7.415  1.00  0.00    -0.385 OA
ATOM     20  H1  UNL     1      13.067  19.571   7.810  1.00  0.00     0.210 HD
ENDBRANCH  18  19
BRANCH  18  21
HETATM   21  C9  UNL     1      11.188  17.668   6.552  1.00  0.00     0.172 C 
BRANCH  21  22
HETATM   22  O2  UNL     1      11.647  16.321   6.250  1.00  0.00    -0.391 OA
ATOM     23  H2  UNL     1      12.593  16.416   6.261  1.00  0.00     0.210 HD
ENDBRANCH  21  22
BRANCH  21  24
HETATM   24  C10 UNL     1      11.594  18.444   5.347  1.00  0.00     0.157 C 
BRANCH  24  25
HETATM   25  N6  UNL     1      10.892  19.697   5.268  1.00  0.00    -0.358 N 
HETATM   26  C11 UNL     1      11.546  20.927   5.485  1.00  0.00     0.227 C 
HETATM   27  O3  UNL     1      12.758  20.955   5.755  1.00  0.00    -0.273 OA
ATOM     28  H6  UNL     1       9.895  19.696   5.051  1.00  0.00     0.162 HD
BRANCH  26  29
HETATM   29  C12 UNL     1      10.778  22.188   5.390  1.00  0.00     0.185 C 
BRANCH  29  30
HETATM   30  S1  UNL     1       9.733  22.445   6.846  1.00  0.00    -0.084 SA
BRANCH  30  31
HETATM   31  C13 UNL     1      10.458  21.658   8.265  1.00  0.00     0.175 A 
HETATM   32  N7  UNL     1      11.709  22.009   8.659  1.00  0.00    -0.168 N 
HETATM   33  C14 UNL     1      12.318  21.446   9.714  1.00  0.00     0.715 A 
ATOM     34  H7  UNL     1      12.205  22.728   8.133  1.00  0.00     0.186 HD
HETATM   35  N13 UNL     1      11.621  20.496  10.381  1.00  0.00    -0.021 N 
HETATM   36  C17 UNL     1      10.384  20.134  10.010  1.00  0.00     0.692 A 
ATOM     37  H13 UNL     1      12.048  20.044  11.190  1.00  0.00     0.203 HD
HETATM   38  N15 UNL     1       9.784  20.713   8.941  1.00  0.00    -0.170 N 
ATOM     39  H15 UNL     1       8.844  20.438   8.657  1.00  0.00     0.186 HD
BRANCH  33  40
HETATM   40  N8  UNL     1      13.515  21.798  10.069  1.00  0.00    -0.108 N 
ATOM     41  H8  UNL     1      13.691  22.663  10.581  1.00  0.00     0.208 HD
BRANCH  40  42
HETATM   42  N9  UNL     1      14.584  20.902   9.700  1.00  0.00    -0.156 N 
HETATM   43  N10 UNL     1      14.924  19.894  10.407  1.00  0.00    -0.256 N 
HETATM   44  C15 UNL     1      15.925  19.116   9.992  1.00  0.00     0.162 A 
ATOM     45  H10 UNL     1      14.438  19.688  11.279  1.00  0.00     0.191 HD
HETATM   46  S2  UNL     1      16.382  19.874   8.531  1.00  0.00    -0.014 SA
HETATM   47  C16 UNL     1      15.244  21.144   8.565  1.00  0.00     0.185 A 
BRANCH  44  48
HETATM   48  N11 UNL     1      16.425  18.043  10.567  1.00  0.00    -0.378 N 
ATOM     49 2H11 UNL     1      16.964  17.963  11.429  1.00  0.00     0.158 HD
ATOM     50 1H11 UNL     1      16.370  17.072  10.259  1.00  0.00     0.158 HD
ENDBRANCH  44  48
BRANCH  47  51
HETATM   51  N12 UNL     1      15.048  22.122   7.701  1.00  0.00    -0.377 N 
ATOM     52 2H12 UNL     1      15.157  23.129   7.823  1.00  0.00     0.158 HD
ATOM     53 1H12 UNL     1      14.744  22.054   6.730  1.00  0.00     0.158 HD
ENDBRANCH  47  51
ENDBRANCH  40  42
ENDBRANCH  33  40
BRANCH  36  54
HETATM   54  N14 UNL     1       9.714  19.234  10.637  1.00  0.00    -0.234 N 
ATOM     55 2H14 UNL     1       9.332  19.492  11.546  1.00  0.00     0.174 HD
ATOM     56 1H14 UNL     1       9.564  18.300  10.254  1.00  0.00     0.174 HD
ENDBRANCH  36  54
ENDBRANCH  30  31
ENDBRANCH  29  30
ENDBRANCH  26  29
ENDBRANCH  24  25
ENDBRANCH  21  24
ENDBRANCH  18  21
ENDBRANCH  14  18
ENDBRANCH   9  10
ENDBRANCH   8   9
ENDBRANCH   7   8
ENDBRANCH   6   7
ENDBRANCH   5   6
ENDBRANCH   3   5
TORSDOF 20
ENDMDL
