MODEL 1
REMARK VINA RESULT: -7.023285603      0.000      0.000
REMARK  23 active torsions:
REMARK  status: ('A' for Active; 'I' for Inactive)
REMARK    1  A    between atoms: N1_2  and  C2_3 
REMARK    2  A    between atoms: N1_2  and  C14_46 
REMARK    3  A    between atoms: C2_3  and  C3_4 
REMARK    4  A    between atoms: C3_4  and  O1_5 
REMARK    5  A    between atoms: C4_7  and  C5_8 
REMARK    6  A    between atoms: C5_8  and  N2_9 
REMARK    7  A    between atoms: C5_8  and  C6_15 
REMARK    8  A    between atoms: N2_9  and  N3_11 
REMARK    9  A    between atoms: N3_11  and  N4_12 
REMARK   10  A    between atoms: C6_15  and  N5_16 
REMARK   11  A    between atoms: C6_15  and  C11_32 
REMARK   12  A    between atoms: N5_16  and  O2_17 
REMARK   13  A    between atoms: O2_17  and  C7_18 
REMARK   14  A    between atoms: C7_18  and  C8_19 
REMARK   15  A    between atoms: C8_19  and  O3_20 
REMARK   16  A    between atoms: C8_19  and  C9_22 
REMARK   17  A    between atoms: C9_22  and  N6_23 
REMARK   18  A    between atoms: C9_22  and  C10_27 
REMARK   19  A    between atoms: C10_27  and  O4_28 
REMARK   20  A    between atoms: C10_27  and  O5_30 
REMARK   21  A    between atoms: C12_37  and  O6_38 
REMARK   22  A    between atoms: C13_40  and  N9_41 
REMARK   23  A    between atoms: C14_46  and  C15_47 
ROOT
HETATM    1  C6  UNL     1       9.384  16.949   9.058  1.00  0.00     0.204 C 
ENDROOT
BRANCH   1   2
HETATM    2  C5  UNL     1       9.962  17.733  10.236  1.00  0.00     0.168 C 
BRANCH   2   3
HETATM    3  C4  UNL     1      10.585  18.995   9.846  1.00  0.00     0.036 C 
HETATM    4  C3  UNL     1      11.888  19.086   9.717  1.00  0.00     0.070 C 
BRANCH   4   5
HETATM    5  C2  UNL     1      12.568  20.358   9.321  1.00  0.00     0.335 C 
BRANCH   5   6
HETATM    6  N1  UNL     1      13.807  20.440  10.025  1.00  0.00     0.095 N 
HETATM    7  C1  UNL     1      13.774  21.240  11.203  1.00  0.00     0.310 C 
BRANCH   6   8
HETATM    8  C14 UNL     1      14.950  20.652   9.185  1.00  0.00     0.330 C 
BRANCH   8   9
HETATM    9  C15 UNL     1      16.127  19.867   9.560  1.00  0.00     0.053 A 
HETATM   10  C16 UNL     1      15.937  18.638  10.158  1.00  0.00     0.115 A 
HETATM   11  N11 UNL     1      16.992  17.865  10.529  1.00  0.00    -0.364 N 
HETATM   12  C17 UNL     1      18.254  18.266  10.328  1.00  0.00     0.049 A 
ATOM     13  H11 UNL     1      16.820  16.961  10.970  1.00  0.00     0.165 HD
HETATM   14  C18 UNL     1      18.453  19.501   9.727  1.00  0.00     0.035 A 
HETATM   15  C21 UNL     1      19.447  17.490  10.698  1.00  0.00     0.173 C 
HETATM   16  N12 UNL     1      17.400  20.255   9.366  1.00  0.00    -0.359 N 
HETATM   17  C19 UNL     1      19.870  19.906   9.528  1.00  0.00     0.078 C 
ATOM     18  H12 UNL     1      17.573  21.159   8.926  1.00  0.00     0.165 HD
HETATM   19  C20 UNL     1      20.555  19.636  10.874  1.00  0.00     0.120 C 
HETATM   20  N13 UNL     1      20.533  18.251  11.227  1.00  0.00    -0.416 N 
ATOM     21  H13 UNL     1      21.250  17.833  11.820  1.00  0.00     0.153 HD
ENDBRANCH   8   9
ENDBRANCH   6   8
ENDBRANCH   5   6
ENDBRANCH   4   5
BRANCH   4  22
HETATM   22  O1  UNL     1      12.660  17.960   9.957  1.00  0.00    -0.363 OA
ATOM     23  H1  UNL     1      12.230  17.155  10.219  1.00  0.00     0.217 HD
ENDBRANCH   4  22
ENDBRANCH   2   3
BRANCH   2  24
HETATM   24  N2  UNL     1       8.856  18.064  11.144  1.00  0.00    -0.242 N 
ATOM     25  H2  UNL     1       7.897  17.876  10.854  1.00  0.00     0.197 HD
BRANCH  24  26
HETATM   26  N3  UNL     1       9.068  18.566  12.252  1.00  0.00    -0.248 NA
BRANCH  26  27
HETATM   27  N4  UNL     1       9.247  18.749  13.449  1.00  0.00    -0.261 N 
ATOM     28  H42 UNL     1       9.971  19.452  13.298  1.00  0.00     0.193 HD
ATOM     29  H41 UNL     1       9.199  18.711  14.467  1.00  0.00     0.193 HD
ENDBRANCH  26  27
ENDBRANCH  24  26
ENDBRANCH   2  24
ENDBRANCH   1   2
BRANCH   1  30
HETATM   30  N5  UNL     1       9.916  15.606   9.183  1.00  0.00    -0.086 NA
BRANCH  30  31
HETATM   31  O2  UNL     1      11.184  15.577   9.595  1.00  0.00    -0.283 OA
BRANCH  31  32
HETATM   32  C7  UNL     1      11.687  14.302   9.497  1.00  0.00     0.229 C 
BRANCH  32  33
HETATM   33  C8  UNL     1      12.321  13.978   8.181  1.00  0.00     0.179 C 
BRANCH  33  34
HETATM   34  O3  UNL     1      11.483  14.443   7.170  1.00  0.00    -0.391 OA
ATOM     35  H3  UNL     1      11.838  15.263   6.846  1.00  0.00     0.210 HD
ENDBRANCH  33  34
BRANCH  33  36
HETATM   36  C9  UNL     1      13.675  14.571   7.983  1.00  0.00     0.268 C 
BRANCH  36  37
HETATM   37  N6  UNL     1      13.713  15.998   8.192  1.00  0.00    -0.068 N 
ATOM     38  H63 UNL     1      12.842  16.325   8.611  1.00  0.00     0.275 HD
ATOM     39  H62 UNL     1      14.362  16.237   8.942  1.00  0.00     0.275 HD
ATOM     40  H61 UNL     1      13.928  16.527   7.346  1.00  0.00     0.275 HD
ENDBRANCH  36  37
BRANCH  36  41
HETATM   41  C10 UNL     1      14.297  14.175   6.660  1.00  0.00     0.286 C 
BRANCH  41  42
HETATM   42  O4  UNL     1      13.762  12.980   6.183  1.00  0.00    -0.369 OA
ATOM     43  H4  UNL     1      13.311  13.107   5.358  1.00  0.00     0.212 HD
ENDBRANCH  41  42
BRANCH  41  44
HETATM   44  O5  UNL     1      14.154  15.129   5.680  1.00  0.00    -0.369 OA
ATOM     45  H5  UNL     1      14.417  14.829   4.819  1.00  0.00     0.212 HD
ENDBRANCH  41  44
ENDBRANCH  36  41
ENDBRANCH  33  36
ENDBRANCH  32  33
ENDBRANCH  31  32
ENDBRANCH  30  31
ENDBRANCH   1  30
BRANCH   1  46
HETATM   46  C11 UNL     1       9.719  17.571   7.770  1.00  0.00     0.122 A 
HETATM   47  N7  UNL     1       8.893  18.437   7.150  1.00  0.00    -0.285 N 
HETATM   48  N8  UNL     1       9.140  19.014   6.007  1.00  0.00    -0.276 N 
ATOM     49  H7  UNL     1       8.009  18.657   7.609  1.00  0.00     0.188 HD
HETATM   50  C12 UNL     1      10.301  18.731   5.395  1.00  0.00     0.200 A 
ATOM     51  H8  UNL     1       8.470  19.661   5.591  1.00  0.00     0.189 HD
HETATM   52  C13 UNL     1      11.192  17.858   5.965  1.00  0.00     0.153 A 
HETATM   53  N10 UNL     1      10.888  17.298   7.131  1.00  0.00    -0.326 N 
ATOM     54  H10 UNL     1      11.548  16.648   7.558  1.00  0.00     0.169 HD
BRANCH  50  55
HETATM   55  O6  UNL     1      10.622  19.314   4.173  1.00  0.00    -0.342 OA
ATOM     56  H6  UNL     1      11.249  20.027   4.124  1.00  0.00     0.219 HD
ENDBRANCH  50  55
BRANCH  52  57
HETATM   57  N9  UNL     1      12.300  17.594   5.369  1.00  0.00    -0.382 N 
ATOM     58  H92 UNL     1      12.413  16.743   4.818  1.00  0.00     0.157 HD
ATOM     59  H91 UNL     1      13.085  18.240   5.445  1.00  0.00     0.157 HD
ENDBRANCH  52  57
ENDBRANCH   1  46
TORSDOF 23
ENDMDL
MODEL 2
REMARK VINA RESULT: -6.947169168      1.622      2.179
REMARK  23 active torsions:
REMARK  status: ('A' for Active; 'I' for Inactive)
REMARK    1  A    between atoms: N1_2  and  C2_3 
REMARK    2  A    between atoms: N1_2  and  C14_46 
REMARK    3  A    between atoms: C2_3  and  C3_4 
REMARK    4  A    between atoms: C3_4  and  O1_5 
REMARK    5  A    between atoms: C4_7  and  C5_8 
REMARK    6  A    between atoms: C5_8  and  N2_9 
REMARK    7  A    between atoms: C5_8  and  C6_15 
REMARK    8  A    between atoms: N2_9  and  N3_11 
REMARK    9  A    between atoms: N3_11  and  N4_12 
REMARK   10  A    between atoms: C6_15  and  N5_16 
REMARK   11  A    between atoms: C6_15  and  C11_32 
REMARK   12  A    between atoms: N5_16  and  O2_17 
REMARK   13  A    between atoms: O2_17  and  C7_18 
REMARK   14  A    between atoms: C7_18  and  C8_19 
REMARK   15  A    between atoms: C8_19  and  O3_20 
REMARK   16  A    between atoms: C8_19  and  C9_22 
REMARK   17  A    between atoms: C9_22  and  N6_23 
REMARK   18  A    between atoms: C9_22  and  C10_27 
REMARK   19  A    between atoms: C10_27  and  O4_28 
REMARK   20  A    between atoms: C10_27  and  O5_30 
REMARK   21  A    between atoms: C12_37  and  O6_38 
REMARK   22  A    between atoms: C13_40  and  N9_41 
REMARK   23  A    between atoms: C14_46  and  C15_47 
ROOT
HETATM    1  C6  UNL     1      10.386  17.390   9.259  1.00  0.00     0.204 C 
ENDROOT
BRANCH   1   2
HETATM    2  C5  UNL     1      10.644  18.463  10.317  1.00  0.00     0.168 C 
BRANCH   2   3
HETATM    3  C4  UNL     1      11.243  19.680   9.779  1.00  0.00     0.036 C 
HETATM    4  C3  UNL     1      11.720  20.602  10.581  1.00  0.00     0.070 C 
BRANCH   4   5
HETATM    5  C2  UNL     1      12.342  21.865  10.073  1.00  0.00     0.335 C 
BRANCH   5   6
HETATM    6  N1  UNL     1      13.755  21.765  10.238  1.00  0.00     0.095 N 
HETATM    7  C1  UNL     1      14.376  22.922  10.791  1.00  0.00     0.310 C 
BRANCH   6   8
HETATM    8  C14 UNL     1      14.441  21.192   9.117  1.00  0.00     0.330 C 
BRANCH   8   9
HETATM    9  C15 UNL     1      15.520  20.270   9.477  1.00  0.00     0.053 A 
HETATM   10  C16 UNL     1      15.200  19.116  10.161  1.00  0.00     0.115 A 
HETATM   11  N11 UNL     1      16.159  18.223  10.524  1.00  0.00    -0.364 N 
HETATM   12  C17 UNL     1      17.450  18.431  10.229  1.00  0.00     0.049 A 
ATOM     13  H11 UNL     1      15.892  17.379  11.030  1.00  0.00     0.165 HD
HETATM   14  C18 UNL     1      17.779  19.589   9.541  1.00  0.00     0.035 A 
HETATM   15  C21 UNL     1      18.545  17.515  10.583  1.00  0.00     0.173 C 
HETATM   16  N12 UNL     1      16.819  20.464   9.190  1.00  0.00    -0.359 N 
HETATM   17  C19 UNL     1      19.223  19.778   9.241  1.00  0.00     0.078 C 
ATOM     18  H12 UNL     1      17.088  21.308   8.684  1.00  0.00     0.165 HD
HETATM   19  C20 UNL     1      19.947  19.490  10.562  1.00  0.00     0.120 C 
HETATM   20  N13 UNL     1      19.757  18.144  11.003  1.00  0.00    -0.416 N 
ATOM     21  H13 UNL     1      20.445  17.662  11.582  1.00  0.00     0.153 HD
ENDBRANCH   8   9
ENDBRANCH   6   8
ENDBRANCH   5   6
ENDBRANCH   4   5
BRANCH   4  22
HETATM   22  O1  UNL     1      11.645  20.397  11.950  1.00  0.00    -0.363 OA
ATOM     23  H1  UNL     1      10.970  19.822  12.291  1.00  0.00     0.217 HD
ENDBRANCH   4  22
ENDBRANCH   2   3
BRANCH   2  24
HETATM   24  N2  UNL     1       9.349  18.844  10.898  1.00  0.00    -0.242 N 
ATOM     25  H2  UNL     1       8.613  19.201  10.290  1.00  0.00     0.197 HD
BRANCH  24  26
HETATM   26  N3  UNL     1       9.137  18.738  12.110  1.00  0.00    -0.248 NA
BRANCH  26  27
HETATM   27  N4  UNL     1       9.240  18.740  13.330  1.00  0.00    -0.261 N 
ATOM     28  H42 UNL     1      10.198  18.391  13.314  1.00  0.00     0.193 HD
ATOM     29  H41 UNL     1       9.066  18.836  14.330  1.00  0.00     0.193 HD
ENDBRANCH  26  27
ENDBRANCH  24  26
ENDBRANCH   2  24
ENDBRANCH   1   2
BRANCH   1  30
HETATM   30  N5  UNL     1      10.083  16.179   9.996  1.00  0.00    -0.086 NA
BRANCH  30  31
HETATM   31  O2  UNL     1       9.977  15.101   9.217  1.00  0.00    -0.283 OA
BRANCH  31  32
HETATM   32  C7  UNL     1       9.831  13.972   9.987  1.00  0.00     0.229 C 
BRANCH  32  33
HETATM   33  C8  UNL     1      10.574  12.772   9.489  1.00  0.00     0.179 C 
BRANCH  33  34
HETATM   34  O3  UNL     1      10.038  12.412   8.255  1.00  0.00    -0.391 OA
ATOM     35  H3  UNL     1       9.764  11.504   8.306  1.00  0.00     0.210 HD
ENDBRANCH  33  34
BRANCH  33  36
HETATM   36  C9  UNL     1      12.042  12.977   9.325  1.00  0.00     0.268 C 
BRANCH  36  37
HETATM   37  N6  UNL     1      12.578  14.002  10.188  1.00  0.00    -0.068 N 
ATOM     38  H63 UNL     1      12.050  14.055  11.059  1.00  0.00     0.275 HD
ATOM     39  H62 UNL     1      13.487  13.724  10.557  1.00  0.00     0.275 HD
ATOM     40  H61 UNL     1      12.634  14.919   9.743  1.00  0.00     0.275 HD
ENDBRANCH  36  37
BRANCH  36  41
HETATM   41  C10 UNL     1      12.444  13.186   7.879  1.00  0.00     0.286 C 
BRANCH  41  42
HETATM   42  O4  UNL     1      11.756  14.256   7.309  1.00  0.00    -0.369 OA
ATOM     43  H4  UNL     1      11.665  14.148   6.370  1.00  0.00     0.212 HD
ENDBRANCH  41  42
BRANCH  41  44
HETATM   44  O5  UNL     1      13.790  13.404   7.711  1.00  0.00    -0.369 OA
ATOM     45  H5  UNL     1      14.226  13.703   8.500  1.00  0.00     0.212 HD
ENDBRANCH  41  44
ENDBRANCH  36  41
ENDBRANCH  33  36
ENDBRANCH  32  33
ENDBRANCH  31  32
ENDBRANCH  30  31
ENDBRANCH   1  30
BRANCH   1  46
HETATM   46  C11 UNL     1      11.532  17.228   8.355  1.00  0.00     0.122 A 
HETATM   47  N7  UNL     1      12.717  16.740   8.771  1.00  0.00    -0.285 N 
HETATM   48  N8  UNL     1      13.765  16.579   8.011  1.00  0.00    -0.276 N 
ATOM     49  H7  UNL     1      12.801  16.477   9.752  1.00  0.00     0.188 HD
HETATM   50  C12 UNL     1      13.665  16.922   6.717  1.00  0.00     0.200 A 
ATOM     51  H8  UNL     1      14.635  16.204   8.390  1.00  0.00     0.189 HD
HETATM   52  C13 UNL     1      12.490  17.427   6.220  1.00  0.00     0.153 A 
HETATM   53  N10 UNL     1      11.454  17.570   7.040  1.00  0.00    -0.326 N 
ATOM     54  H10 UNL     1      10.579  17.946   6.675  1.00  0.00     0.169 HD
BRANCH  50  55
HETATM   55  O6  UNL     1      14.748  16.775   5.855  1.00  0.00    -0.342 OA
ATOM     56  H6  UNL     1      14.758  16.087   5.201  1.00  0.00     0.219 HD
ENDBRANCH  50  55
BRANCH  52  57
HETATM   57  N9  UNL     1      12.406  17.753   4.980  1.00  0.00    -0.382 N 
ATOM     58  H92 UNL     1      12.745  18.656   4.648  1.00  0.00     0.157 HD
ATOM     59  H91 UNL     1      11.994  17.104   4.310  1.00  0.00     0.157 HD
ENDBRANCH  52  57
ENDBRANCH   1  46
TORSDOF 23
ENDMDL
MODEL 3
REMARK VINA RESULT: -6.815754164      2.567      6.104
REMARK  23 active torsions:
REMARK  status: ('A' for Active; 'I' for Inactive)
REMARK    1  A    between atoms: N1_2  and  C2_3 
REMARK    2  A    between atoms: N1_2  and  C14_46 
REMARK    3  A    between atoms: C2_3  and  C3_4 
REMARK    4  A    between atoms: C3_4  and  O1_5 
REMARK    5  A    between atoms: C4_7  and  C5_8 
REMARK    6  A    between atoms: C5_8  and  N2_9 
REMARK    7  A    between atoms: C5_8  and  C6_15 
REMARK    8  A    between atoms: N2_9  and  N3_11 
REMARK    9  A    between atoms: N3_11  and  N4_12 
REMARK   10  A    between atoms: C6_15  and  N5_16 
REMARK   11  A    between atoms: C6_15  and  C11_32 
REMARK   12  A    between atoms: N5_16  and  O2_17 
REMARK   13  A    between atoms: O2_17  and  C7_18 
REMARK   14  A    between atoms: C7_18  and  C8_19 
REMARK   15  A    between atoms: C8_19  and  O3_20 
REMARK   16  A    between atoms: C8_19  and  C9_22 
REMARK   17  A    between atoms: C9_22  and  N6_23 
REMARK   18  A    between atoms: C9_22  and  C10_27 
REMARK   19  A    between atoms: C10_27  and  O4_28 
REMARK   20  A    between atoms: C10_27  and  O5_30 
REMARK   21  A    between atoms: C12_37  and  O6_38 
REMARK   22  A    between atoms: C13_40  and  N9_41 
REMARK   23  A    between atoms: C14_46  and  C15_47 
ROOT
HETATM    1  C6  UNL     1      14.272  16.102   7.582  1.00  0.00     0.204 C 
ENDROOT
BRANCH   1   2
HETATM    2  C5  UNL     1      14.023  17.064   8.744  1.00  0.00     0.168 C 
BRANCH   2   3
HETATM    3  C4  UNL     1      14.946  18.194   8.773  1.00  0.00     0.036 C 
HETATM    4  C3  UNL     1      15.661  18.446   9.845  1.00  0.00     0.070 C 
BRANCH   4   5
HETATM    5  C2  UNL     1      16.618  19.594   9.920  1.00  0.00     0.335 C 
BRANCH   5   6
HETATM    6  N1  UNL     1      15.982  20.743   9.363  1.00  0.00     0.095 N 
HETATM    7  C1  UNL     1      16.823  21.557   8.550  1.00  0.00     0.310 C 
BRANCH   6   8
HETATM    8  C14 UNL     1      15.155  21.465  10.284  1.00  0.00     0.330 C 
BRANCH   8   9
HETATM    9  C15 UNL     1      13.805  21.744   9.792  1.00  0.00     0.053 A 
HETATM   10  C16 UNL     1      12.777  20.909  10.176  1.00  0.00     0.115 A 
HETATM   11  N11 UNL     1      11.503  21.118   9.749  1.00  0.00    -0.364 N 
HETATM   12  C17 UNL     1      11.199  22.142   8.941  1.00  0.00     0.049 A 
ATOM     13  H11 UNL     1      10.764  20.482  10.050  1.00  0.00     0.165 HD
HETATM   14  C18 UNL     1      12.227  22.987   8.551  1.00  0.00     0.035 A 
HETATM   15  C21 UNL     1       9.849  22.436   8.438  1.00  0.00     0.173 C 
HETATM   16  N12 UNL     1      13.483  22.767   8.980  1.00  0.00    -0.359 N 
HETATM   17  C19 UNL     1      11.843  24.106   7.651  1.00  0.00     0.078 C 
ATOM     18  H12 UNL     1      14.221  23.403   8.678  1.00  0.00     0.165 HD
HETATM   19  C20 UNL     1      10.980  23.462   6.558  1.00  0.00     0.120 C 
HETATM   20  N13 UNL     1       9.784  22.881   7.082  1.00  0.00    -0.416 N 
ATOM     21  H13 UNL     1       8.936  22.790   6.522  1.00  0.00     0.153 HD
ENDBRANCH   8   9
ENDBRANCH   6   8
ENDBRANCH   5   6
ENDBRANCH   4   5
BRANCH   4  22
HETATM   22  O1  UNL     1      15.522  17.617  10.947  1.00  0.00    -0.363 OA
ATOM     23  H1  UNL     1      16.267  17.098  11.227  1.00  0.00     0.217 HD
ENDBRANCH   4  22
ENDBRANCH   2   3
BRANCH   2  24
HETATM   24  N2  UNL     1      12.672  17.619   8.588  1.00  0.00    -0.242 N 
ATOM     25  H2  UNL     1      12.380  17.979   7.680  1.00  0.00     0.197 HD
BRANCH  24  26
HETATM   26  N3  UNL     1      11.883  17.656   9.538  1.00  0.00    -0.248 NA
BRANCH  26  27
HETATM   27  N4  UNL     1      10.967  17.436  10.319  1.00  0.00    -0.261 N 
ATOM     28  H42 UNL     1      10.492  16.797   9.683  1.00  0.00     0.193 HD
ATOM     29  H41 UNL     1      10.347  17.428  11.129  1.00  0.00     0.193 HD
ENDBRANCH  26  27
ENDBRANCH  24  26
ENDBRANCH   2  24
ENDBRANCH   1   2
BRANCH   1  30
HETATM   30  N5  UNL     1      14.014  16.866   6.378  1.00  0.00    -0.086 NA
BRANCH  30  31
HETATM   31  O2  UNL     1      12.987  16.399   5.666  1.00  0.00    -0.283 OA
BRANCH  31  32
HETATM   32  C7  UNL     1      12.306  17.438   5.079  1.00  0.00     0.229 C 
BRANCH  32  33
HETATM   33  C8  UNL     1      10.902  17.622   5.564  1.00  0.00     0.179 C 
BRANCH  33  34
HETATM   34  O3  UNL     1      10.737  16.849   6.712  1.00  0.00    -0.391 OA
ATOM     35  H3  UNL     1       9.816  16.631   6.791  1.00  0.00     0.210 HD
ENDBRANCH  33  34
BRANCH  33  36
HETATM   36  C9  UNL     1      10.538  19.032   5.887  1.00  0.00     0.268 C 
BRANCH  36  37
HETATM   37  N6  UNL     1      11.666  19.839   6.286  1.00  0.00    -0.068 N 
ATOM     38  H63 UNL     1      12.087  19.473   7.140  1.00  0.00     0.275 HD
ATOM     39  H62 UNL     1      12.447  19.711   5.643  1.00  0.00     0.275 HD
ATOM     40  H61 UNL     1      11.440  20.829   6.389  1.00  0.00     0.275 HD
ENDBRANCH  36  37
BRANCH  36  41
HETATM   41  C10 UNL     1       9.394  19.127   6.875  1.00  0.00     0.286 C 
BRANCH  41  42
HETATM   42  O4  UNL     1       8.395  18.199   6.587  1.00  0.00    -0.369 OA
ATOM     43  H4  UNL     1       7.587  18.407   7.041  1.00  0.00     0.212 HD
ENDBRANCH  41  42
BRANCH  41  44
HETATM   44  O5  UNL     1       9.782  18.947   8.181  1.00  0.00    -0.369 OA
ATOM     45  H5  UNL     1       9.397  18.180   8.588  1.00  0.00     0.212 HD
ENDBRANCH  41  44
ENDBRANCH  36  41
ENDBRANCH  33  36
ENDBRANCH  32  33
ENDBRANCH  31  32
ENDBRANCH  30  31
ENDBRANCH   1  30
BRANCH   1  46
HETATM   46  C11 UNL     1      13.433  14.901   7.678  1.00  0.00     0.122 A 
HETATM   47  N7  UNL     1      13.678  13.789   6.956  1.00  0.00    -0.285 N 
HETATM   48  N8  UNL     1      12.965  12.699   7.001  1.00  0.00    -0.276 N 
ATOM     49  H7  UNL     1      14.481  13.802   6.327  1.00  0.00     0.188 HD
HETATM   50  C12 UNL     1      11.906  12.671   7.826  1.00  0.00     0.200 A 
ATOM     51  H8  UNL     1      13.205  11.890   6.426  1.00  0.00     0.189 HD
HETATM   52  C13 UNL     1      11.593  13.765   8.592  1.00  0.00     0.153 A 
HETATM   53  N10 UNL     1      12.355  14.850   8.506  1.00  0.00    -0.326 N 
ATOM     54  H10 UNL     1      12.125  15.665   9.074  1.00  0.00     0.169 HD
BRANCH  50  55
HETATM   55  O6  UNL     1      11.105  11.537   7.918  1.00  0.00    -0.342 OA
ATOM     56  H6  UNL     1      10.177  11.579   7.720  1.00  0.00     0.219 HD
ENDBRANCH  50  55
BRANCH  52  57
HETATM   57  N9  UNL     1      10.576  13.727   9.378  1.00  0.00    -0.382 N 
ATOM     58  H92 UNL     1      10.350  12.886   9.908  1.00  0.00     0.157 HD
ATOM     59  H91 UNL     1       9.980  14.549   9.478  1.00  0.00     0.157 HD
ENDBRANCH  52  57
ENDBRANCH   1  46
TORSDOF 23
ENDMDL
MODEL 4
REMARK VINA RESULT: -6.786002981      2.814      4.990
REMARK  23 active torsions:
REMARK  status: ('A' for Active; 'I' for Inactive)
REMARK    1  A    between atoms: N1_2  and  C2_3 
REMARK    2  A    between atoms: N1_2  and  C14_46 
REMARK    3  A    between atoms: C2_3  and  C3_4 
REMARK    4  A    between atoms: C3_4  and  O1_5 
REMARK    5  A    between atoms: C4_7  and  C5_8 
REMARK    6  A    between atoms: C5_8  and  N2_9 
REMARK    7  A    between atoms: C5_8  and  C6_15 
REMARK    8  A    between atoms: N2_9  and  N3_11 
REMARK    9  A    between atoms: N3_11  and  N4_12 
REMARK   10  A    between atoms: C6_15  and  N5_16 
REMARK   11  A    between atoms: C6_15  and  C11_32 
REMARK   12  A    between atoms: N5_16  and  O2_17 
REMARK   13  A    between atoms: O2_17  and  C7_18 
REMARK   14  A    between atoms: C7_18  and  C8_19 
REMARK   15  A    between atoms: C8_19  and  O3_20 
REMARK   16  A    between atoms: C8_19  and  C9_22 
REMARK   17  A    between atoms: C9_22  and  N6_23 
REMARK   18  A    between atoms: C9_22  and  C10_27 
REMARK   19  A    between atoms: C10_27  and  O4_28 
REMARK   20  A    between atoms: C10_27  and  O5_30 
REMARK   21  A    between atoms: C12_37  and  O6_38 
REMARK   22  A    between atoms: C13_40  and  N9_41 
REMARK   23  A    between atoms: C14_46  and  C15_47 
ROOT
HETATM    1  C6  UNL     1       9.517  17.247   8.890  1.00  0.00     0.204 C 
ENDROOT
BRANCH   1   2
HETATM    2  C5  UNL     1      10.191  17.813  10.140  1.00  0.00     0.168 C 
BRANCH   2   3
HETATM    3  C4  UNL     1      11.309  18.705   9.846  1.00  0.00     0.036 C 
HETATM    4  C3  UNL     1      12.546  18.271   9.911  1.00  0.00     0.070 C 
BRANCH   4   5
HETATM    5  C2  UNL     1      13.721  19.150   9.619  1.00  0.00     0.335 C 
BRANCH   5   6
HETATM    6  N1  UNL     1      13.802  19.332   8.206  1.00  0.00     0.095 N 
HETATM    7  C1  UNL     1      14.443  18.271   7.503  1.00  0.00     0.310 C 
BRANCH   6   8
HETATM    8  C14 UNL     1      14.201  20.648   7.802  1.00  0.00     0.330 C 
BRANCH   8   9
HETATM    9  C15 UNL     1      13.092  21.517   7.402  1.00  0.00     0.053 A 
HETATM   10  C16 UNL     1      13.072  22.008   6.113  1.00  0.00     0.115 A 
HETATM   11  N11 UNL     1      12.069  22.820   5.685  1.00  0.00    -0.364 N 
HETATM   12  C17 UNL     1      11.064  23.172   6.497  1.00  0.00     0.049 A 
ATOM     13  H11 UNL     1      12.082  23.168   4.726  1.00  0.00     0.165 HD
HETATM   14  C18 UNL     1      11.077  22.681   7.794  1.00  0.00     0.035 A 
HETATM   15  C21 UNL     1       9.944  24.043   6.110  1.00  0.00     0.173 C 
HETATM   16  N12 UNL     1      12.076  21.880   8.205  1.00  0.00    -0.359 N 
HETATM   17  C19 UNL     1       9.943  23.103   8.660  1.00  0.00     0.078 C 
ATOM     18  H12 UNL     1      12.062  21.533   9.164  1.00  0.00     0.165 HD
HETATM   19  C20 UNL     1       9.830  24.620   8.460  1.00  0.00     0.120 C 
HETATM   20  N13 UNL     1       9.513  24.967   7.110  1.00  0.00    -0.416 N 
ATOM     21  H13 UNL     1       9.010  25.823   6.876  1.00  0.00     0.153 HD
ENDBRANCH   8   9
ENDBRANCH   6   8
ENDBRANCH   5   6
ENDBRANCH   4   5
BRANCH   4  22
HETATM   22  O1  UNL     1      12.770  16.949  10.264  1.00  0.00    -0.363 OA
ATOM     23  H1  UNL     1      12.328  16.264   9.777  1.00  0.00     0.217 HD
ENDBRANCH   4  22
ENDBRANCH   2   3
BRANCH   2  24
HETATM   24  N2  UNL     1       9.193  18.604  10.872  1.00  0.00    -0.242 N 
ATOM     25  H2  UNL     1       8.585  19.241  10.358  1.00  0.00     0.197 HD
BRANCH  24  26
HETATM   26  N3  UNL     1       9.079  18.511  12.098  1.00  0.00    -0.248 NA
BRANCH  26  27
HETATM   27  N4  UNL     1       9.193  18.658  13.308  1.00  0.00    -0.261 N 
ATOM     28  H42 UNL     1       8.227  18.960  13.428  1.00  0.00     0.193 HD
ATOM     29  H41 UNL     1       9.546  18.697  14.263  1.00  0.00     0.193 HD
ENDBRANCH  26  27
ENDBRANCH  24  26
ENDBRANCH   2  24
ENDBRANCH   1   2
BRANCH   1  30
HETATM   30  N5  UNL     1       9.937  15.862   8.812  1.00  0.00    -0.086 NA
BRANCH  30  31
HETATM   31  O2  UNL     1      10.555  15.435   9.914  1.00  0.00    -0.283 OA
BRANCH  31  32
HETATM   32  C7  UNL     1      10.149  14.159  10.222  1.00  0.00     0.229 C 
BRANCH  32  33
HETATM   33  C8  UNL     1      10.895  13.074   9.511  1.00  0.00     0.179 C 
BRANCH  33  34
HETATM   34  O3  UNL     1      10.359  12.947   8.231  1.00  0.00    -0.391 OA
ATOM     35  H3  UNL     1      11.049  13.128   7.604  1.00  0.00     0.210 HD
ENDBRANCH  33  34
BRANCH  33  36
HETATM   36  C9  UNL     1      12.362  13.309   9.389  1.00  0.00     0.268 C 
BRANCH  36  37
HETATM   37  N6  UNL     1      12.897  14.156  10.427  1.00  0.00    -0.068 N 
ATOM     38  H63 UNL     1      12.598  15.122  10.296  1.00  0.00     0.275 HD
ATOM     39  H62 UNL     1      12.447  13.959  11.321  1.00  0.00     0.275 HD
ATOM     40  H61 UNL     1      13.912  14.101  10.514  1.00  0.00     0.275 HD
ENDBRANCH  36  37
BRANCH  36  41
HETATM   41  C10 UNL     1      12.763  13.784   8.007  1.00  0.00     0.286 C 
BRANCH  41  42
HETATM   42  O4  UNL     1      12.574  15.158   7.867  1.00  0.00    -0.369 OA
ATOM     43  H4  UNL     1      11.907  15.352   7.220  1.00  0.00     0.212 HD
ENDBRANCH  41  42
BRANCH  41  44
HETATM   44  O5  UNL     1      14.069  13.497   7.686  1.00  0.00    -0.369 OA
ATOM     45  H5  UNL     1      14.682  14.166   7.964  1.00  0.00     0.212 HD
ENDBRANCH  41  44
ENDBRANCH  36  41
ENDBRANCH  33  36
ENDBRANCH  32  33
ENDBRANCH  31  32
ENDBRANCH  30  31
ENDBRANCH   1  30
BRANCH   1  46
HETATM   46  C11 UNL     1       9.867  18.011   7.687  1.00  0.00     0.122 A 
HETATM   47  N7  UNL     1       9.205  19.128   7.322  1.00  0.00    -0.285 N 
HETATM   48  N8  UNL     1       9.473  19.841   6.264  1.00  0.00    -0.276 N 
ATOM     49  H7  UNL     1       8.438  19.437   7.918  1.00  0.00     0.188 HD
HETATM   50  C12 UNL     1      10.482  19.442   5.473  1.00  0.00     0.200 A 
ATOM     51  H8  UNL     1       8.932  20.678   6.044  1.00  0.00     0.189 HD
HETATM   52  C13 UNL     1      11.201  18.315   5.778  1.00  0.00     0.153 A 
HETATM   53  N10 UNL     1      10.884  17.626   6.869  1.00  0.00    -0.326 N 
ATOM     54  H10 UNL     1      11.416  16.787   7.099  1.00  0.00     0.169 HD
BRANCH  50  55
HETATM   55  O6  UNL     1      10.816  20.161   4.328  1.00  0.00    -0.342 OA
ATOM     56  H6  UNL     1      11.724  20.341   4.115  1.00  0.00     0.219 HD
ENDBRANCH  50  55
BRANCH  52  57
HETATM   57  N9  UNL     1      12.164  17.942   5.013  1.00  0.00    -0.382 N 
ATOM     58  H92 UNL     1      12.340  18.407   4.123  1.00  0.00     0.157 HD
ATOM     59  H91 UNL     1      12.766  17.168   5.293  1.00  0.00     0.157 HD
ENDBRANCH  52  57
ENDBRANCH   1  46
TORSDOF 23
ENDMDL
MODEL 5
REMARK VINA RESULT: -6.747204575      3.115      5.195
REMARK  23 active torsions:
REMARK  status: ('A' for Active; 'I' for Inactive)
REMARK    1  A    between atoms: N1_2  and  C2_3 
REMARK    2  A    between atoms: N1_2  and  C14_46 
REMARK    3  A    between atoms: C2_3  and  C3_4 
REMARK    4  A    between atoms: C3_4  and  O1_5 
REMARK    5  A    between atoms: C4_7  and  C5_8 
REMARK    6  A    between atoms: C5_8  and  N2_9 
REMARK    7  A    between atoms: C5_8  and  C6_15 
REMARK    8  A    between atoms: N2_9  and  N3_11 
REMARK    9  A    between atoms: N3_11  and  N4_12 
REMARK   10  A    between atoms: C6_15  and  N5_16 
REMARK   11  A    between atoms: C6_15  and  C11_32 
REMARK   12  A    between atoms: N5_16  and  O2_17 
REMARK   13  A    between atoms: O2_17  and  C7_18 
REMARK   14  A    between atoms: C7_18  and  C8_19 
REMARK   15  A    between atoms: C8_19  and  O3_20 
REMARK   16  A    between atoms: C8_19  and  C9_22 
REMARK   17  A    between atoms: C9_22  and  N6_23 
REMARK   18  A    between atoms: C9_22  and  C10_27 
REMARK   19  A    between atoms: C10_27  and  O4_28 
REMARK   20  A    between atoms: C10_27  and  O5_30 
REMARK   21  A    between atoms: C12_37  and  O6_38 
REMARK   22  A    between atoms: C13_40  and  N9_41 
REMARK   23  A    between atoms: C14_46  and  C15_47 
ROOT
HETATM    1  C6  UNL     1      11.110  17.270   9.297  1.00  0.00     0.204 C 
ENDROOT
BRANCH   1   2
HETATM    2  C5  UNL     1      11.655  17.019   7.891  1.00  0.00     0.168 C 
BRANCH   2   3
HETATM    3  C4  UNL     1      11.419  18.124   6.968  1.00  0.00     0.036 C 
HETATM    4  C3  UNL     1      10.376  18.118   6.171  1.00  0.00     0.070 C 
BRANCH   4   5
HETATM    5  C2  UNL     1      10.095  19.229   5.209  1.00  0.00     0.335 C 
BRANCH   5   6
HETATM    6  N1  UNL     1       9.968  20.441   5.951  1.00  0.00     0.095 N 
HETATM    7  C1  UNL     1       8.635  20.773   6.331  1.00  0.00     0.310 C 
BRANCH   6   8
HETATM    8  C14 UNL     1      10.735  21.535   5.431  1.00  0.00     0.330 C 
BRANCH   8   9
HETATM    9  C15 UNL     1      11.748  22.053   6.353  1.00  0.00     0.053 A 
HETATM   10  C16 UNL     1      11.516  23.262   6.975  1.00  0.00     0.115 A 
HETATM   11  N11 UNL     1      12.420  23.793   7.840  1.00  0.00    -0.364 N 
HETATM   12  C17 UNL     1      13.568  23.163   8.121  1.00  0.00     0.049 A 
ATOM     13  H11 UNL     1      12.221  24.690   8.285  1.00  0.00     0.165 HD
HETATM   14  C18 UNL     1      13.808  21.946   7.500  1.00  0.00     0.035 A 
HETATM   15  C21 UNL     1      14.594  23.669   9.045  1.00  0.00     0.173 C 
HETATM   16  N12 UNL     1      12.905  21.433   6.646  1.00  0.00    -0.359 N 
HETATM   17  C19 UNL     1      15.097  21.287   7.839  1.00  0.00     0.078 C 
ATOM     18  H12 UNL     1      13.106  20.537   6.201  1.00  0.00     0.165 HD
HETATM   19  C20 UNL     1      16.156  22.389   7.708  1.00  0.00     0.120 C 
HETATM   20  N13 UNL     1      15.946  23.457   8.634  1.00  0.00    -0.416 N 
ATOM     21  H13 UNL     1      16.714  24.031   8.980  1.00  0.00     0.153 HD
ENDBRANCH   8   9
ENDBRANCH   6   8
ENDBRANCH   5   6
ENDBRANCH   4   5
BRANCH   4  22
HETATM   22  O1  UNL     1       9.504  17.042   6.225  1.00  0.00    -0.363 OA
ATOM     23  H1  UNL     1       9.019  16.884   7.026  1.00  0.00     0.217 HD
ENDBRANCH   4  22
ENDBRANCH   2   3
BRANCH   2  24
HETATM   24  N2  UNL     1      13.111  16.852   7.995  1.00  0.00    -0.242 N 
ATOM     25  H2  UNL     1      13.618  17.329   8.740  1.00  0.00     0.197 HD
BRANCH  24  26
HETATM   26  N3  UNL     1      13.732  16.143   7.196  1.00  0.00    -0.248 NA
BRANCH  26  27
HETATM   27  N4  UNL     1      14.081  15.499   6.216  1.00  0.00    -0.261 N 
ATOM     28  H42 UNL     1      13.145  15.483   5.813  1.00  0.00     0.193 HD
ATOM     29  H41 UNL     1      14.618  14.977   5.523  1.00  0.00     0.193 HD
ENDBRANCH  26  27
ENDBRANCH  24  26
ENDBRANCH   2  24
ENDBRANCH   1   2
BRANCH   1  30
HETATM   30  N5  UNL     1       9.784  16.685   9.314  1.00  0.00    -0.086 NA
BRANCH  30  31
HETATM   31  O2  UNL     1       9.777  15.385   9.014  1.00  0.00    -0.283 OA
BRANCH  31  32
HETATM   32  C7  UNL     1       9.986  14.635  10.147  1.00  0.00     0.229 C 
BRANCH  32  33
HETATM   33  C8  UNL     1      10.533  13.265   9.900  1.00  0.00     0.179 C 
BRANCH  33  34
HETATM   34  O3  UNL     1       9.804  12.688   8.862  1.00  0.00    -0.391 OA
ATOM     35  H3  UNL     1       9.881  11.744   8.936  1.00  0.00     0.210 HD
ENDBRANCH  33  34
BRANCH  33  36
HETATM   36  C9  UNL     1      11.979  13.231   9.538  1.00  0.00     0.268 C 
BRANCH  36  37
HETATM   37  N6  UNL     1      12.728  14.348  10.060  1.00  0.00    -0.068 N 
ATOM     38  H63 UNL     1      12.273  14.733  10.888  1.00  0.00     0.275 HD
ATOM     39  H62 UNL     1      13.603  14.033  10.478  1.00  0.00     0.275 HD
ATOM     40  H61 UNL     1      12.900  15.080   9.369  1.00  0.00     0.275 HD
ENDBRANCH  36  37
BRANCH  36  41
HETATM   41  C10 UNL     1      12.203  13.043   8.051  1.00  0.00     0.286 C 
BRANCH  41  42
HETATM   42  O4  UNL     1      11.558  14.032   7.310  1.00  0.00    -0.369 OA
ATOM     43  H4  UNL     1      11.889  14.071   6.422  1.00  0.00     0.212 HD
ENDBRANCH  41  42
BRANCH  41  44
HETATM   44  O5  UNL     1      13.531  13.038   7.694  1.00  0.00    -0.369 OA
ATOM     45  H5  UNL     1      13.885  12.166   7.568  1.00  0.00     0.212 HD
ENDBRANCH  41  44
ENDBRANCH  36  41
ENDBRANCH  33  36
ENDBRANCH  32  33
ENDBRANCH  31  32
ENDBRANCH  30  31
ENDBRANCH   1  30
BRANCH   1  46
HETATM   46  C11 UNL     1      11.100  18.700   9.632  1.00  0.00     0.122 A 
HETATM   47  N7  UNL     1      10.046  19.497   9.365  1.00  0.00    -0.285 N 
HETATM   48  N8  UNL     1       9.986  20.770   9.638  1.00  0.00    -0.276 N 
ATOM     49  H7  UNL     1       9.235  19.072   8.915  1.00  0.00     0.188 HD
HETATM   50  C12 UNL     1      11.049  21.339  10.229  1.00  0.00     0.200 A 
ATOM     51  H8  UNL     1       9.157  21.318   9.409  1.00  0.00     0.189 HD
HETATM   52  C13 UNL     1      12.159  20.592  10.531  1.00  0.00     0.153 A 
HETATM   53  N10 UNL     1      12.165  19.298  10.230  1.00  0.00    -0.326 N 
ATOM     54  H10 UNL     1      12.989  18.740  10.452  1.00  0.00     0.169 HD
BRANCH  50  55
HETATM   55  O6  UNL     1      11.047  22.695  10.545  1.00  0.00    -0.342 OA
ATOM     56  H6  UNL     1      11.266  23.347   9.890  1.00  0.00     0.219 HD
ENDBRANCH  50  55
BRANCH  52  57
HETATM   57  N9  UNL     1      13.171  21.148  11.097  1.00  0.00    -0.382 N 
ATOM     58  H92 UNL     1      13.049  21.898  11.776  1.00  0.00     0.157 HD
ATOM     59  H91 UNL     1      14.115  20.839  10.867  1.00  0.00     0.157 HD
ENDBRANCH  52  57
ENDBRANCH   1  46
TORSDOF 23
ENDMDL
