MODEL 1
REMARK VINA RESULT: -8.909935178      0.000      0.000
REMARK  16 active torsions:
REMARK  status: ('A' for Active; 'I' for Inactive)
REMARK    1  A    between atoms: C2_2  and  N1_3 
REMARK    2  A    between atoms: C6_7  and  O1_8 
REMARK    3  A    between atoms: C7_10  and  C8_11 
REMARK    4  A    between atoms: C8_11  and  C9_12 
REMARK    5  A    between atoms: C9_12  and  C10_13 
REMARK    6  A    between atoms: N5_25  and  C16_26 
REMARK    7  A    between atoms: C16_26  and  C17_27 
REMARK    8  A    between atoms: C17_27  and  C18_28 
REMARK    9  A    between atoms: C18_28  and  C19_29 
REMARK   10  A    between atoms: C19_29  and  C20_30 
REMARK   11  A    between atoms: C20_30  and  C21_31 
REMARK   12  A    between atoms: C21_31  and  N6_32 
REMARK   13  A    between atoms: C24_35  and  C25_36 
REMARK       I    between atoms: C25_36  and  N7_38 
REMARK   14  A    between atoms: N7_38  and  C26_40 
REMARK   15  A    between atoms: C26_40  and  C27_41 
REMARK   16  A    between atoms: C27_41  and  O4_42 
ROOT
HETATM    1  N1  UNL     1      -9.396  15.681  24.713  1.00  0.00    -0.366 N 
HETATM    2  C3  UNL     1     -10.552  16.361  24.645  1.00  0.00     0.091 A 
HETATM    3  C4  UNL     1     -11.332  16.453  25.778  1.00  0.00     0.032 A 
HETATM    4  C5  UNL     1     -10.971  15.874  26.975  1.00  0.00     0.017 A 
HETATM    5  C6  UNL     1     -11.727  15.952  28.121  1.00  0.00     0.099 A 
HETATM    6  C7  UNL     1     -11.299  15.341  29.306  1.00  0.00     0.049 A 
HETATM    7  N5  UNL     1     -10.149  14.676  29.331  1.00  0.00    -0.315 N 
HETATM    8  C30 UNL     1      -9.414  14.603  28.213  1.00  0.00     0.260 A 
HETATM    9  O5  UNL     1      -8.315  13.965  28.249  1.00  0.00    -0.267 OA
HETATM   10  C31 UNL     1      -9.781  15.182  27.023  1.00  0.00     0.061 A 
HETATM   11  C32 UNL     1      -9.030  15.112  25.869  1.00  0.00     0.108 A 
ENDROOT
BRANCH   7  12
HETATM   12  C16 UNL     1      -9.713  14.028  30.518  1.00  0.00     0.132 C 
BRANCH  12  13
HETATM   13  C17 UNL     1      -8.542  14.788  31.074  1.00  0.00     0.020 C 
BRANCH  13  14
HETATM   14  C18 UNL     1      -8.940  15.632  32.294  1.00  0.00     0.002 C 
BRANCH  14  15
HETATM   15  C19 UNL     1      -8.253  16.971  32.226  1.00  0.00     0.002 C 
BRANCH  15  16
HETATM   16  C20 UNL     1      -7.596  17.258  30.917  1.00  0.00     0.020 C 
BRANCH  16  17
HETATM   17  C21 UNL     1      -8.529  17.811  29.893  1.00  0.00     0.128 C 
BRANCH  17  18
HETATM   18  N6  UNL     1      -7.955  17.920  28.584  1.00  0.00    -0.366 N 
HETATM   19  C22 UNL     1      -8.588  18.569  27.602  1.00  0.00     0.091 A 
HETATM   20  C23 UNL     1      -8.090  18.677  26.303  1.00  0.00     0.034 A 
HETATM   21  C24 UNL     1      -6.882  18.086  26.007  1.00  0.00     0.034 A 
HETATM   22  C28 UNL     1      -6.219  17.420  26.995  1.00  0.00     0.034 A 
HETATM   23  C29 UNL     1      -6.764  17.346  28.268  1.00  0.00     0.091 A 
BRANCH  21  24
HETATM   24  C25 UNL     1      -6.310  18.161  24.646  1.00  0.00     0.251 C 
HETATM   25  O3  UNL     1      -5.209  17.592  24.402  1.00  0.00    -0.268 OA
HETATM   26  N7  UNL     1      -6.989  18.863  23.643  1.00  0.00    -0.355 N 
ATOM     27  H7  UNL     1      -7.875  19.287  23.918  1.00  0.00     0.162 HD
BRANCH  26  28
HETATM   28  C26 UNL     1      -6.599  19.063  22.283  1.00  0.00     0.148 C 
BRANCH  28  29
HETATM   29  C27 UNL     1      -7.081  18.055  21.298  1.00  0.00     0.183 C 
BRANCH  29  30
HETATM   30  O4  UNL     1      -8.017  18.465  20.390  1.00  0.00    -0.399 OA
ATOM     31  H4  UNL     1      -8.930  18.314  20.608  1.00  0.00     0.209 HD
ENDBRANCH  29  30
ENDBRANCH  28  29
ENDBRANCH  26  28
ENDBRANCH  21  24
ENDBRANCH  17  18
ENDBRANCH  16  17
ENDBRANCH  15  16
ENDBRANCH  14  15
ENDBRANCH  13  14
ENDBRANCH  12  13
ENDBRANCH   7  12
BRANCH   6  32
HETATM   32  C8  UNL     1     -12.124  15.470  30.502  1.00  0.00     0.066 C 
BRANCH  32  33
HETATM   33  C9  UNL     1     -13.218  14.419  30.399  1.00  0.00     0.065 C 
BRANCH  33  34
HETATM   34  C10 UNL     1     -13.290  13.572  31.634  1.00  0.00     0.034 A 
HETATM   35  C11 UNL     1     -13.497  13.993  32.928  1.00  0.00     0.115 A 
HETATM   36  N2  UNL     1     -13.482  12.890  33.691  1.00  0.00    -0.345 N 
HETATM   37  C12 UNL     1     -13.277  11.801  32.938  1.00  0.00     0.181 A 
ATOM     38  H2  UNL     1     -13.608  12.881  34.703  1.00  0.00     0.167 HD
HETATM   39  C13 UNL     1     -13.177  10.442  33.220  1.00  0.00     0.290 A 
HETATM   40  N4  UNL     1     -13.160  12.238  31.675  1.00  0.00    -0.305 N 
HETATM   41  O2  UNL     1     -13.290  10.066  34.412  1.00  0.00    -0.264 OA
HETATM   42  N3  UNL     1     -12.963   9.603  32.193  1.00  0.00    -0.329 N 
HETATM   43  C14 UNL     1     -12.844  10.015  30.931  1.00  0.00     0.109 A 
ATOM     44  H3  UNL     1     -12.887   8.605  32.388  1.00  0.00     0.168 HD
HETATM   45  C15 UNL     1     -12.943  11.364  30.647  1.00  0.00     0.116 A 
ENDBRANCH  33  34
ENDBRANCH  32  33
ENDBRANCH   6  32
BRANCH   5  46
HETATM   46  O1  UNL     1     -12.912  16.641  28.080  1.00  0.00    -0.358 OA
ATOM     47  H1  UNL     1     -13.300  16.926  28.898  1.00  0.00     0.217 HD
ENDBRANCH   5  46
BRANCH   1  48
HETATM   48  C2  UNL     1      -8.509  15.536  23.573  1.00  0.00     0.123 C 
HETATM   49  C1  UNL     1      -9.183  15.037  22.339  1.00  0.00     0.027 C 
ENDBRANCH   1  48
TORSDOF 16
ENDMDL
MODEL 2
REMARK VINA RESULT: -8.865903182      0.732      1.470
REMARK  16 active torsions:
REMARK  status: ('A' for Active; 'I' for Inactive)
REMARK    1  A    between atoms: C2_2  and  N1_3 
REMARK    2  A    between atoms: C6_7  and  O1_8 
REMARK    3  A    between atoms: C7_10  and  C8_11 
REMARK    4  A    between atoms: C8_11  and  C9_12 
REMARK    5  A    between atoms: C9_12  and  C10_13 
REMARK    6  A    between atoms: N5_25  and  C16_26 
REMARK    7  A    between atoms: C16_26  and  C17_27 
REMARK    8  A    between atoms: C17_27  and  C18_28 
REMARK    9  A    between atoms: C18_28  and  C19_29 
REMARK   10  A    between atoms: C19_29  and  C20_30 
REMARK   11  A    between atoms: C20_30  and  C21_31 
REMARK   12  A    between atoms: C21_31  and  N6_32 
REMARK   13  A    between atoms: C24_35  and  C25_36 
REMARK       I    between atoms: C25_36  and  N7_38 
REMARK   14  A    between atoms: N7_38  and  C26_40 
REMARK   15  A    between atoms: C26_40  and  C27_41 
REMARK   16  A    between atoms: C27_41  and  O4_42 
ROOT
HETATM    1  N1  UNL     1      -9.353  15.665  24.966  1.00  0.00    -0.366 N 
HETATM    2  C3  UNL     1     -10.541  16.267  24.791  1.00  0.00     0.091 A 
HETATM    3  C4  UNL     1     -11.416  16.324  25.856  1.00  0.00     0.032 A 
HETATM    4  C5  UNL     1     -11.118  15.786  27.088  1.00  0.00     0.017 A 
HETATM    5  C6  UNL     1     -11.970  15.830  28.167  1.00  0.00     0.099 A 
HETATM    6  C7  UNL     1     -11.603  15.265  29.395  1.00  0.00     0.049 A 
HETATM    7  N5  UNL     1     -10.418  14.677  29.526  1.00  0.00    -0.315 N 
HETATM    8  C30 UNL     1      -9.590  14.636  28.473  1.00  0.00     0.260 A 
HETATM    9  O5  UNL     1      -8.460  14.072  28.610  1.00  0.00    -0.267 OA
HETATM   10  C31 UNL     1      -9.894  15.173  27.246  1.00  0.00     0.061 A 
HETATM   11  C32 UNL     1      -9.048  15.136  26.159  1.00  0.00     0.108 A 
ENDROOT
BRANCH   7  12
HETATM   12  C16 UNL     1     -10.041  14.075  30.757  1.00  0.00     0.132 C 
BRANCH  12  13
HETATM   13  C17 UNL     1      -9.932  15.150  31.800  1.00  0.00     0.020 C 
BRANCH  13  14
HETATM   14  C18 UNL     1      -8.509  15.247  32.370  1.00  0.00     0.002 C 
BRANCH  14  15
HETATM   15  C19 UNL     1      -7.998  16.655  32.214  1.00  0.00     0.002 C 
BRANCH  15  16
HETATM   16  C20 UNL     1      -7.393  16.945  30.880  1.00  0.00     0.020 C 
BRANCH  16  17
HETATM   17  C21 UNL     1      -8.298  17.703  29.969  1.00  0.00     0.128 C 
BRANCH  17  18
HETATM   18  N6  UNL     1      -7.797  17.834  28.632  1.00  0.00    -0.366 N 
HETATM   19  C22 UNL     1      -6.601  17.347  28.290  1.00  0.00     0.091 A 
HETATM   20  C23 UNL     1      -6.051  17.475  27.014  1.00  0.00     0.034 A 
HETATM   21  C24 UNL     1      -6.774  18.138  26.048  1.00  0.00     0.034 A 
HETATM   22  C28 UNL     1      -7.998  18.642  26.375  1.00  0.00     0.034 A 
HETATM   23  C29 UNL     1      -8.492  18.484  27.661  1.00  0.00     0.091 A 
BRANCH  21  24
HETATM   24  C25 UNL     1      -6.239  18.311  24.681  1.00  0.00     0.251 C 
HETATM   25  O3  UNL     1      -5.056  17.950  24.425  1.00  0.00    -0.268 OA
HETATM   26  N7  UNL     1      -7.045  18.877  23.685  1.00  0.00    -0.355 N 
ATOM     27  H7  UNL     1      -7.990  19.134  23.970  1.00  0.00     0.162 HD
BRANCH  26  28
HETATM   28  C26 UNL     1      -6.712  19.142  22.321  1.00  0.00     0.148 C 
BRANCH  28  29
HETATM   29  C27 UNL     1      -7.108  18.105  21.327  1.00  0.00     0.183 C 
BRANCH  29  30
HETATM   30  O4  UNL     1      -7.930  18.497  20.308  1.00  0.00    -0.399 OA
ATOM     31  H4  UNL     1      -8.786  18.088  20.257  1.00  0.00     0.209 HD
ENDBRANCH  29  30
ENDBRANCH  28  29
ENDBRANCH  26  28
ENDBRANCH  21  24
ENDBRANCH  17  18
ENDBRANCH  16  17
ENDBRANCH  15  16
ENDBRANCH  14  15
ENDBRANCH  13  14
ENDBRANCH  12  13
ENDBRANCH   7  12
BRANCH   6  32
HETATM   32  C8  UNL     1     -12.530  15.356  30.518  1.00  0.00     0.066 C 
BRANCH  32  33
HETATM   33  C9  UNL     1     -13.702  14.443  30.197  1.00  0.00     0.065 C 
BRANCH  33  34
HETATM   34  C10 UNL     1     -13.419  13.023  30.584  1.00  0.00     0.034 A 
HETATM   35  C11 UNL     1     -12.985  12.002  29.768  1.00  0.00     0.115 A 
HETATM   36  N2  UNL     1     -12.871  10.917  30.548  1.00  0.00    -0.345 N 
HETATM   37  C12 UNL     1     -13.210  11.209  31.811  1.00  0.00     0.181 A 
ATOM     38  H2  UNL     1     -12.569   9.998  30.225  1.00  0.00     0.167 HD
HETATM   39  C13 UNL     1     -13.264  10.469  32.988  1.00  0.00     0.290 A 
HETATM   40  N4  UNL     1     -13.545  12.509  31.816  1.00  0.00    -0.305 N 
HETATM   41  O2  UNL     1     -12.945   9.256  32.949  1.00  0.00    -0.264 OA
HETATM   42  N3  UNL     1     -13.659  11.098  34.107  1.00  0.00    -0.329 N 
HETATM   43  C14 UNL     1     -13.996  12.387  34.135  1.00  0.00     0.109 A 
ATOM     44  H3  UNL     1     -13.704  10.565  34.975  1.00  0.00     0.168 HD
HETATM   45  C15 UNL     1     -13.943  13.126  32.968  1.00  0.00     0.116 A 
ENDBRANCH  33  34
ENDBRANCH  32  33
ENDBRANCH   6  32
BRANCH   5  46
HETATM   46  O1  UNL     1     -13.188  16.440  28.017  1.00  0.00    -0.358 OA
ATOM     47  H1  UNL     1     -13.945  16.055  28.442  1.00  0.00     0.217 HD
ENDBRANCH   5  46
BRANCH   1  48
HETATM   48  C2  UNL     1      -8.368  15.562  23.905  1.00  0.00     0.123 C 
HETATM   49  C1  UNL     1      -8.852  14.836  22.695  1.00  0.00     0.027 C 
ENDBRANCH   1  48
TORSDOF 16
ENDMDL
MODEL 3
REMARK VINA RESULT: -8.768484277      0.893      1.256
REMARK  16 active torsions:
REMARK  status: ('A' for Active; 'I' for Inactive)
REMARK    1  A    between atoms: C2_2  and  N1_3 
REMARK    2  A    between atoms: C6_7  and  O1_8 
REMARK    3  A    between atoms: C7_10  and  C8_11 
REMARK    4  A    between atoms: C8_11  and  C9_12 
REMARK    5  A    between atoms: C9_12  and  C10_13 
REMARK    6  A    between atoms: N5_25  and  C16_26 
REMARK    7  A    between atoms: C16_26  and  C17_27 
REMARK    8  A    between atoms: C17_27  and  C18_28 
REMARK    9  A    between atoms: C18_28  and  C19_29 
REMARK   10  A    between atoms: C19_29  and  C20_30 
REMARK   11  A    between atoms: C20_30  and  C21_31 
REMARK   12  A    between atoms: C21_31  and  N6_32 
REMARK   13  A    between atoms: C24_35  and  C25_36 
REMARK       I    between atoms: C25_36  and  N7_38 
REMARK   14  A    between atoms: N7_38  and  C26_40 
REMARK   15  A    between atoms: C26_40  and  C27_41 
REMARK   16  A    between atoms: C27_41  and  O4_42 
ROOT
HETATM    1  N1  UNL     1      -9.364  15.692  24.616  1.00  0.00    -0.366 N 
HETATM    2  C3  UNL     1     -10.550  16.319  24.537  1.00  0.00     0.091 A 
HETATM    3  C4  UNL     1     -11.331  16.401  25.670  1.00  0.00     0.032 A 
HETATM    4  C5  UNL     1     -10.944  15.863  26.878  1.00  0.00     0.017 A 
HETATM    5  C6  UNL     1     -11.701  15.932  28.023  1.00  0.00     0.099 A 
HETATM    6  C7  UNL     1     -11.246  15.365  29.220  1.00  0.00     0.049 A 
HETATM    7  N5  UNL     1     -10.068  14.751  29.256  1.00  0.00    -0.315 N 
HETATM    8  C30 UNL     1      -9.331  14.687  28.139  1.00  0.00     0.260 A 
HETATM    9  O5  UNL     1      -8.206  14.099  28.185  1.00  0.00    -0.267 OA
HETATM   10  C31 UNL     1      -9.725  15.225  26.937  1.00  0.00     0.061 A 
HETATM   11  C32 UNL     1      -8.973  15.163  25.783  1.00  0.00     0.108 A 
ENDROOT
BRANCH   7  12
HETATM   12  C16 UNL     1      -9.602  14.148  30.456  1.00  0.00     0.132 C 
BRANCH  12  13
HETATM   13  C17 UNL     1      -9.435  15.219  31.495  1.00  0.00     0.020 C 
BRANCH  13  14
HETATM   14  C18 UNL     1      -8.100  15.961  31.338  1.00  0.00     0.002 C 
BRANCH  14  15
HETATM   15  C19 UNL     1      -8.363  17.400  30.977  1.00  0.00     0.002 C 
BRANCH  15  16
HETATM   16  C20 UNL     1      -8.192  17.710  29.527  1.00  0.00     0.020 C 
BRANCH  16  17
HETATM   17  C21 UNL     1      -6.875  17.276  28.978  1.00  0.00     0.128 C 
BRANCH  17  18
HETATM   18  N6  UNL     1      -6.708  17.559  27.582  1.00  0.00    -0.366 N 
HETATM   19  C22 UNL     1      -5.648  17.105  26.906  1.00  0.00     0.091 A 
HETATM   20  C23 UNL     1      -5.420  17.376  25.557  1.00  0.00     0.034 A 
HETATM   21  C24 UNL     1      -6.330  18.152  24.876  1.00  0.00     0.034 A 
HETATM   22  C28 UNL     1      -7.420  18.625  25.547  1.00  0.00     0.034 A 
HETATM   23  C29 UNL     1      -7.594  18.322  26.889  1.00  0.00     0.091 A 
BRANCH  21  24
HETATM   24  C25 UNL     1      -6.136  18.479  23.448  1.00  0.00     0.251 C 
HETATM   25  O3  UNL     1      -6.695  19.504  22.963  1.00  0.00    -0.268 OA
HETATM   26  N7  UNL     1      -5.341  17.652  22.646  1.00  0.00    -0.355 N 
ATOM     27  H7  UNL     1      -4.918  16.851  23.115  1.00  0.00     0.162 HD
BRANCH  26  28
HETATM   28  C26 UNL     1      -5.045  17.786  21.255  1.00  0.00     0.148 C 
BRANCH  28  29
HETATM   29  C27 UNL     1      -6.171  17.543  20.310  1.00  0.00     0.183 C 
BRANCH  29  30
HETATM   30  O4  UNL     1      -7.031  18.581  20.083  1.00  0.00    -0.399 OA
ATOM     31  H4  UNL     1      -7.940  18.363  19.911  1.00  0.00     0.209 HD
ENDBRANCH  29  30
ENDBRANCH  28  29
ENDBRANCH  26  28
ENDBRANCH  21  24
ENDBRANCH  17  18
ENDBRANCH  16  17
ENDBRANCH  15  16
ENDBRANCH  14  15
ENDBRANCH  13  14
ENDBRANCH  12  13
ENDBRANCH   7  12
BRANCH   6  32
HETATM   32  C8  UNL     1     -12.074  15.483  30.415  1.00  0.00     0.066 C 
BRANCH  32  33
HETATM   33  C9  UNL     1     -13.157  14.421  30.308  1.00  0.00     0.065 C 
BRANCH  33  34
HETATM   34  C10 UNL     1     -13.247  13.596  31.556  1.00  0.00     0.034 A 
HETATM   35  C11 UNL     1     -13.472  14.038  32.840  1.00  0.00     0.115 A 
HETATM   36  N2  UNL     1     -13.470  12.949  33.622  1.00  0.00    -0.345 N 
HETATM   37  C12 UNL     1     -13.256  11.846  32.890  1.00  0.00     0.181 A 
ATOM     38  H2  UNL     1     -13.611  12.957  34.632  1.00  0.00     0.167 HD
HETATM   39  C13 UNL     1     -13.163  10.492  33.196  1.00  0.00     0.290 A 
HETATM   40  N4  UNL     1     -13.121  12.262  31.621  1.00  0.00    -0.305 N 
HETATM   41  O2  UNL     1     -13.294  10.137  34.393  1.00  0.00    -0.264 OA
HETATM   42  N3  UNL     1     -12.935   9.635  32.187  1.00  0.00    -0.329 N 
HETATM   43  C14 UNL     1     -12.798  10.026  30.920  1.00  0.00     0.109 A 
ATOM     44  H3  UNL     1     -12.864   8.641  32.400  1.00  0.00     0.168 HD
HETATM   45  C15 UNL     1     -12.890  11.370  30.612  1.00  0.00     0.116 A 
ENDBRANCH  33  34
ENDBRANCH  32  33
ENDBRANCH   6  32
BRANCH   5  46
HETATM   46  O1  UNL     1     -12.915  16.568  27.971  1.00  0.00    -0.358 OA
ATOM     47  H1  UNL     1     -13.607  16.184  27.446  1.00  0.00     0.217 HD
ENDBRANCH   5  46
BRANCH   1  48
HETATM   48  C2  UNL     1      -8.474  15.562  23.478  1.00  0.00     0.123 C 
HETATM   49  C1  UNL     1      -8.915  16.319  22.272  1.00  0.00     0.027 C 
ENDBRANCH   1  48
TORSDOF 16
ENDMDL
MODEL 4
REMARK VINA RESULT: -8.643022616      1.270      1.931
REMARK  16 active torsions:
REMARK  status: ('A' for Active; 'I' for Inactive)
REMARK    1  A    between atoms: C2_2  and  N1_3 
REMARK    2  A    between atoms: C6_7  and  O1_8 
REMARK    3  A    between atoms: C7_10  and  C8_11 
REMARK    4  A    between atoms: C8_11  and  C9_12 
REMARK    5  A    between atoms: C9_12  and  C10_13 
REMARK    6  A    between atoms: N5_25  and  C16_26 
REMARK    7  A    between atoms: C16_26  and  C17_27 
REMARK    8  A    between atoms: C17_27  and  C18_28 
REMARK    9  A    between atoms: C18_28  and  C19_29 
REMARK   10  A    between atoms: C19_29  and  C20_30 
REMARK   11  A    between atoms: C20_30  and  C21_31 
REMARK   12  A    between atoms: C21_31  and  N6_32 
REMARK   13  A    between atoms: C24_35  and  C25_36 
REMARK       I    between atoms: C25_36  and  N7_38 
REMARK   14  A    between atoms: N7_38  and  C26_40 
REMARK   15  A    between atoms: C26_40  and  C27_41 
REMARK   16  A    between atoms: C27_41  and  O4_42 
ROOT
HETATM    1  N1  UNL     1      -9.329  15.781  24.693  1.00  0.00    -0.366 N 
HETATM    2  C3  UNL     1     -10.486  16.458  24.616  1.00  0.00     0.091 A 
HETATM    3  C4  UNL     1     -11.292  16.519  25.733  1.00  0.00     0.032 A 
HETATM    4  C5  UNL     1     -10.957  15.910  26.922  1.00  0.00     0.017 A 
HETATM    5  C6  UNL     1     -11.740  15.956  28.052  1.00  0.00     0.099 A 
HETATM    6  C7  UNL     1     -11.337  15.317  29.231  1.00  0.00     0.049 A 
HETATM    7  N5  UNL     1     -10.185  14.655  29.266  1.00  0.00    -0.315 N 
HETATM    8  C30 UNL     1      -9.424  14.613  28.163  1.00  0.00     0.260 A 
HETATM    9  O5  UNL     1      -8.324  13.978  28.208  1.00  0.00    -0.267 OA
HETATM   10  C31 UNL     1      -9.766  15.221  26.980  1.00  0.00     0.061 A 
HETATM   11  C32 UNL     1      -8.988  15.183  25.842  1.00  0.00     0.108 A 
ENDROOT
BRANCH   7  12
HETATM   12  C16 UNL     1      -9.773  13.978  30.445  1.00  0.00     0.132 C 
BRANCH  12  13
HETATM   13  C17 UNL     1      -8.652  14.755  31.075  1.00  0.00     0.020 C 
BRANCH  13  14
HETATM   14  C18 UNL     1      -9.153  15.652  32.216  1.00  0.00     0.002 C 
BRANCH  14  15
HETATM   15  C19 UNL     1      -8.784  17.084  31.930  1.00  0.00     0.002 C 
BRANCH  15  16
HETATM   16  C20 UNL     1      -7.873  17.262  30.761  1.00  0.00     0.020 C 
BRANCH  16  17
HETATM   17  C21 UNL     1      -8.545  17.852  29.568  1.00  0.00     0.128 C 
BRANCH  17  18
HETATM   18  N6  UNL     1      -7.762  17.786  28.369  1.00  0.00    -0.366 N 
HETATM   19  C22 UNL     1      -6.661  17.032  28.303  1.00  0.00     0.091 A 
HETATM   20  C23 UNL     1      -5.845  16.956  27.174  1.00  0.00     0.034 A 
HETATM   21  C24 UNL     1      -6.184  17.694  26.063  1.00  0.00     0.034 A 
HETATM   22  C28 UNL     1      -7.306  18.469  26.108  1.00  0.00     0.034 A 
HETATM   23  C29 UNL     1      -8.078  18.505  27.260  1.00  0.00     0.091 A 
BRANCH  21  24
HETATM   24  C25 UNL     1      -5.353  17.660  24.841  1.00  0.00     0.251 C 
HETATM   25  O3  UNL     1      -5.790  18.180  23.776  1.00  0.00    -0.268 OA
HETATM   26  N7  UNL     1      -4.093  17.049  24.873  1.00  0.00    -0.355 N 
ATOM     27  H7  UNL     1      -3.810  16.660  25.772  1.00  0.00     0.162 HD
BRANCH  26  28
HETATM   28  C26 UNL     1      -3.154  16.899  23.807  1.00  0.00     0.148 C 
BRANCH  28  29
HETATM   29  C27 UNL     1      -1.951  16.069  24.092  1.00  0.00     0.183 C 
BRANCH  29  30
HETATM   30  O4  UNL     1      -2.115  14.994  24.922  1.00  0.00    -0.399 OA
ATOM     31  H4  UNL     1      -1.351  14.457  25.094  1.00  0.00     0.209 HD
ENDBRANCH  29  30
ENDBRANCH  28  29
ENDBRANCH  26  28
ENDBRANCH  21  24
ENDBRANCH  17  18
ENDBRANCH  16  17
ENDBRANCH  15  16
ENDBRANCH  14  15
ENDBRANCH  13  14
ENDBRANCH  12  13
ENDBRANCH   7  12
BRANCH   6  32
HETATM   32  C8  UNL     1     -12.189  15.412  30.411  1.00  0.00     0.066 C 
BRANCH  32  33
HETATM   33  C9  UNL     1     -13.222  14.302  30.300  1.00  0.00     0.065 C 
BRANCH  33  34
HETATM   34  C10 UNL     1     -13.301  13.492  31.559  1.00  0.00     0.034 A 
HETATM   35  C11 UNL     1     -13.530  13.950  32.837  1.00  0.00     0.115 A 
HETATM   36  N2  UNL     1     -13.513  12.871  33.634  1.00  0.00    -0.345 N 
HETATM   37  C12 UNL     1     -13.287  11.762  32.917  1.00  0.00     0.181 A 
ATOM     38  H2  UNL     1     -13.653  12.892  34.644  1.00  0.00     0.167 HD
HETATM   39  C13 UNL     1     -13.177  10.413  33.241  1.00  0.00     0.290 A 
HETATM   40  N4  UNL     1     -13.158  12.161  31.642  1.00  0.00    -0.305 N 
HETATM   41  O2  UNL     1     -13.302  10.073  34.443  1.00  0.00    -0.264 OA
HETATM   42  N3  UNL     1     -12.940   9.545  32.244  1.00  0.00    -0.329 N 
HETATM   43  C14 UNL     1     -12.809   9.920  30.971  1.00  0.00     0.109 A 
ATOM     44  H3  UNL     1     -12.856   8.555  32.470  1.00  0.00     0.168 HD
HETATM   45  C15 UNL     1     -12.918  11.259  30.645  1.00  0.00     0.116 A 
ENDBRANCH  33  34
ENDBRANCH  32  33
ENDBRANCH   6  32
BRANCH   5  46
HETATM   46  O1  UNL     1     -12.925  16.643  28.002  1.00  0.00    -0.358 OA
ATOM     47  H1  UNL     1     -12.933  17.509  27.613  1.00  0.00     0.217 HD
ENDBRANCH   5  46
BRANCH   1  48
HETATM   48  C2  UNL     1      -8.417  15.667  23.571  1.00  0.00     0.123 C 
HETATM   49  C1  UNL     1      -8.914  14.795  22.468  1.00  0.00     0.027 C 
ENDBRANCH   1  48
TORSDOF 16
ENDMDL
MODEL 5
REMARK VINA RESULT: -8.481738321      1.920      9.356
REMARK  16 active torsions:
REMARK  status: ('A' for Active; 'I' for Inactive)
REMARK    1  A    between atoms: C2_2  and  N1_3 
REMARK    2  A    between atoms: C6_7  and  O1_8 
REMARK    3  A    between atoms: C7_10  and  C8_11 
REMARK    4  A    between atoms: C8_11  and  C9_12 
REMARK    5  A    between atoms: C9_12  and  C10_13 
REMARK    6  A    between atoms: N5_25  and  C16_26 
REMARK    7  A    between atoms: C16_26  and  C17_27 
REMARK    8  A    between atoms: C17_27  and  C18_28 
REMARK    9  A    between atoms: C18_28  and  C19_29 
REMARK   10  A    between atoms: C19_29  and  C20_30 
REMARK   11  A    between atoms: C20_30  and  C21_31 
REMARK   12  A    between atoms: C21_31  and  N6_32 
REMARK   13  A    between atoms: C24_35  and  C25_36 
REMARK       I    between atoms: C25_36  and  N7_38 
REMARK   14  A    between atoms: N7_38  and  C26_40 
REMARK   15  A    between atoms: C26_40  and  C27_41 
REMARK   16  A    between atoms: C27_41  and  O4_42 
ROOT
HETATM    1  N1  UNL     1     -12.810  13.484  28.752  1.00  0.00    -0.366 N 
HETATM    2  C3  UNL     1     -13.255  14.201  27.708  1.00  0.00     0.091 A 
HETATM    3  C4  UNL     1     -12.468  15.224  27.224  1.00  0.00     0.032 A 
HETATM    4  C5  UNL     1     -11.244  15.539  27.772  1.00  0.00     0.017 A 
HETATM    5  C6  UNL     1     -10.437  16.552  27.309  1.00  0.00     0.099 A 
HETATM    6  C7  UNL     1      -9.201  16.817  27.912  1.00  0.00     0.049 A 
HETATM    7  N5  UNL     1      -8.797  16.086  28.945  1.00  0.00    -0.315 N 
HETATM    8  C30 UNL     1      -9.585  15.099  29.393  1.00  0.00     0.260 A 
HETATM    9  O5  UNL     1      -9.188  14.405  30.381  1.00  0.00    -0.267 OA
HETATM   10  C31 UNL     1     -10.805  14.791  28.843  1.00  0.00     0.061 A 
HETATM   11  C32 UNL     1     -11.621  13.777  29.297  1.00  0.00     0.108 A 
ENDROOT
BRANCH   7  12
HETATM   12  C16 UNL     1      -7.558  16.358  29.585  1.00  0.00     0.132 C 
BRANCH  12  13
HETATM   13  C17 UNL     1      -7.823  17.202  30.799  1.00  0.00     0.020 C 
BRANCH  13  14
HETATM   14  C18 UNL     1      -7.068  16.679  32.030  1.00  0.00     0.002 C 
BRANCH  14  15
HETATM   15  C19 UNL     1      -8.056  16.256  33.085  1.00  0.00     0.002 C 
BRANCH  15  16
HETATM   16  C20 UNL     1      -9.310  17.065  33.113  1.00  0.00     0.020 C 
BRANCH  16  17
HETATM   17  C21 UNL     1     -10.212  16.725  34.250  1.00  0.00     0.128 C 
BRANCH  17  18
HETATM   18  N6  UNL     1     -11.143  15.675  33.958  1.00  0.00    -0.366 N 
HETATM   19  C22 UNL     1     -11.682  15.546  32.742  1.00  0.00     0.091 A 
HETATM   20  C23 UNL     1     -12.615  14.563  32.412  1.00  0.00     0.034 A 
HETATM   21  C24 UNL     1     -13.010  13.673  33.385  1.00  0.00     0.034 A 
HETATM   22  C28 UNL     1     -12.472  13.786  34.634  1.00  0.00     0.034 A 
HETATM   23  C29 UNL     1     -11.547  14.784  34.902  1.00  0.00     0.091 A 
BRANCH  21  24
HETATM   24  C25 UNL     1     -14.003  12.617  33.096  1.00  0.00     0.251 C 
HETATM   25  O3  UNL     1     -15.034  12.900  32.423  1.00  0.00    -0.268 OA
HETATM   26  N7  UNL     1     -13.794  11.317  33.573  1.00  0.00    -0.355 N 
ATOM     27  H7  UNL     1     -12.934  11.169  34.100  1.00  0.00     0.162 HD
BRANCH  26  28
HETATM   28  C26 UNL     1     -14.633  10.171  33.416  1.00  0.00     0.148 C 
BRANCH  28  29
HETATM   29  C27 UNL     1     -15.870  10.134  34.245  1.00  0.00     0.183 C 
BRANCH  29  30
HETATM   30  O4  UNL     1     -16.930  10.886  33.820  1.00  0.00    -0.399 OA
ATOM     31  H4  UNL     1     -17.790  10.648  34.146  1.00  0.00     0.209 HD
ENDBRANCH  29  30
ENDBRANCH  28  29
ENDBRANCH  26  28
ENDBRANCH  21  24
ENDBRANCH  17  18
ENDBRANCH  16  17
ENDBRANCH  15  16
ENDBRANCH  14  15
ENDBRANCH  13  14
ENDBRANCH  12  13
ENDBRANCH   7  12
BRANCH   6  32
HETATM   32  C8  UNL     1      -8.369  17.887  27.372  1.00  0.00     0.066 C 
BRANCH  32  33
HETATM   33  C9  UNL     1      -7.336  17.229  26.470  1.00  0.00     0.065 C 
BRANCH  33  34
HETATM   34  C10 UNL     1      -7.398  17.770  25.074  1.00  0.00     0.034 A 
HETATM   35  C11 UNL     1      -6.855  18.945  24.604  1.00  0.00     0.115 A 
HETATM   36  N2  UNL     1      -7.163  19.010  23.300  1.00  0.00    -0.345 N 
HETATM   37  C12 UNL     1      -7.870  17.933  22.931  1.00  0.00     0.181 A 
ATOM     38  H2  UNL     1      -6.897  19.772  22.677  1.00  0.00     0.167 HD
HETATM   39  C13 UNL     1      -8.424  17.514  21.725  1.00  0.00     0.290 A 
HETATM   40  N4  UNL     1      -8.006  17.180  24.034  1.00  0.00    -0.305 N 
HETATM   41  O2  UNL     1      -8.278  18.241  20.713  1.00  0.00    -0.264 OA
HETATM   42  N3  UNL     1      -9.088  16.346  21.712  1.00  0.00    -0.329 N 
HETATM   43  C14 UNL     1      -9.235  15.583  22.795  1.00  0.00     0.109 A 
ATOM     44  H3  UNL     1      -9.498  16.030  20.834  1.00  0.00     0.168 HD
HETATM   45  C15 UNL     1      -8.686  15.996  23.995  1.00  0.00     0.116 A 
ENDBRANCH  33  34
ENDBRANCH  32  33
ENDBRANCH   6  32
BRANCH   5  46
HETATM   46  O1  UNL     1     -10.867  17.298  26.243  1.00  0.00    -0.358 OA
ATOM     47  H1  UNL     1     -11.050  18.220  26.378  1.00  0.00     0.217 HD
ENDBRANCH   5  46
BRANCH   1  48
HETATM   48  C2  UNL     1     -13.567  12.387  29.325  1.00  0.00     0.123 C 
HETATM   49  C1  UNL     1     -12.727  11.350  29.990  1.00  0.00     0.027 C 
ENDBRANCH   1  48
TORSDOF 16
ENDMDL
