MODEL 1
REMARK VINA RESULT: -10.085599997      0.000      0.000
REMARK  6 active torsions:
REMARK  status: ('A' for Active; 'I' for Inactive)
REMARK    1  A    between atoms: C3_4  and  C4_5 
REMARK    2  A    between atoms: C12_13  and  C13_14 
REMARK    3  A    between atoms: C16_17  and  C17_18 
REMARK    4  A    between atoms: C23_27  and  N2_28 
REMARK    5  A    between atoms: N2_28  and  S2_30 
REMARK    6  A    between atoms: S2_30  and  C24_33 
ROOT
HETATM    1  C13 UNL     1      -4.248   7.044 -22.880  1.00  0.00     0.086 A 
HETATM    2  C14 UNL     1      -4.372   7.470 -21.580  1.00  0.00     0.041 A 
HETATM    3  C15 UNL     1      -4.012   6.390 -20.794  1.00  0.00     0.041 A 
HETATM    4  C16 UNL     1      -3.686   5.354 -21.603  1.00  0.00     0.090 A 
HETATM    5  O4  UNL     1      -3.845   5.805 -22.826  1.00  0.00    -0.309 OA
ENDROOT
BRANCH   4   6
HETATM    6  C17 UNL     1      -3.244   4.002 -21.321  1.00  0.00     0.044 A 
HETATM    7  C18 UNL     1      -1.989   3.827 -20.723  1.00  0.00     0.039 A 
HETATM    8  C19 UNL     1      -1.505   2.553 -20.425  1.00  0.00     0.032 A 
HETATM    9  S1  UNL     1      -0.078   1.951 -19.722  1.00  0.00    -0.100 SA
HETATM   10  C22 UNL     1      -2.222   1.424 -20.698  1.00  0.00     0.051 A 
HETATM   11  C20 UNL     1      -0.413   0.284 -19.787  1.00  0.00     0.053 A 
HETATM   12  C21 UNL     1      -1.652   0.239 -20.365  1.00  0.00     0.038 A 
HETATM   13  N1  UNL     1      -3.450   1.635 -21.287  1.00  0.00    -0.340 N 
HETATM   14  C23 UNL     1      -3.911   2.846 -21.569  1.00  0.00     0.128 A 
ATOM     15  H1  UNL     1      -4.029   0.826 -21.515  1.00  0.00     0.167 HD
BRANCH  14  16
HETATM   16  N2  UNL     1      -5.050   2.951 -22.110  1.00  0.00    -0.265 N 
ATOM     17  H2  UNL     1      -5.091   3.109 -23.116  1.00  0.00     0.180 HD
BRANCH  16  18
HETATM   18  S2  UNL     1      -6.518   2.846 -21.253  1.00  0.00     0.264 S 
HETATM   19  O2  UNL     1      -7.612   2.134 -22.017  1.00  0.00    -0.200 OA
HETATM   20  O3  UNL     1      -6.408   2.173 -19.917  1.00  0.00    -0.200 OA
BRANCH  18  21
HETATM   21  C24 UNL     1      -7.090   4.484 -20.933  1.00  0.00     0.079 A 
HETATM   22  C25 UNL     1      -7.181   4.961 -19.645  1.00  0.00     0.025 A 
HETATM   23  C26 UNL     1      -7.623   6.228 -19.397  1.00  0.00     0.002 A 
HETATM   24  C27 UNL     1      -7.991   7.068 -20.425  1.00  0.00     0.000 A 
HETATM   25  C28 UNL     1      -7.896   6.584 -21.703  1.00  0.00     0.002 A 
HETATM   26  C29 UNL     1      -7.449   5.302 -21.958  1.00  0.00     0.025 A 
ENDBRANCH  18  21
ENDBRANCH  16  18
ENDBRANCH  14  16
ENDBRANCH   4   6
BRANCH   1  27
HETATM   27  C12 UNL     1      -4.517   7.835 -24.099  1.00  0.00    -0.001 A 
HETATM   28  C11 UNL     1      -5.797   8.285 -24.321  1.00  0.00     0.029 A 
HETATM   29  C10 UNL     1      -6.125   9.041 -25.458  1.00  0.00     0.003 A 
HETATM   30  C3  UNL     1      -7.398   9.476 -25.641  1.00  0.00    -0.008 A 
HETATM   31  C32 UNL     1      -5.138   9.340 -26.370  1.00  0.00     0.046 A 
HETATM   32  C2  UNL     1      -7.671  10.240 -26.786  1.00  0.00     0.087 A 
HETATM   33  C1  UNL     1      -6.647  10.505 -27.660  1.00  0.00     0.246 A 
HETATM   34  O1  UNL     1      -6.854  11.193 -28.708  1.00  0.00    -0.268 OA
HETATM   35  N3  UNL     1      -5.405  10.067 -27.460  1.00  0.00    -0.323 N 
ATOM     36  H3  UNL     1      -4.667  10.283 -28.131  1.00  0.00     0.169 HD
HETATM   37  C31 UNL     1      -3.836   8.889 -26.158  1.00  0.00     0.031 A 
HETATM   38  C30 UNL     1      -3.563   8.151 -25.029  1.00  0.00     0.016 A 
BRANCH  30  39
HETATM   39  C4  UNL     1      -8.498   9.166 -24.738  1.00  0.00    -0.025 A 
HETATM   40  C5  UNL     1      -9.213   8.022 -25.041  1.00  0.00     0.012 A 
HETATM   41  C6  UNL     1     -10.248   7.577 -24.274  1.00  0.00     0.001 A 
HETATM   42  C7  UNL     1     -10.564   8.321 -23.162  1.00  0.00     0.000 A 
HETATM   43  C8  UNL     1      -9.877   9.466 -22.822  1.00  0.00     0.001 A 
HETATM   44  C9  UNL     1      -8.845   9.873 -23.626  1.00  0.00     0.012 A 
ENDBRANCH  30  39
ENDBRANCH   1  27
TORSDOF 6
ENDMDL
MODEL 2
REMARK VINA RESULT: -9.869184943      2.211      4.125
REMARK  6 active torsions:
REMARK  status: ('A' for Active; 'I' for Inactive)
REMARK    1  A    between atoms: C3_4  and  C4_5 
REMARK    2  A    between atoms: C12_13  and  C13_14 
REMARK    3  A    between atoms: C16_17  and  C17_18 
REMARK    4  A    between atoms: C23_27  and  N2_28 
REMARK    5  A    between atoms: N2_28  and  S2_30 
REMARK    6  A    between atoms: S2_30  and  C24_33 
ROOT
HETATM    1  C13 UNL     1      -8.459   5.120 -22.625  1.00  0.00     0.086 A 
HETATM    2  C14 UNL     1      -9.079   3.895 -22.566  1.00  0.00     0.041 A 
HETATM    3  C15 UNL     1      -8.163   3.037 -21.984  1.00  0.00     0.041 A 
HETATM    4  C16 UNL     1      -7.034   3.732 -21.706  1.00  0.00     0.090 A 
HETATM    5  O4  UNL     1      -7.272   4.958 -22.109  1.00  0.00    -0.309 OA
ENDROOT
BRANCH   4   6
HETATM    6  C17 UNL     1      -5.775   3.339 -21.103  1.00  0.00     0.044 A 
HETATM    7  C18 UNL     1      -4.729   2.948 -21.950  1.00  0.00     0.039 A 
HETATM    8  C19 UNL     1      -3.493   2.559 -21.433  1.00  0.00     0.032 A 
HETATM    9  S1  UNL     1      -2.024   2.035 -22.115  1.00  0.00    -0.100 SA
HETATM   10  C22 UNL     1      -3.242   2.538 -20.092  1.00  0.00     0.051 A 
HETATM   11  C20 UNL     1      -1.122   1.800 -20.692  1.00  0.00     0.053 A 
HETATM   12  C21 UNL     1      -2.004   2.142 -19.704  1.00  0.00     0.038 A 
HETATM   13  N1  UNL     1      -4.294   2.928 -19.291  1.00  0.00    -0.340 N 
HETATM   14  C23 UNL     1      -5.469   3.299 -19.781  1.00  0.00     0.128 A 
ATOM     15  H1  UNL     1      -4.164   2.931 -18.279  1.00  0.00     0.167 HD
BRANCH  14  16
HETATM   16  N2  UNL     1      -6.382   3.642 -18.976  1.00  0.00    -0.265 N 
ATOM     17  H2  UNL     1      -7.134   2.978 -18.790  1.00  0.00     0.180 HD
BRANCH  16  18
HETATM   18  S2  UNL     1      -6.428   5.149 -18.183  1.00  0.00     0.264 S 
HETATM   19  O2  UNL     1      -7.739   5.420 -17.480  1.00  0.00    -0.200 OA
HETATM   20  O3  UNL     1      -5.339   5.350 -17.172  1.00  0.00    -0.200 OA
BRANCH  18  21
HETATM   21  C24 UNL     1      -6.217   6.416 -19.393  1.00  0.00     0.079 A 
HETATM   22  C25 UNL     1      -4.992   6.629 -19.986  1.00  0.00     0.025 A 
HETATM   23  C26 UNL     1      -4.829   7.609 -20.921  1.00  0.00     0.002 A 
HETATM   24  C27 UNL     1      -5.880   8.413 -21.301  1.00  0.00     0.000 A 
HETATM   25  C28 UNL     1      -7.094   8.193 -20.706  1.00  0.00     0.002 A 
HETATM   26  C29 UNL     1      -7.264   7.203 -19.759  1.00  0.00     0.025 A 
ENDBRANCH  18  21
ENDBRANCH  16  18
ENDBRANCH  14  16
ENDBRANCH   4   6
BRANCH   1  27
HETATM   27  C12 UNL     1      -9.026   6.372 -23.166  1.00  0.00    -0.001 A 
HETATM   28  C11 UNL     1      -8.242   7.152 -23.982  1.00  0.00     0.029 A 
HETATM   29  C10 UNL     1      -8.716   8.354 -24.530  1.00  0.00     0.003 A 
HETATM   30  C3  UNL     1      -7.915   9.095 -25.337  1.00  0.00    -0.008 A 
HETATM   31  C32 UNL     1     -10.000   8.760 -24.244  1.00  0.00     0.046 A 
HETATM   32  C2  UNL     1      -8.440  10.282 -25.872  1.00  0.00     0.087 A 
HETATM   33  C1  UNL     1      -9.727  10.635 -25.550  1.00  0.00     0.246 A 
HETATM   34  O1  UNL     1     -10.239  11.701 -26.013  1.00  0.00    -0.268 OA
HETATM   35  N3  UNL     1     -10.495   9.893 -24.754  1.00  0.00    -0.323 N 
ATOM     36  H3  UNL     1     -11.448  10.184 -24.536  1.00  0.00     0.169 HD
HETATM   37  C31 UNL     1     -10.808   7.979 -23.417  1.00  0.00     0.031 A 
HETATM   38  C30 UNL     1     -10.298   6.808 -22.903  1.00  0.00     0.016 A 
BRANCH  30  39
HETATM   39  C4  UNL     1      -6.535   8.748 -25.651  1.00  0.00    -0.025 A 
HETATM   40  C5  UNL     1      -6.258   8.561 -26.993  1.00  0.00     0.012 A 
HETATM   41  C6  UNL     1      -5.009   8.268 -27.451  1.00  0.00     0.001 A 
HETATM   42  C7  UNL     1      -4.010   8.162 -26.513  1.00  0.00     0.000 A 
HETATM   43  C8  UNL     1      -4.241   8.341 -25.166  1.00  0.00     0.001 A 
HETATM   44  C9  UNL     1      -5.515   8.634 -24.755  1.00  0.00     0.012 A 
ENDBRANCH  30  39
ENDBRANCH   1  27
TORSDOF 6
ENDMDL
MODEL 3
REMARK VINA RESULT: -9.733454798      3.152      9.138
REMARK  6 active torsions:
REMARK  status: ('A' for Active; 'I' for Inactive)
REMARK    1  A    between atoms: C3_4  and  C4_5 
REMARK    2  A    between atoms: C12_13  and  C13_14 
REMARK    3  A    between atoms: C16_17  and  C17_18 
REMARK    4  A    between atoms: C23_27  and  N2_28 
REMARK    5  A    between atoms: N2_28  and  S2_30 
REMARK    6  A    between atoms: S2_30  and  C24_33 
ROOT
HETATM    1  C13 UNL     1      -5.983   3.786 -21.406  1.00  0.00     0.086 A 
HETATM    2  C14 UNL     1      -7.154   3.537 -22.080  1.00  0.00     0.041 A 
HETATM    3  C15 UNL     1      -7.303   4.582 -22.974  1.00  0.00     0.041 A 
HETATM    4  C16 UNL     1      -6.253   5.426 -22.833  1.00  0.00     0.090 A 
HETATM    5  O4  UNL     1      -5.507   4.899 -21.890  1.00  0.00    -0.309 OA
ENDROOT
BRANCH   4   6
HETATM    6  C17 UNL     1      -5.905   6.664 -23.504  1.00  0.00     0.044 A 
HETATM    7  C18 UNL     1      -6.379   6.867 -24.807  1.00  0.00     0.039 A 
HETATM    8  C19 UNL     1      -6.079   8.035 -25.507  1.00  0.00     0.032 A 
HETATM    9  S1  UNL     1      -6.459   8.631 -27.055  1.00  0.00    -0.100 SA
HETATM   10  C22 UNL     1      -5.317   9.029 -24.966  1.00  0.00     0.051 A 
HETATM   11  C20 UNL     1      -5.646  10.125 -26.989  1.00  0.00     0.053 A 
HETATM   12  C21 UNL     1      -5.090  10.121 -25.739  1.00  0.00     0.038 A 
HETATM   13  N1  UNL     1      -4.868   8.794 -23.684  1.00  0.00    -0.340 N 
HETATM   14  C23 UNL     1      -5.153   7.684 -23.017  1.00  0.00     0.128 A 
ATOM     15  H1  UNL     1      -4.292   9.503 -23.230  1.00  0.00     0.167 HD
BRANCH  14  16
HETATM   16  N2  UNL     1      -4.700   7.547 -21.844  1.00  0.00    -0.265 N 
ATOM     17  H2  UNL     1      -3.894   6.937 -21.708  1.00  0.00     0.180 HD
BRANCH  16  18
HETATM   18  S2  UNL     1      -5.359   8.322 -20.479  1.00  0.00     0.264 S 
HETATM   19  O2  UNL     1      -4.317   8.952 -19.581  1.00  0.00    -0.200 OA
HETATM   20  O3  UNL     1      -6.364   9.389 -20.798  1.00  0.00    -0.200 OA
BRANCH  18  21
HETATM   21  C24 UNL     1      -6.212   7.114 -19.516  1.00  0.00     0.079 A 
HETATM   22  C25 UNL     1      -7.480   6.703 -19.861  1.00  0.00     0.025 A 
HETATM   23  C26 UNL     1      -8.139   5.769 -19.117  1.00  0.00     0.002 A 
HETATM   24  C27 UNL     1      -7.559   5.209 -17.999  1.00  0.00     0.000 A 
HETATM   25  C28 UNL     1      -6.298   5.625 -17.664  1.00  0.00     0.002 A 
HETATM   26  C29 UNL     1      -5.627   6.570 -18.415  1.00  0.00     0.025 A 
ENDBRANCH  18  21
ENDBRANCH  16  18
ENDBRANCH  14  16
ENDBRANCH   4   6
BRANCH   1  27
HETATM   27  C12 UNL     1      -5.383   2.954 -20.342  1.00  0.00    -0.001 A 
HETATM   28  C11 UNL     1      -4.038   2.675 -20.405  1.00  0.00     0.029 A 
HETATM   29  C10 UNL     1      -3.402   1.891 -19.430  1.00  0.00     0.003 A 
HETATM   30  C3  UNL     1      -2.071   1.642 -19.520  1.00  0.00    -0.008 A 
HETATM   31  C32 UNL     1      -4.145   1.392 -18.384  1.00  0.00     0.046 A 
HETATM   32  C2  UNL     1      -1.480   0.865 -18.512  1.00  0.00     0.087 A 
HETATM   33  C1  UNL     1      -2.271   0.394 -17.494  1.00  0.00     0.246 A 
HETATM   34  O1  UNL     1      -1.774  -0.314 -16.564  1.00  0.00    -0.268 OA
HETATM   35  N3  UNL     1      -3.576   0.650 -17.427  1.00  0.00    -0.323 N 
ATOM     36  H3  UNL     1      -4.136   0.285 -16.656  1.00  0.00     0.169 HD
HETATM   37  C31 UNL     1      -5.510   1.666 -18.306  1.00  0.00     0.031 A 
HETATM   38  C30 UNL     1      -6.089   2.439 -19.287  1.00  0.00     0.016 A 
BRANCH  30  39
HETATM   39  C4  UNL     1      -1.232   2.105 -20.617  1.00  0.00    -0.025 A 
HETATM   40  C5  UNL     1      -0.258   3.024 -20.277  1.00  0.00     0.012 A 
HETATM   41  C6  UNL     1       0.629   3.526 -21.181  1.00  0.00     0.001 A 
HETATM   42  C7  UNL     1       0.520   3.075 -22.476  1.00  0.00     0.000 A 
HETATM   43  C8  UNL     1      -0.435   2.158 -22.859  1.00  0.00     0.001 A 
HETATM   44  C9  UNL     1      -1.304   1.684 -21.912  1.00  0.00     0.012 A 
ENDBRANCH  30  39
ENDBRANCH   1  27
TORSDOF 6
ENDMDL
MODEL 4
REMARK VINA RESULT: -9.300866943      4.749      8.923
REMARK  6 active torsions:
REMARK  status: ('A' for Active; 'I' for Inactive)
REMARK    1  A    between atoms: C3_4  and  C4_5 
REMARK    2  A    between atoms: C12_13  and  C13_14 
REMARK    3  A    between atoms: C16_17  and  C17_18 
REMARK    4  A    between atoms: C23_27  and  N2_28 
REMARK    5  A    between atoms: N2_28  and  S2_30 
REMARK    6  A    between atoms: S2_30  and  C24_33 
ROOT
HETATM    1  C13 UNL     1      -0.859   2.116 -21.400  1.00  0.00     0.086 A 
HETATM    2  C14 UNL     1       0.252   2.527 -20.705  1.00  0.00     0.041 A 
HETATM    3  C15 UNL     1       1.265   2.633 -21.642  1.00  0.00     0.041 A 
HETATM    4  C16 UNL     1       0.768   2.293 -22.856  1.00  0.00     0.090 A 
HETATM    5  O4  UNL     1      -0.494   1.998 -22.646  1.00  0.00    -0.309 OA
ENDROOT
BRANCH   4   6
HETATM    6  C17 UNL     1       1.377   2.226 -24.170  1.00  0.00     0.044 A 
HETATM    7  C18 UNL     1       2.018   3.372 -24.662  1.00  0.00     0.039 A 
HETATM    8  C19 UNL     1       2.622   3.374 -25.919  1.00  0.00     0.032 A 
HETATM    9  S1  UNL     1       3.472   4.530 -26.834  1.00  0.00    -0.100 SA
HETATM   10  C22 UNL     1       2.621   2.274 -26.725  1.00  0.00     0.051 A 
HETATM   11  C20 UNL     1       3.808   3.601 -28.219  1.00  0.00     0.053 A 
HETATM   12  C21 UNL     1       3.241   2.391 -27.927  1.00  0.00     0.038 A 
HETATM   13  N1  UNL     1       1.982   1.167 -26.210  1.00  0.00    -0.340 N 
HETATM   14  C23 UNL     1       1.407   1.164 -25.014  1.00  0.00     0.128 A 
ATOM     15  H1  UNL     1       1.949   0.316 -26.770  1.00  0.00     0.167 HD
BRANCH  14  16
HETATM   16  N2  UNL     1       0.841   0.105 -24.616  1.00  0.00    -0.265 N 
ATOM     17  H2  UNL     1      -0.178   0.066 -24.643  1.00  0.00     0.180 HD
BRANCH  16  18
HETATM   18  S2  UNL     1       1.682  -1.258 -24.036  1.00  0.00     0.264 S 
HETATM   19  O2  UNL     1       0.817  -2.492 -23.912  1.00  0.00    -0.200 OA
HETATM   20  O3  UNL     1       2.878  -1.641 -24.855  1.00  0.00    -0.200 OA
BRANCH  18  21
HETATM   21  C24 UNL     1       2.290  -0.886 -22.422  1.00  0.00     0.079 A 
HETATM   22  C25 UNL     1       3.542  -0.340 -22.247  1.00  0.00     0.025 A 
HETATM   23  C26 UNL     1       4.012  -0.053 -21.000  1.00  0.00     0.002 A 
HETATM   24  C27 UNL     1       3.252  -0.298 -19.877  1.00  0.00     0.000 A 
HETATM   25  C28 UNL     1       2.008  -0.841 -20.061  1.00  0.00     0.002 A 
HETATM   26  C29 UNL     1       1.528  -1.133 -21.323  1.00  0.00     0.025 A 
ENDBRANCH  18  21
ENDBRANCH  16  18
ENDBRANCH  14  16
ENDBRANCH   4   6
BRANCH   1  27
HETATM   27  C12 UNL     1      -2.204   1.860 -20.843  1.00  0.00    -0.001 A 
HETATM   28  C11 UNL     1      -3.176   2.818 -21.003  1.00  0.00     0.029 A 
HETATM   29  C10 UNL     1      -4.474   2.642 -20.499  1.00  0.00     0.003 A 
HETATM   30  C3  UNL     1      -5.412   3.607 -20.683  1.00  0.00    -0.008 A 
HETATM   31  C32 UNL     1      -4.780   1.479 -19.830  1.00  0.00     0.046 A 
HETATM   32  C2  UNL     1      -6.698   3.377 -20.173  1.00  0.00     0.087 A 
HETATM   33  C1  UNL     1      -6.944   2.198 -19.514  1.00  0.00     0.246 A 
HETATM   34  O1  UNL     1      -8.095   1.952 -19.037  1.00  0.00    -0.268 OA
HETATM   35  N3  UNL     1      -6.008   1.265 -19.344  1.00  0.00    -0.323 N 
ATOM     36  H3  UNL     1      -6.225   0.400 -18.850  1.00  0.00     0.169 HD
HETATM   37  C31 UNL     1      -3.804   0.497 -19.659  1.00  0.00     0.031 A 
HETATM   38  C30 UNL     1      -2.545   0.717 -20.171  1.00  0.00     0.016 A 
BRANCH  30  39
HETATM   39  C4  UNL     1      -5.148   4.877 -21.347  1.00  0.00    -0.025 A 
HETATM   40  C5  UNL     1      -5.877   5.111 -22.498  1.00  0.00     0.012 A 
HETATM   41  C6  UNL     1      -5.773   6.266 -23.213  1.00  0.00     0.001 A 
HETATM   42  C7  UNL     1      -4.897   7.214 -22.739  1.00  0.00     0.000 A 
HETATM   43  C8  UNL     1      -4.151   7.024 -21.596  1.00  0.00     0.001 A 
HETATM   44  C9  UNL     1      -4.292   5.844 -20.912  1.00  0.00     0.012 A 
ENDBRANCH  30  39
ENDBRANCH   1  27
TORSDOF 6
ENDMDL
MODEL 5
REMARK VINA RESULT: -9.154824364      6.939     12.948
REMARK  6 active torsions:
REMARK  status: ('A' for Active; 'I' for Inactive)
REMARK    1  A    between atoms: C3_4  and  C4_5 
REMARK    2  A    between atoms: C12_13  and  C13_14 
REMARK    3  A    between atoms: C16_17  and  C17_18 
REMARK    4  A    between atoms: C23_27  and  N2_28 
REMARK    5  A    between atoms: N2_28  and  S2_30 
REMARK    6  A    between atoms: S2_30  and  C24_33 
ROOT
HETATM    1  C13 UNL     1       1.418  -2.524 -22.343  1.00  0.00     0.086 A 
HETATM    2  C14 UNL     1       2.165  -2.229 -21.229  1.00  0.00     0.041 A 
HETATM    3  C15 UNL     1       1.474  -1.231 -20.565  1.00  0.00     0.041 A 
HETATM    4  C16 UNL     1       0.351  -0.943 -21.265  1.00  0.00     0.090 A 
HETATM    5  O4  UNL     1       0.375  -1.742 -22.306  1.00  0.00    -0.309 OA
ENDROOT
BRANCH   4   6
HETATM    6  C17 UNL     1      -0.721   0.006 -21.034  1.00  0.00     0.044 A 
HETATM    7  C18 UNL     1      -1.558  -0.197 -19.928  1.00  0.00     0.039 A 
HETATM    8  C19 UNL     1      -2.607   0.679 -19.650  1.00  0.00     0.032 A 
HETATM    9  S1  UNL     1      -3.802   0.768 -18.441  1.00  0.00    -0.100 SA
HETATM   10  C22 UNL     1      -2.870   1.766 -20.432  1.00  0.00     0.051 A 
HETATM   11  C20 UNL     1      -4.610   2.176 -18.947  1.00  0.00     0.053 A 
HETATM   12  C21 UNL     1      -3.916   2.549 -20.066  1.00  0.00     0.038 A 
HETATM   13  N1  UNL     1      -2.028   1.933 -21.510  1.00  0.00    -0.340 N 
HETATM   14  C23 UNL     1      -1.029   1.101 -21.775  1.00  0.00     0.128 A 
ATOM     15  H1  UNL     1      -2.179   2.729 -22.130  1.00  0.00     0.167 HD
BRANCH  14  16
HETATM   16  N2  UNL     1      -0.303   1.327 -22.785  1.00  0.00    -0.265 N 
ATOM     17  H2  UNL     1      -0.515   0.830 -23.650  1.00  0.00     0.180 HD
BRANCH  16  18
HETATM   18  S2  UNL     1       1.010   2.412 -22.784  1.00  0.00     0.264 S 
HETATM   19  O2  UNL     1       1.110   3.238 -24.046  1.00  0.00    -0.200 OA
HETATM   20  O3  UNL     1       1.020   3.370 -21.631  1.00  0.00    -0.200 OA
BRANCH  18  21
HETATM   21  C24 UNL     1       2.500   1.475 -22.657  1.00  0.00     0.079 A 
HETATM   22  C25 UNL     1       3.276   1.533 -21.522  1.00  0.00     0.025 A 
HETATM   23  C26 UNL     1       4.428   0.808 -21.423  1.00  0.00     0.002 A 
HETATM   24  C27 UNL     1       4.851  -0.002 -22.455  1.00  0.00     0.000 A 
HETATM   25  C28 UNL     1       4.072  -0.052 -23.580  1.00  0.00     0.002 A 
HETATM   26  C29 UNL     1       2.905   0.679 -23.684  1.00  0.00     0.025 A 
ENDBRANCH  18  21
ENDBRANCH  16  18
ENDBRANCH  14  16
ENDBRANCH   4   6
BRANCH   1  27
HETATM   27  C12 UNL     1       1.734  -3.530 -23.378  1.00  0.00    -0.001 A 
HETATM   28  C11 UNL     1       2.620  -3.194 -24.374  1.00  0.00     0.029 A 
HETATM   29  C10 UNL     1       2.965  -4.099 -25.390  1.00  0.00     0.003 A 
HETATM   30  C3  UNL     1       3.850  -3.736 -26.353  1.00  0.00    -0.008 A 
HETATM   31  C32 UNL     1       2.404  -5.356 -25.385  1.00  0.00     0.046 A 
HETATM   32  C2  UNL     1       4.173  -4.681 -27.337  1.00  0.00     0.087 A 
HETATM   33  C1  UNL     1       3.581  -5.918 -27.281  1.00  0.00     0.246 A 
HETATM   34  O1  UNL     1       3.846  -6.802 -28.154  1.00  0.00    -0.268 OA
HETATM   35  N3  UNL     1       2.714  -6.253 -26.327  1.00  0.00    -0.323 N 
ATOM     36  H3  UNL     1       2.292  -7.182 -26.315  1.00  0.00     0.169 HD
HETATM   37  C31 UNL     1       1.503  -5.712 -24.382  1.00  0.00     0.031 A 
HETATM   38  C30 UNL     1       1.195  -4.789 -23.408  1.00  0.00     0.016 A 
BRANCH  30  39
HETATM   39  C4  UNL     1       4.453  -2.412 -26.441  1.00  0.00    -0.025 A 
HETATM   40  C5  UNL     1       5.733  -2.305 -25.931  1.00  0.00     0.012 A 
HETATM   41  C6  UNL     1       6.446  -1.144 -25.972  1.00  0.00     0.001 A 
HETATM   42  C7  UNL     1       5.835  -0.058 -26.552  1.00  0.00     0.000 A 
HETATM   43  C8  UNL     1       4.562  -0.120 -27.075  1.00  0.00     0.001 A 
HETATM   44  C9  UNL     1       3.885  -1.310 -27.009  1.00  0.00     0.012 A 
ENDBRANCH  30  39
ENDBRANCH   1  27
TORSDOF 6
ENDMDL
