MODEL 1
REMARK VINA RESULT: -8.672286224      0.000      0.000
REMARK  8 active torsions:
REMARK  status: ('A' for Active; 'I' for Inactive)
REMARK    1  A    between atoms: C2_2  and  C5_5 
REMARK    2  A    between atoms: C8_8  and  C9_9 
REMARK    3  A    between atoms: C9_9  and  O1_10 
REMARK    4  A    between atoms: N1_12  and  C10_14 
REMARK    5  A    between atoms: C12_16  and  N2_17 
REMARK    6  A    between atoms: C17_26  and  C18_27 
REMARK    7  A    between atoms: C19_28  and  C20_29 
REMARK    8  A    between atoms: C28_38  and  C29_39 
ROOT
HETATM    1  C20 UNL     1       4.465  -0.311 -22.940  1.00  0.00    -0.035 A 
HETATM    2  C21 UNL     1       4.418   0.458 -21.774  1.00  0.00     0.011 A 
HETATM    3  C22 UNL     1       3.536   0.110 -20.769  1.00  0.00     0.002 A 
HETATM    4  C23 UNL     1       2.721  -0.984 -20.927  1.00  0.00     0.023 A 
HETATM    5  C24 UNL     1       2.764  -1.753 -22.065  1.00  0.00     0.045 A 
HETATM    6  C25 UNL     1       1.887  -2.867 -22.203  1.00  0.00     0.099 C 
HETATM    7  N5  UNL     1       1.137  -3.775 -22.294  1.00  0.00    -0.191 NA
HETATM    8  C26 UNL     1       3.645  -1.405 -23.077  1.00  0.00     0.034 A 
ENDROOT
BRANCH   1   9
HETATM    9  C19 UNL     1       5.339   0.098 -23.998  1.00  0.00     0.014 C 
HETATM   10  C18 UNL     1       6.205  -0.606 -24.669  1.00  0.00     0.033 C 
BRANCH  10  11
HETATM   11  C17 UNL     1       6.979   0.043 -25.736  1.00  0.00     0.071 A 
HETATM   12  N2  UNL     1       6.528   0.676 -26.779  1.00  0.00    -0.254 N 
HETATM   13  N3  UNL     1       7.599   1.222 -27.428  1.00  0.00    -0.277 N 
HETATM   14  C13 UNL     1       8.719   0.917 -26.782  1.00  0.00     0.133 A 
ATOM     15  H3  UNL     1       7.546   1.779 -28.280  1.00  0.00     0.189 HD
HETATM   16  N4  UNL     1      10.079   1.092 -26.785  1.00  0.00    -0.350 N 
HETATM   17  C16 UNL     1       8.402   0.166 -25.681  1.00  0.00     0.039 A 
HETATM   18  C14 UNL     1      10.584   0.453 -25.704  1.00  0.00     0.091 A 
ATOM     19  H4  UNL     1      10.615   1.613 -27.479  1.00  0.00     0.166 HD
HETATM   20  C15 UNL     1       9.556  -0.129 -25.007  1.00  0.00     0.034 A 
BRANCH  12  21
HETATM   21  C12 UNL     1       5.241   0.821 -27.402  1.00  0.00     0.062 A 
HETATM   22  C11 UNL     1       4.261   1.377 -26.640  1.00  0.00     0.080 A 
HETATM   23  C10 UNL     1       2.915   1.350 -27.097  1.00  0.00     0.109 A 
HETATM   24  N7  UNL     1       2.648   0.776 -28.285  1.00  0.00    -0.342 N 
HETATM   25  C28 UNL     1       3.589   0.215 -29.085  1.00  0.00     0.047 A 
ATOM     26  H7  UNL     1       1.679   0.762 -28.603  1.00  0.00     0.167 HD
HETATM   27  C27 UNL     1       4.894   0.255 -28.605  1.00  0.00     0.062 A 
BRANCH  23  28
HETATM   28  N1  UNL     1       2.027   1.793 -26.333  1.00  0.00    -0.323 N 
HETATM   29  C9  UNL     1       1.573   1.805 -25.133  1.00  0.00     0.151 C 
ATOM     30  H1  UNL     1       1.416   2.387 -26.893  1.00  0.00     0.169 HD
BRANCH  29  31
HETATM   31  C8  UNL     1       1.080   1.810 -23.821  1.00  0.00     0.015 A 
HETATM   32  C7  UNL     1       1.288   2.589 -22.725  1.00  0.00     0.016 A 
HETATM   33  C6  UNL     1       0.691   2.347 -21.494  1.00  0.00     0.009 A 
HETATM   34  C5  UNL     1      -0.139   1.314 -21.308  1.00  0.00    -0.051 A 
HETATM   35  C35 UNL     1      -0.404   0.467 -22.373  1.00  0.00     0.009 A 
HETATM   36  C34 UNL     1       0.183   0.707 -23.573  1.00  0.00     0.016 A 
BRANCH  34  37
HETATM   37  C2  UNL     1      -0.776   1.075 -19.973  1.00  0.00    -0.024 C 
HETATM   38  C1  UNL     1      -0.747  -0.400 -19.585  1.00  0.00     0.019 C 
HETATM   39  C3  UNL     1      -0.055   1.865 -18.922  1.00  0.00     0.019 C 
HETATM   40  C4  UNL     1      -2.221   1.516 -19.985  1.00  0.00     0.019 C 
ENDBRANCH  34  37
ENDBRANCH  29  31
BRANCH  29  41
HETATM   41  O1  UNL     1       1.188   3.339 -25.335  1.00  0.00    -0.345 OA
ATOM     42  H1  UNL     1       0.260   3.144 -25.269  1.00  0.00     0.219 HD
ENDBRANCH  29  41
ENDBRANCH  23  28
BRANCH  25  43
HETATM   43  C29 UNL     1       3.245  -0.480 -30.333  1.00  0.00     0.006 A 
HETATM   44  C30 UNL     1       3.927  -1.617 -30.715  1.00  0.00     0.016 A 
HETATM   45  C31 UNL     1       3.572  -2.358 -31.864  1.00  0.00     0.018 A 
HETATM   46  C32 UNL     1       2.514  -1.915 -32.604  1.00  0.00     0.087 A 
HETATM   47  N6  UNL     1       1.856  -0.799 -32.224  1.00  0.00    -0.374 N 
HETATM   48  C33 UNL     1       2.216  -0.099 -31.114  1.00  0.00     0.101 A 
ATOM     49  H6  UNL     1       1.069  -0.472 -32.783  1.00  0.00     0.164 HD
ENDBRANCH  25  43
ENDBRANCH  12  21
ENDBRANCH  10  11
ENDBRANCH   1   9
TORSDOF 8
ENDMDL
MODEL 2
REMARK VINA RESULT: -8.247028155      1.286      1.708
REMARK  8 active torsions:
REMARK  status: ('A' for Active; 'I' for Inactive)
REMARK    1  A    between atoms: C2_2  and  C5_5 
REMARK    2  A    between atoms: C8_8  and  C9_9 
REMARK    3  A    between atoms: C9_9  and  O1_10 
REMARK    4  A    between atoms: N1_12  and  C10_14 
REMARK    5  A    between atoms: C12_16  and  N2_17 
REMARK    6  A    between atoms: C17_26  and  C18_27 
REMARK    7  A    between atoms: C19_28  and  C20_29 
REMARK    8  A    between atoms: C28_38  and  C29_39 
ROOT
HETATM    1  C20 UNL     1       4.447  -0.398 -22.865  1.00  0.00    -0.035 A 
HETATM    2  C21 UNL     1       4.341   0.402 -21.724  1.00  0.00     0.011 A 
HETATM    3  C22 UNL     1       3.403   0.083 -20.760  1.00  0.00     0.002 A 
HETATM    4  C23 UNL     1       2.592  -1.011 -20.934  1.00  0.00     0.023 A 
HETATM    5  C24 UNL     1       2.693  -1.809 -22.049  1.00  0.00     0.045 A 
HETATM    6  C25 UNL     1       1.819  -2.923 -22.206  1.00  0.00     0.099 C 
HETATM    7  N5  UNL     1       1.070  -3.830 -22.314  1.00  0.00    -0.191 NA
HETATM    8  C26 UNL     1       3.630  -1.491 -23.019  1.00  0.00     0.034 A 
ENDROOT
BRANCH   1   9
HETATM    9  C19 UNL     1       5.379  -0.019 -23.884  1.00  0.00     0.014 C 
HETATM   10  C18 UNL     1       5.676  -0.629 -24.996  1.00  0.00     0.033 C 
BRANCH  10  11
HETATM   11  C17 UNL     1       6.664  -0.024 -25.900  1.00  0.00     0.071 A 
HETATM   12  N2  UNL     1       6.476   0.926 -26.768  1.00  0.00    -0.254 N 
HETATM   13  N3  UNL     1       7.694   1.256 -27.292  1.00  0.00    -0.277 N 
HETATM   14  C13 UNL     1       8.638   0.498 -26.746  1.00  0.00     0.133 A 
ATOM     15  H3  UNL     1       7.854   1.976 -27.996  1.00  0.00     0.189 HD
HETATM   16  N4  UNL     1       9.988   0.256 -26.727  1.00  0.00    -0.350 N 
HETATM   17  C16 UNL     1       8.054  -0.346 -25.838  1.00  0.00     0.039 A 
HETATM   18  C14 UNL     1      10.223  -0.724 -25.823  1.00  0.00     0.091 A 
ATOM     19  H4  UNL     1      10.690   0.732 -27.293  1.00  0.00     0.166 HD
HETATM   20  C15 UNL     1       9.033  -1.111 -25.261  1.00  0.00     0.034 A 
BRANCH  12  21
HETATM   21  C12 UNL     1       5.325   1.581 -27.326  1.00  0.00     0.062 A 
HETATM   22  C11 UNL     1       4.344   1.927 -26.449  1.00  0.00     0.080 A 
HETATM   23  C10 UNL     1       3.086   2.370 -26.942  1.00  0.00     0.109 A 
HETATM   24  N7  UNL     1       2.902   2.440 -28.273  1.00  0.00    -0.342 N 
HETATM   25  C28 UNL     1       3.849   2.114 -29.188  1.00  0.00     0.047 A 
ATOM     26  H7  UNL     1       1.995   2.759 -28.615  1.00  0.00     0.167 HD
HETATM   27  C27 UNL     1       5.066   1.681 -28.672  1.00  0.00     0.062 A 
BRANCH  23  28
HETATM   28  N1  UNL     1       2.178   2.598 -26.109  1.00  0.00    -0.323 N 
HETATM   29  C9  UNL     1       1.599   2.196 -25.037  1.00  0.00     0.151 C 
ATOM     30  H1  UNL     1       1.707   3.454 -26.404  1.00  0.00     0.169 HD
BRANCH  29  31
HETATM   31  C8  UNL     1       0.969   1.748 -23.868  1.00  0.00     0.015 A 
HETATM   32  C7  UNL     1       0.206   0.669 -23.546  1.00  0.00     0.016 A 
HETATM   33  C6  UNL     1      -0.351   0.477 -22.288  1.00  0.00     0.009 A 
HETATM   34  C5  UNL     1      -0.168   1.359 -21.299  1.00  0.00    -0.051 A 
HETATM   35  C35 UNL     1       0.594   2.491 -21.542  1.00  0.00     0.009 A 
HETATM   36  C34 UNL     1       1.135   2.674 -22.774  1.00  0.00     0.016 A 
BRANCH  34  37
HETATM   37  C2  UNL     1      -0.775   1.129 -19.948  1.00  0.00    -0.024 C 
HETATM   38  C1  UNL     1      -0.791  -0.351 -19.577  1.00  0.00     0.019 C 
HETATM   39  C3  UNL     1       0.005   1.879 -18.911  1.00  0.00     0.019 C 
HETATM   40  C4  UNL     1      -2.202   1.623 -19.913  1.00  0.00     0.019 C 
ENDBRANCH  34  37
ENDBRANCH  29  31
BRANCH  29  41
HETATM   41  O1  UNL     1       1.423   3.721 -24.606  1.00  0.00    -0.345 OA
ATOM     42  H1  UNL     1       2.235   3.966 -25.035  1.00  0.00     0.219 HD
ENDBRANCH  29  41
ENDBRANCH  23  28
BRANCH  25  43
HETATM   43  C29 UNL     1       3.580   2.119 -30.632  1.00  0.00     0.006 A 
HETATM   44  C30 UNL     1       3.954   3.193 -31.412  1.00  0.00     0.016 A 
HETATM   45  C31 UNL     1       3.786   3.201 -32.815  1.00  0.00     0.018 A 
HETATM   46  C32 UNL     1       3.233   2.096 -33.394  1.00  0.00     0.087 A 
HETATM   47  N6  UNL     1       2.865   1.052 -32.621  1.00  0.00    -0.374 N 
HETATM   48  C33 UNL     1       3.035   1.066 -31.271  1.00  0.00     0.101 A 
ATOM     49  H6  UNL     1       2.449   0.231 -33.060  1.00  0.00     0.164 HD
ENDBRANCH  25  43
ENDBRANCH  12  21
ENDBRANCH  10  11
ENDBRANCH   1   9
TORSDOF 8
ENDMDL
MODEL 3
REMARK VINA RESULT: -8.178145015      3.225      6.799
REMARK  8 active torsions:
REMARK  status: ('A' for Active; 'I' for Inactive)
REMARK    1  A    between atoms: C2_2  and  C5_5 
REMARK    2  A    between atoms: C8_8  and  C9_9 
REMARK    3  A    between atoms: C9_9  and  O1_10 
REMARK    4  A    between atoms: N1_12  and  C10_14 
REMARK    5  A    between atoms: C12_16  and  N2_17 
REMARK    6  A    between atoms: C17_26  and  C18_27 
REMARK    7  A    between atoms: C19_28  and  C20_29 
REMARK    8  A    between atoms: C28_38  and  C29_39 
ROOT
HETATM    1  C20 UNL     1       5.348  -0.083 -26.113  1.00  0.00    -0.035 A 
HETATM    2  C21 UNL     1       4.855  -1.082 -26.958  1.00  0.00     0.011 A 
HETATM    3  C22 UNL     1       5.703  -2.086 -27.385  1.00  0.00     0.002 A 
HETATM    4  C23 UNL     1       7.013  -2.091 -26.974  1.00  0.00     0.023 A 
HETATM    5  C24 UNL     1       7.507  -1.120 -26.137  1.00  0.00     0.045 A 
HETATM    6  C25 UNL     1       8.878  -1.145 -25.751  1.00  0.00     0.099 C 
HETATM    7  N5  UNL     1      10.022  -1.185 -25.460  1.00  0.00    -0.191 NA
HETATM    8  C26 UNL     1       6.661  -0.109 -25.709  1.00  0.00     0.034 A 
ENDROOT
BRANCH   1   9
HETATM    9  C19 UNL     1       4.475   0.985 -25.729  1.00  0.00     0.014 C 
HETATM   10  C18 UNL     1       3.496   1.526 -26.394  1.00  0.00     0.033 C 
BRANCH  10  11
HETATM   11  C17 UNL     1       2.722   2.610 -25.770  1.00  0.00     0.071 A 
HETATM   12  N2  UNL     1       1.857   2.519 -24.803  1.00  0.00    -0.254 N 
HETATM   13  N3  UNL     1       1.483   3.788 -24.463  1.00  0.00    -0.277 N 
HETATM   14  C13 UNL     1       2.118   4.666 -25.231  1.00  0.00     0.133 A 
ATOM     15  H3  UNL     1       0.815   4.026 -23.729  1.00  0.00     0.189 HD
HETATM   16  N4  UNL     1       2.286   6.005 -25.472  1.00  0.00    -0.350 N 
HETATM   17  C16 UNL     1       2.937   3.985 -26.093  1.00  0.00     0.039 A 
HETATM   18  C14 UNL     1       3.191   6.139 -26.471  1.00  0.00     0.091 A 
ATOM     19  H4  UNL     1       1.813   6.766 -24.985  1.00  0.00     0.166 HD
HETATM   20  C15 UNL     1       3.605   4.893 -26.869  1.00  0.00     0.034 A 
BRANCH  12  21
HETATM   21  C12 UNL     1       1.185   1.437 -24.138  1.00  0.00     0.062 A 
HETATM   22  C11 UNL     1       0.328   1.782 -23.140  1.00  0.00     0.080 A 
HETATM   23  C10 UNL     1      -0.201   0.774 -22.289  1.00  0.00     0.109 A 
HETATM   24  N7  UNL     1       0.158  -0.505 -22.502  1.00  0.00    -0.342 N 
HETATM   25  C28 UNL     1       1.003  -0.901 -23.488  1.00  0.00     0.047 A 
ATOM     26  H7  UNL     1      -0.227  -1.220 -21.885  1.00  0.00     0.167 HD
HETATM   27  C27 UNL     1       1.505   0.110 -24.299  1.00  0.00     0.062 A 
BRANCH  23  28
HETATM   28  N1  UNL     1      -0.918   1.135 -21.327  1.00  0.00    -0.323 N 
HETATM   29  C9  UNL     1      -1.993   1.743 -20.978  1.00  0.00     0.151 C 
ATOM     30  H1  UNL     1      -0.460   0.815 -20.473  1.00  0.00     0.169 HD
BRANCH  29  31
HETATM   31  C8  UNL     1      -3.166   2.412 -20.604  1.00  0.00     0.015 A 
HETATM   32  C7  UNL     1      -4.222   2.112 -19.801  1.00  0.00     0.016 A 
HETATM   33  C6  UNL     1      -5.312   2.956 -19.629  1.00  0.00     0.009 A 
HETATM   34  C5  UNL     1      -5.391   4.136 -20.254  1.00  0.00    -0.051 A 
HETATM   35  C35 UNL     1      -4.358   4.519 -21.096  1.00  0.00     0.009 A 
HETATM   36  C34 UNL     1      -3.296   3.690 -21.261  1.00  0.00     0.016 A 
BRANCH  34  37
HETATM   37  C2  UNL     1      -6.575   5.033 -20.050  1.00  0.00    -0.024 C 
HETATM   38  C1  UNL     1      -7.201   4.842 -18.672  1.00  0.00     0.019 C 
HETATM   39  C3  UNL     1      -6.153   6.464 -20.195  1.00  0.00     0.019 C 
HETATM   40  C4  UNL     1      -7.642   4.749 -21.080  1.00  0.00     0.019 C 
ENDBRANCH  34  37
ENDBRANCH  29  31
BRANCH  29  41
HETATM   41  O1  UNL     1      -2.170   0.676 -19.807  1.00  0.00    -0.345 OA
ATOM     42  H1  UNL     1      -2.218  -0.041 -20.429  1.00  0.00     0.219 HD
ENDBRANCH  29  41
ENDBRANCH  23  28
BRANCH  25  43
HETATM   43  C29 UNL     1       1.440  -2.297 -23.632  1.00  0.00     0.006 A 
HETATM   44  C30 UNL     1       2.484  -2.623 -24.473  1.00  0.00     0.016 A 
HETATM   45  C31 UNL     1       2.986  -3.939 -24.576  1.00  0.00     0.018 A 
HETATM   46  C32 UNL     1       2.401  -4.904 -23.808  1.00  0.00     0.087 A 
HETATM   47  N6  UNL     1       1.377  -4.576 -22.991  1.00  0.00    -0.374 N 
HETATM   48  C33 UNL     1       0.909  -3.301 -22.908  1.00  0.00     0.101 A 
ATOM     49  H6  UNL     1       0.944  -5.302 -22.422  1.00  0.00     0.164 HD
ENDBRANCH  25  43
ENDBRANCH  12  21
ENDBRANCH  10  11
ENDBRANCH   1   9
TORSDOF 8
ENDMDL
MODEL 4
REMARK VINA RESULT: -8.089506605      3.396      6.627
REMARK  8 active torsions:
REMARK  status: ('A' for Active; 'I' for Inactive)
REMARK    1  A    between atoms: C2_2  and  C5_5 
REMARK    2  A    between atoms: C8_8  and  C9_9 
REMARK    3  A    between atoms: C9_9  and  O1_10 
REMARK    4  A    between atoms: N1_12  and  C10_14 
REMARK    5  A    between atoms: C12_16  and  N2_17 
REMARK    6  A    between atoms: C17_26  and  C18_27 
REMARK    7  A    between atoms: C19_28  and  C20_29 
REMARK    8  A    between atoms: C28_38  and  C29_39 
ROOT
HETATM    1  C20 UNL     1       5.385  -0.095 -26.250  1.00  0.00    -0.035 A 
HETATM    2  C21 UNL     1       6.763   0.064 -26.081  1.00  0.00     0.011 A 
HETATM    3  C22 UNL     1       7.609  -0.975 -26.417  1.00  0.00     0.002 A 
HETATM    4  C23 UNL     1       7.088  -2.145 -26.912  1.00  0.00     0.023 A 
HETATM    5  C24 UNL     1       5.736  -2.309 -27.090  1.00  0.00     0.045 A 
HETATM    6  C25 UNL     1       5.229  -3.547 -27.584  1.00  0.00     0.099 C 
HETATM    7  N5  UNL     1       4.840  -4.588 -27.982  1.00  0.00    -0.191 NA
HETATM    8  C26 UNL     1       4.883  -1.271 -26.751  1.00  0.00     0.034 A 
ENDROOT
BRANCH   1   9
HETATM    9  C19 UNL     1       4.516   0.967 -25.839  1.00  0.00     0.014 C 
HETATM   10  C18 UNL     1       3.469   1.453 -26.441  1.00  0.00     0.033 C 
BRANCH  10  11
HETATM   11  C17 UNL     1       2.719   2.543 -25.801  1.00  0.00     0.071 A 
HETATM   12  N2  UNL     1       1.871   2.460 -24.819  1.00  0.00    -0.254 N 
HETATM   13  N3  UNL     1       1.517   3.732 -24.468  1.00  0.00    -0.277 N 
HETATM   14  C13 UNL     1       2.148   4.604 -25.244  1.00  0.00     0.133 A 
ATOM     15  H3  UNL     1       0.865   3.974 -23.722  1.00  0.00     0.189 HD
HETATM   16  N4  UNL     1       2.328   5.942 -25.485  1.00  0.00    -0.350 N 
HETATM   17  C16 UNL     1       2.944   3.917 -26.123  1.00  0.00     0.039 A 
HETATM   18  C14 UNL     1       3.216   6.069 -26.499  1.00  0.00     0.091 A 
ATOM     19  H4  UNL     1       1.872   6.708 -24.987  1.00  0.00     0.166 HD
HETATM   20  C15 UNL     1       3.609   4.820 -26.909  1.00  0.00     0.034 A 
BRANCH  12  21
HETATM   21  C12 UNL     1       1.198   1.383 -24.146  1.00  0.00     0.062 A 
HETATM   22  C11 UNL     1       0.353   1.736 -23.139  1.00  0.00     0.080 A 
HETATM   23  C10 UNL     1      -0.174   0.732 -22.281  1.00  0.00     0.109 A 
HETATM   24  N7  UNL     1       0.174  -0.549 -22.495  1.00  0.00    -0.342 N 
HETATM   25  C28 UNL     1       1.007  -0.953 -23.489  1.00  0.00     0.047 A 
ATOM     26  H7  UNL     1      -0.210  -1.261 -21.874  1.00  0.00     0.167 HD
HETATM   27  C27 UNL     1       1.508   0.054 -24.306  1.00  0.00     0.062 A 
BRANCH  23  28
HETATM   28  N1  UNL     1      -0.880   1.100 -21.314  1.00  0.00    -0.323 N 
HETATM   29  C9  UNL     1      -1.952   1.708 -20.956  1.00  0.00     0.151 C 
ATOM     30  H1  UNL     1      -0.410   0.789 -20.463  1.00  0.00     0.169 HD
BRANCH  29  31
HETATM   31  C8  UNL     1      -3.122   2.376 -20.572  1.00  0.00     0.015 A 
HETATM   32  C7  UNL     1      -4.175   2.075 -19.765  1.00  0.00     0.016 A 
HETATM   33  C6  UNL     1      -5.263   2.919 -19.583  1.00  0.00     0.009 A 
HETATM   34  C5  UNL     1      -5.343   4.102 -20.203  1.00  0.00    -0.051 A 
HETATM   35  C35 UNL     1      -4.314   4.487 -21.049  1.00  0.00     0.009 A 
HETATM   36  C34 UNL     1      -3.254   3.657 -21.224  1.00  0.00     0.016 A 
BRANCH  34  37
HETATM   37  C2  UNL     1      -6.525   4.999 -19.988  1.00  0.00    -0.024 C 
HETATM   38  C1  UNL     1      -7.154   4.791 -18.614  1.00  0.00     0.019 C 
HETATM   39  C3  UNL     1      -6.099   6.431 -20.113  1.00  0.00     0.019 C 
HETATM   40  C4  UNL     1      -7.592   4.732 -21.023  1.00  0.00     0.019 C 
ENDBRANCH  34  37
ENDBRANCH  29  31
BRANCH  29  41
HETATM   41  O1  UNL     1      -2.110   0.651 -19.773  1.00  0.00    -0.345 OA
ATOM     42  H1  UNL     1      -1.533   0.034 -20.209  1.00  0.00     0.219 HD
ENDBRANCH  29  41
ENDBRANCH  23  28
BRANCH  25  43
HETATM   43  C29 UNL     1       1.434  -2.351 -23.634  1.00  0.00     0.006 A 
HETATM   44  C30 UNL     1       2.442  -2.690 -24.512  1.00  0.00     0.016 A 
HETATM   45  C31 UNL     1       2.935  -4.009 -24.621  1.00  0.00     0.018 A 
HETATM   46  C32 UNL     1       2.379  -4.963 -23.818  1.00  0.00     0.087 A 
HETATM   47  N6  UNL     1       1.389  -4.623 -22.966  1.00  0.00    -0.374 N 
HETATM   48  C33 UNL     1       0.928  -3.345 -22.879  1.00  0.00     0.101 A 
ATOM     49  H6  UNL     1       0.976  -5.341 -22.372  1.00  0.00     0.164 HD
ENDBRANCH  25  43
ENDBRANCH  12  21
ENDBRANCH  10  11
ENDBRANCH   1   9
TORSDOF 8
ENDMDL
MODEL 5
REMARK VINA RESULT: -8.068270064      3.341      6.970
REMARK  8 active torsions:
REMARK  status: ('A' for Active; 'I' for Inactive)
REMARK    1  A    between atoms: C2_2  and  C5_5 
REMARK    2  A    between atoms: C8_8  and  C9_9 
REMARK    3  A    between atoms: C9_9  and  O1_10 
REMARK    4  A    between atoms: N1_12  and  C10_14 
REMARK    5  A    between atoms: C12_16  and  N2_17 
REMARK    6  A    between atoms: C17_26  and  C18_27 
REMARK    7  A    between atoms: C19_28  and  C20_29 
REMARK    8  A    between atoms: C28_38  and  C29_39 
ROOT
HETATM    1  C20 UNL     1       2.565   0.966 -29.063  1.00  0.00    -0.035 A 
HETATM    2  C21 UNL     1       2.152   1.113 -30.391  1.00  0.00     0.011 A 
HETATM    3  C22 UNL     1       2.387   0.090 -31.289  1.00  0.00     0.002 A 
HETATM    4  C23 UNL     1       3.020  -1.054 -30.868  1.00  0.00     0.023 A 
HETATM    5  C24 UNL     1       3.422  -1.213 -29.564  1.00  0.00     0.045 A 
HETATM    6  C25 UNL     1       4.097  -2.404 -29.169  1.00  0.00     0.099 C 
HETATM    7  N5  UNL     1       4.666  -3.397 -28.876  1.00  0.00    -0.191 NA
HETATM    8  C26 UNL     1       3.192  -0.187 -28.661  1.00  0.00     0.034 A 
ENDROOT
BRANCH   1   9
HETATM    9  C19 UNL     1       2.370   2.060 -28.159  1.00  0.00     0.014 C 
HETATM   10  C18 UNL     1       3.258   2.801 -27.562  1.00  0.00     0.033 C 
BRANCH  10  11
HETATM   11  C17 UNL     1       2.805   3.890 -26.685  1.00  0.00     0.071 A 
HETATM   12  N2  UNL     1       2.315   3.797 -25.484  1.00  0.00    -0.254 N 
HETATM   13  N3  UNL     1       2.152   5.066 -25.003  1.00  0.00    -0.277 N 
HETATM   14  C13 UNL     1       2.540   5.946 -25.919  1.00  0.00     0.133 A 
ATOM     15  H3  UNL     1       1.787   5.301 -24.080  1.00  0.00     0.189 HD
HETATM   16  N4  UNL     1       2.694   7.286 -26.168  1.00  0.00    -0.350 N 
HETATM   17  C16 UNL     1       2.977   5.267 -27.025  1.00  0.00     0.039 A 
HETATM   18  C14 UNL     1       3.214   7.422 -27.411  1.00  0.00     0.091 A 
ATOM     19  H4  UNL     1       2.459   8.046 -25.530  1.00  0.00     0.166 HD
HETATM   20  C15 UNL     1       3.396   6.177 -27.959  1.00  0.00     0.034 A 
BRANCH  12  21
HETATM   21  C12 UNL     1       1.845   2.719 -24.658  1.00  0.00     0.062 A 
HETATM   22  C11 UNL     1       1.029   3.062 -23.625  1.00  0.00     0.080 A 
HETATM   23  C10 UNL     1       0.705   2.094 -22.635  1.00  0.00     0.109 A 
HETATM   24  N7  UNL     1       1.214   0.854 -22.753  1.00  0.00    -0.342 N 
HETATM   25  C28 UNL     1       2.025   0.461 -23.767  1.00  0.00     0.047 A 
ATOM     26  H7  UNL     1       0.975   0.168 -22.037  1.00  0.00     0.167 HD
HETATM   27  C27 UNL     1       2.325   1.433 -24.715  1.00  0.00     0.062 A 
BRANCH  23  28
HETATM   28  N1  UNL     1       0.022   2.466 -21.653  1.00  0.00    -0.323 N 
HETATM   29  C9  UNL     1      -1.160   2.574 -21.166  1.00  0.00     0.151 C 
ATOM     30  H1  UNL     1       0.671   2.833 -20.956  1.00  0.00     0.169 HD
BRANCH  29  31
HETATM   31  C8  UNL     1      -2.455   2.693 -20.642  1.00  0.00     0.015 A 
HETATM   32  C7  UNL     1      -3.162   2.036 -19.683  1.00  0.00     0.016 A 
HETATM   33  C6  UNL     1      -4.485   2.329 -19.377  1.00  0.00     0.009 A 
HETATM   34  C5  UNL     1      -5.156   3.293 -20.018  1.00  0.00    -0.051 A 
HETATM   35  C35 UNL     1      -4.511   4.010 -21.014  1.00  0.00     0.009 A 
HETATM   36  C34 UNL     1      -3.219   3.719 -21.310  1.00  0.00     0.016 A 
BRANCH  34  37
HETATM   37  C2  UNL     1      -6.581   3.595 -19.667  1.00  0.00    -0.024 C 
HETATM   38  C1  UNL     1      -7.309   4.304 -20.806  1.00  0.00     0.019 C 
HETATM   39  C3  UNL     1      -7.304   2.320 -19.351  1.00  0.00     0.019 C 
HETATM   40  C4  UNL     1      -6.653   4.490 -18.452  1.00  0.00     0.019 C 
ENDBRANCH  34  37
ENDBRANCH  29  31
BRANCH  29  41
HETATM   41  O1  UNL     1      -0.560   2.222 -19.731  1.00  0.00    -0.345 OA
ATOM     42  H1  UNL     1      -1.425   2.040 -19.382  1.00  0.00     0.219 HD
ENDBRANCH  29  41
ENDBRANCH  23  28
BRANCH  25  43
HETATM   43  C29 UNL     1       2.632  -0.877 -23.812  1.00  0.00     0.006 A 
HETATM   44  C30 UNL     1       3.204  -1.350 -24.975  1.00  0.00     0.016 A 
HETATM   45  C31 UNL     1       3.868  -2.595 -25.036  1.00  0.00     0.018 A 
HETATM   46  C32 UNL     1       3.933  -3.337 -23.892  1.00  0.00     0.087 A 
HETATM   47  N6  UNL     1       3.366  -2.867 -22.760  1.00  0.00    -0.374 N 
HETATM   48  C33 UNL     1       2.730  -1.665 -22.724  1.00  0.00     0.101 A 
ATOM     49  H6  UNL     1       3.416  -3.428 -21.910  1.00  0.00     0.164 HD
ENDBRANCH  25  43
ENDBRANCH  12  21
ENDBRANCH  10  11
ENDBRANCH   1   9
TORSDOF 8
ENDMDL
