MODEL 1
REMARK VINA RESULT: -11.271683156      0.000      0.000
REMARK  7 active torsions:
REMARK  status: ('A' for Active; 'I' for Inactive)
REMARK       I    between atoms: C1_2  and  N1_3 
REMARK    1  A    between atoms: C1_2  and  C27_40 
REMARK    2  A    between atoms: N1_3  and  C2_5 
REMARK    3  A    between atoms: C3_8  and  N3_9 
REMARK    4  A    between atoms: N3_9  and  C4_11 
REMARK    5  A    between atoms: C4_11  and  C5_12 
REMARK    6  A    between atoms: N4_28  and  C20_29 
REMARK    7  A    between atoms: C20_29  and  C21_30 
ROOT
HETATM    1  C2  UNL     1      -3.009   4.264 -21.599  1.00  0.00     0.688 A 
HETATM    2  N2  UNL     1      -3.469   5.447 -22.043  1.00  0.00    -0.176 N 
ATOM      3  H2  UNL     1      -2.813   6.214 -22.191  1.00  0.00     0.186 HD
HETATM    4  C3  UNL     1      -4.777   5.641 -22.297  1.00  0.00     0.132 A 
HETATM    5  C13 UNL     1      -5.620   4.566 -22.078  1.00  0.00     0.066 A 
HETATM    6  C14 UNL     1      -6.989   4.457 -22.249  1.00  0.00     0.009 A 
HETATM    7  C15 UNL     1      -7.939   5.356 -22.681  1.00  0.00     0.015 A 
HETATM    8  C16 UNL     1      -9.260   4.976 -22.764  1.00  0.00     0.001 A 
HETATM    9  C17 UNL     1      -9.562   3.682 -22.400  1.00  0.00     0.002 A 
HETATM   10  C18 UNL     1      -8.607   2.786 -21.967  1.00  0.00     0.030 A 
HETATM   11  C19 UNL     1      -7.287   3.162 -21.883  1.00  0.00     0.047 A 
HETATM   12  N4  UNL     1      -6.189   2.485 -21.501  1.00  0.00    -0.327 N 
HETATM   13  C26 UNL     1      -5.162   3.351 -21.623  1.00  0.00     0.139 A 
HETATM   14  N6  UNL     1      -3.839   3.232 -21.391  1.00  0.00    -0.175 N 
ATOM     15  H6  UNL     1      -3.465   2.345 -21.054  1.00  0.00     0.186 HD
ENDROOT
BRANCH   1  16
HETATM   16  N1  UNL     1      -1.753   4.062 -21.350  1.00  0.00    -0.155 N 
HETATM   17  C1  UNL     1      -1.263   2.961 -20.615  1.00  0.00     0.269 C 
HETATM   18  O1  UNL     1      -1.538   2.907 -19.388  1.00  0.00    -0.267 OA
ATOM     19  H1  UNL     1      -1.078   4.738 -21.708  1.00  0.00     0.187 HD
BRANCH  17  20
HETATM   20  C27 UNL     1      -0.464   1.898 -21.207  1.00  0.00     0.033 A 
HETATM   21  C28 UNL     1      -0.234   1.868 -22.573  1.00  0.00     0.018 A 
HETATM   22  C29 UNL     1       0.522   0.860 -23.124  1.00  0.00     0.013 A 
HETATM   23  C30 UNL     1       1.074  -0.150 -22.348  1.00  0.00    -0.026 A 
HETATM   24  C31 UNL     1       1.833  -1.156 -22.923  1.00  0.00     0.012 A 
HETATM   25  C35 UNL     1       0.836  -0.106 -20.991  1.00  0.00    -0.025 A 
HETATM   26  C32 UNL     1       2.370  -2.144 -22.145  1.00  0.00     0.001 A 
HETATM   27  C33 UNL     1       2.156  -2.137 -20.790  1.00  0.00     0.001 A 
HETATM   28  C34 UNL     1       1.397  -1.126 -20.228  1.00  0.00     0.012 A 
HETATM   29  C36 UNL     1       0.077   0.903 -20.423  1.00  0.00     0.029 A 
ENDBRANCH  17  20
ENDBRANCH   1  16
BRANCH   4  30
HETATM   30  N3  UNL     1      -5.202   6.779 -22.723  1.00  0.00    -0.369 N 
ATOM     31  H3  UNL     1      -5.233   6.927 -23.732  1.00  0.00     0.161 HD
BRANCH  30  32
HETATM   32  C4  UNL     1      -5.633   7.849 -21.881  1.00  0.00     0.186 C 
BRANCH  32  33
HETATM   33  C5  UNL     1      -6.572   8.696 -22.695  1.00  0.00     0.072 A 
HETATM   34  C6  UNL     1      -6.859   8.590 -24.033  1.00  0.00     0.048 A 
HETATM   35  C7  UNL     1      -7.772   9.582 -24.321  1.00  0.00     0.000 A 
HETATM   36  C8  UNL     1      -8.414   9.961 -25.479  1.00  0.00     0.014 A 
HETATM   37  C12 UNL     1      -8.000  10.256 -23.122  1.00  0.00     0.086 A 
HETATM   38  C9  UNL     1      -9.306  11.028 -25.467  1.00  0.00     0.001 A 
HETATM   39  C10 UNL     1      -9.526  11.689 -24.277  1.00  0.00     0.003 A 
HETATM   40  C11 UNL     1      -8.885  11.312 -23.118  1.00  0.00     0.038 A 
HETATM   41  O2  UNL     1      -7.257   9.676 -22.208  1.00  0.00    -0.313 OA
ENDBRANCH  32  33
ENDBRANCH  30  32
ENDBRANCH   4  30
BRANCH  12  42
HETATM   42  C20 UNL     1      -6.115   1.102 -21.047  1.00  0.00     0.170 C 
BRANCH  42  43
HETATM   43  C21 UNL     1      -5.177   0.890 -19.957  1.00  0.00    -0.025 A 
HETATM   44  C22 UNL     1      -4.009   0.188 -20.139  1.00  0.00     0.011 A 
HETATM   45  C23 UNL     1      -3.100  -0.026 -19.094  1.00  0.00     0.018 A 
HETATM   46  C24 UNL     1      -3.450   0.511 -17.868  1.00  0.00     0.087 A 
HETATM   47  N5  UNL     1      -4.591   1.197 -17.686  1.00  0.00    -0.375 N 
HETATM   48  C25 UNL     1      -5.429   1.380 -18.705  1.00  0.00     0.096 A 
ATOM     49  H5  UNL     1      -4.815   1.579 -16.767  1.00  0.00     0.164 HD
ENDBRANCH  42  43
ENDBRANCH  12  42
TORSDOF 7
ENDMDL
MODEL 2
REMARK VINA RESULT: -11.153232016      2.266      7.712
REMARK  7 active torsions:
REMARK  status: ('A' for Active; 'I' for Inactive)
REMARK       I    between atoms: C1_2  and  N1_3 
REMARK    1  A    between atoms: C1_2  and  C27_40 
REMARK    2  A    between atoms: N1_3  and  C2_5 
REMARK    3  A    between atoms: C3_8  and  N3_9 
REMARK    4  A    between atoms: N3_9  and  C4_11 
REMARK    5  A    between atoms: C4_11  and  C5_12 
REMARK    6  A    between atoms: N4_28  and  C20_29 
REMARK    7  A    between atoms: C20_29  and  C21_30 
ROOT
HETATM    1  C2  UNL     1      -4.533   6.969 -21.762  1.00  0.00     0.688 A 
HETATM    2  N2  UNL     1      -5.433   7.007 -20.763  1.00  0.00    -0.176 N 
ATOM      3  H2  UNL     1      -5.934   7.876 -20.575  1.00  0.00     0.186 HD
HETATM    4  C3  UNL     1      -5.687   5.923 -20.006  1.00  0.00     0.132 A 
HETATM    5  C13 UNL     1      -4.978   4.773 -20.307  1.00  0.00     0.066 A 
HETATM    6  C14 UNL     1      -5.021   3.521 -19.721  1.00  0.00     0.009 A 
HETATM    7  C15 UNL     1      -5.762   3.017 -18.675  1.00  0.00     0.015 A 
HETATM    8  C16 UNL     1      -5.609   1.702 -18.293  1.00  0.00     0.001 A 
HETATM    9  C17 UNL     1      -4.697   0.949 -18.998  1.00  0.00     0.002 A 
HETATM   10  C18 UNL     1      -3.956   1.458 -20.044  1.00  0.00     0.030 A 
HETATM   11  C19 UNL     1      -4.107   2.770 -20.429  1.00  0.00     0.047 A 
HETATM   12  N4  UNL     1      -3.515   3.488 -21.400  1.00  0.00    -0.327 N 
HETATM   13  C26 UNL     1      -4.053   4.723 -21.325  1.00  0.00     0.139 A 
HETATM   14  N6  UNL     1      -3.853   5.848 -22.040  1.00  0.00    -0.175 N 
ATOM     15  H6  UNL     1      -3.176   5.846 -22.802  1.00  0.00     0.186 HD
ENDROOT
BRANCH   1  16
HETATM   16  N1  UNL     1      -4.278   8.005 -22.499  1.00  0.00    -0.155 N 
HETATM   17  C1  UNL     1      -4.212   7.970 -23.909  1.00  0.00     0.269 C 
HETATM   18  O1  UNL     1      -3.263   7.334 -24.435  1.00  0.00    -0.267 OA
ATOM     19  H1  UNL     1      -4.115   8.898 -22.033  1.00  0.00     0.187 HD
BRANCH  17  20
HETATM   20  C27 UNL     1      -5.182   8.631 -24.769  1.00  0.00     0.033 A 
HETATM   21  C28 UNL     1      -5.213   8.367 -26.129  1.00  0.00     0.018 A 
HETATM   22  C29 UNL     1      -6.133   8.997 -26.934  1.00  0.00     0.013 A 
HETATM   23  C30 UNL     1      -7.050   9.906 -26.427  1.00  0.00    -0.026 A 
HETATM   24  C31 UNL     1      -7.969  10.529 -27.256  1.00  0.00     0.012 A 
HETATM   25  C35 UNL     1      -7.007  10.158 -25.072  1.00  0.00    -0.025 A 
HETATM   26  C32 UNL     1      -8.866  11.423 -26.740  1.00  0.00     0.001 A 
HETATM   27  C33 UNL     1      -8.856  11.702 -25.397  1.00  0.00     0.001 A 
HETATM   28  C34 UNL     1      -7.933  11.072 -24.580  1.00  0.00     0.012 A 
HETATM   29  C36 UNL     1      -6.086   9.532 -24.251  1.00  0.00     0.029 A 
ENDBRANCH  17  20
ENDBRANCH   1  16
BRANCH   4  30
HETATM   30  N3  UNL     1      -6.552   5.974 -19.055  1.00  0.00    -0.369 N 
ATOM     31  H3  UNL     1      -6.242   6.329 -18.150  1.00  0.00     0.161 HD
BRANCH  30  32
HETATM   32  C4  UNL     1      -7.916   5.568 -19.178  1.00  0.00     0.186 C 
BRANCH  32  33
HETATM   33  C5  UNL     1      -8.391   6.036 -20.526  1.00  0.00     0.072 A 
HETATM   34  C6  UNL     1      -8.509   5.305 -21.681  1.00  0.00     0.048 A 
HETATM   35  C7  UNL     1      -8.984   6.165 -22.647  1.00  0.00     0.000 A 
HETATM   36  C8  UNL     1      -9.294   6.003 -23.980  1.00  0.00     0.014 A 
HETATM   37  C12 UNL     1      -9.135   7.402 -22.022  1.00  0.00     0.086 A 
HETATM   38  C9  UNL     1      -9.766   7.079 -24.724  1.00  0.00     0.001 A 
HETATM   39  C10 UNL     1      -9.912   8.299 -24.098  1.00  0.00     0.003 A 
HETATM   40  C11 UNL     1      -9.603   8.463 -22.766  1.00  0.00     0.038 A 
HETATM   41  O2  UNL     1      -8.766   7.248 -20.772  1.00  0.00    -0.313 OA
ENDBRANCH  32  33
ENDBRANCH  30  32
ENDBRANCH   4  30
BRANCH  12  42
HETATM   42  C20 UNL     1      -2.500   3.035 -22.343  1.00  0.00     0.170 C 
BRANCH  42  43
HETATM   43  C21 UNL     1      -1.308   2.497 -21.709  1.00  0.00    -0.025 A 
HETATM   44  C22 UNL     1      -0.686   3.153 -20.672  1.00  0.00     0.011 A 
HETATM   45  C23 UNL     1       0.467   2.646 -20.058  1.00  0.00     0.018 A 
HETATM   46  C24 UNL     1       0.942   1.446 -20.557  1.00  0.00     0.087 A 
HETATM   47  N5  UNL     1       0.337   0.802 -21.570  1.00  0.00    -0.375 N 
HETATM   48  C25 UNL     1      -0.758   1.317 -22.128  1.00  0.00     0.096 A 
ATOM     49  H5  UNL     1       0.716  -0.080 -21.912  1.00  0.00     0.164 HD
ENDBRANCH  42  43
ENDBRANCH  12  42
TORSDOF 7
ENDMDL
MODEL 3
REMARK VINA RESULT: -11.098042882      2.126      7.987
REMARK  7 active torsions:
REMARK  status: ('A' for Active; 'I' for Inactive)
REMARK       I    between atoms: C1_2  and  N1_3 
REMARK    1  A    between atoms: C1_2  and  C27_40 
REMARK    2  A    between atoms: N1_3  and  C2_5 
REMARK    3  A    between atoms: C3_8  and  N3_9 
REMARK    4  A    between atoms: N3_9  and  C4_11 
REMARK    5  A    between atoms: C4_11  and  C5_12 
REMARK    6  A    between atoms: N4_28  and  C20_29 
REMARK    7  A    between atoms: C20_29  and  C21_30 
ROOT
HETATM    1  C2  UNL     1      -3.869   6.019 -21.750  1.00  0.00     0.688 A 
HETATM    2  N2  UNL     1      -5.041   5.371 -21.626  1.00  0.00    -0.176 N 
ATOM      3  H2  UNL     1      -5.908   5.856 -21.859  1.00  0.00     0.186 HD
HETATM    4  C3  UNL     1      -5.095   4.094 -21.201  1.00  0.00     0.132 A 
HETATM    5  C13 UNL     1      -3.890   3.486 -20.899  1.00  0.00     0.066 A 
HETATM    6  C14 UNL     1      -3.626   2.203 -20.451  1.00  0.00     0.009 A 
HETATM    7  C15 UNL     1      -4.450   1.138 -20.166  1.00  0.00     0.015 A 
HETATM    8  C16 UNL     1      -3.911  -0.053 -19.732  1.00  0.00     0.001 A 
HETATM    9  C17 UNL     1      -2.541  -0.110 -19.606  1.00  0.00     0.002 A 
HETATM   10  C18 UNL     1      -1.720   0.960 -19.892  1.00  0.00     0.030 A 
HETATM   11  C19 UNL     1      -2.254   2.151 -20.325  1.00  0.00     0.047 A 
HETATM   12  N4  UNL     1      -1.676   3.317 -20.666  1.00  0.00    -0.327 N 
HETATM   13  C26 UNL     1      -2.685   4.139 -21.020  1.00  0.00     0.139 A 
HETATM   14  N6  UNL     1      -2.710   5.416 -21.452  1.00  0.00    -0.175 N 
ATOM     15  H6  UNL     1      -1.835   5.930 -21.554  1.00  0.00     0.186 HD
ENDROOT
BRANCH   1  16
HETATM   16  N1  UNL     1      -3.801   7.248 -22.157  1.00  0.00    -0.155 N 
HETATM   17  C1  UNL     1      -4.059   7.652 -23.485  1.00  0.00     0.269 C 
HETATM   18  O1  UNL     1      -3.249   7.288 -24.376  1.00  0.00    -0.267 OA
ATOM     19  H1  UNL     1      -3.546   7.965 -21.478  1.00  0.00     0.187 HD
BRANCH  17  20
HETATM   20  C27 UNL     1      -5.208   8.462 -23.863  1.00  0.00     0.033 A 
HETATM   21  C28 UNL     1      -5.297   9.009 -25.133  1.00  0.00     0.018 A 
HETATM   22  C29 UNL     1      -6.386   9.773 -25.481  1.00  0.00     0.013 A 
HETATM   23  C30 UNL     1      -7.420  10.024 -24.591  1.00  0.00    -0.026 A 
HETATM   24  C31 UNL     1      -8.509  10.796 -24.962  1.00  0.00     0.012 A 
HETATM   25  C35 UNL     1      -7.317   9.473 -23.331  1.00  0.00    -0.025 A 
HETATM   26  C32 UNL     1      -9.519  11.034 -24.072  1.00  0.00     0.001 A 
HETATM   27  C33 UNL     1      -9.454  10.504 -22.808  1.00  0.00     0.001 A 
HETATM   28  C34 UNL     1      -8.362   9.734 -22.450  1.00  0.00     0.012 A 
HETATM   29  C36 UNL     1      -6.226   8.702 -22.967  1.00  0.00     0.029 A 
ENDBRANCH  17  20
ENDBRANCH   1  16
BRANCH   4  30
HETATM   30  N3  UNL     1      -6.225   3.486 -21.089  1.00  0.00    -0.369 N 
ATOM     31  H3  UNL     1      -6.257   2.495 -21.327  1.00  0.00     0.161 HD
BRANCH  30  32
HETATM   32  C4  UNL     1      -7.437   4.105 -20.654  1.00  0.00     0.186 C 
BRANCH  32  33
HETATM   33  C5  UNL     1      -7.971   4.887 -21.823  1.00  0.00     0.072 A 
HETATM   34  C6  UNL     1      -9.126   5.627 -21.887  1.00  0.00     0.048 A 
HETATM   35  C7  UNL     1      -9.187   6.155 -23.158  1.00  0.00     0.000 A 
HETATM   36  C8  UNL     1     -10.099   6.966 -23.795  1.00  0.00     0.014 A 
HETATM   37  C12 UNL     1      -8.045   5.704 -23.819  1.00  0.00     0.086 A 
HETATM   38  C9  UNL     1      -9.893   7.349 -25.116  1.00  0.00     0.001 A 
HETATM   39  C10 UNL     1      -8.761   6.898 -25.762  1.00  0.00     0.003 A 
HETATM   40  C11 UNL     1      -7.847   6.087 -25.127  1.00  0.00     0.038 A 
HETATM   41  O2  UNL     1      -7.377   4.961 -22.967  1.00  0.00    -0.313 OA
ENDBRANCH  32  33
ENDBRANCH  30  32
ENDBRANCH   4  30
BRANCH  12  42
HETATM   42  C20 UNL     1      -0.253   3.636 -20.656  1.00  0.00     0.170 C 
BRANCH  42  43
HETATM   43  C21 UNL     1       0.536   2.830 -21.573  1.00  0.00    -0.025 A 
HETATM   44  C22 UNL     1       1.528   1.990 -21.123  1.00  0.00     0.011 A 
HETATM   45  C23 UNL     1       2.298   1.214 -21.999  1.00  0.00     0.018 A 
HETATM   46  C24 UNL     1       2.002   1.344 -23.344  1.00  0.00     0.087 A 
HETATM   47  N5  UNL     1       1.034   2.164 -23.788  1.00  0.00    -0.375 N 
HETATM   48  C25 UNL     1       0.323   2.886 -22.922  1.00  0.00     0.096 A 
ATOM     49  H5  UNL     1       0.843   2.234 -24.787  1.00  0.00     0.164 HD
ENDBRANCH  42  43
ENDBRANCH  12  42
TORSDOF 7
ENDMDL
MODEL 4
REMARK VINA RESULT: -10.981392886      2.012     10.055
REMARK  7 active torsions:
REMARK  status: ('A' for Active; 'I' for Inactive)
REMARK       I    between atoms: C1_2  and  N1_3 
REMARK    1  A    between atoms: C1_2  and  C27_40 
REMARK    2  A    between atoms: N1_3  and  C2_5 
REMARK    3  A    between atoms: C3_8  and  N3_9 
REMARK    4  A    between atoms: N3_9  and  C4_11 
REMARK    5  A    between atoms: C4_11  and  C5_12 
REMARK    6  A    between atoms: N4_28  and  C20_29 
REMARK    7  A    between atoms: C20_29  and  C21_30 
ROOT
HETATM    1  C2  UNL     1      -4.305   6.873 -22.158  1.00  0.00     0.688 A 
HETATM    2  N2  UNL     1      -3.314   5.965 -22.090  1.00  0.00    -0.176 N 
ATOM      3  H2  UNL     1      -2.406   6.185 -22.501  1.00  0.00     0.186 HD
HETATM    4  C3  UNL     1      -3.495   4.772 -21.493  1.00  0.00     0.132 A 
HETATM    5  C13 UNL     1      -4.746   4.528 -20.955  1.00  0.00     0.066 A 
HETATM    6  C14 UNL     1      -5.228   3.417 -20.286  1.00  0.00     0.009 A 
HETATM    7  C15 UNL     1      -4.640   2.219 -19.944  1.00  0.00     0.015 A 
HETATM    8  C16 UNL     1      -5.362   1.268 -19.259  1.00  0.00     0.001 A 
HETATM    9  C17 UNL     1      -6.667   1.579 -18.947  1.00  0.00     0.002 A 
HETATM   10  C18 UNL     1      -7.252   2.779 -19.293  1.00  0.00     0.030 A 
HETATM   11  C19 UNL     1      -6.534   3.731 -19.977  1.00  0.00     0.047 A 
HETATM   12  N4  UNL     1      -6.870   4.957 -20.417  1.00  0.00    -0.327 N 
HETATM   13  C26 UNL     1      -5.768   5.448 -21.019  1.00  0.00     0.139 A 
HETATM   14  N6  UNL     1      -5.511   6.621 -21.632  1.00  0.00    -0.175 N 
ATOM     15  H6  UNL     1      -6.246   7.326 -21.697  1.00  0.00     0.186 HD
ENDROOT
BRANCH   1  16
HETATM   16  N1  UNL     1      -4.145   8.026 -22.729  1.00  0.00    -0.155 N 
HETATM   17  C1  UNL     1      -4.074   8.207 -24.128  1.00  0.00     0.269 C 
HETATM   18  O1  UNL     1      -3.069   7.745 -24.727  1.00  0.00    -0.267 OA
ATOM     19  H1  UNL     1      -4.068   8.850 -22.134  1.00  0.00     0.187 HD
BRANCH  17  20
HETATM   20  C27 UNL     1      -5.100   8.896 -24.896  1.00  0.00     0.033 A 
HETATM   21  C28 UNL     1      -4.955   9.078 -26.262  1.00  0.00     0.018 A 
HETATM   22  C29 UNL     1      -5.929   9.730 -26.980  1.00  0.00     0.013 A 
HETATM   23  C30 UNL     1      -7.076  10.226 -26.376  1.00  0.00    -0.026 A 
HETATM   24  C31 UNL     1      -8.045  10.881 -27.118  1.00  0.00     0.012 A 
HETATM   25  C35 UNL     1      -7.205  10.038 -25.016  1.00  0.00    -0.025 A 
HETATM   26  C32 UNL     1      -9.170  11.364 -26.508  1.00  0.00     0.001 A 
HETATM   27  C33 UNL     1      -9.337  11.198 -25.156  1.00  0.00     0.001 A 
HETATM   28  C34 UNL     1      -8.361  10.542 -24.426  1.00  0.00     0.012 A 
HETATM   29  C36 UNL     1      -6.232   9.383 -24.282  1.00  0.00     0.029 A 
ENDBRANCH  17  20
ENDBRANCH   1  16
BRANCH   4  30
HETATM   30  N3  UNL     1      -2.537   3.914 -21.435  1.00  0.00    -0.369 N 
ATOM     31  H3  UNL     1      -1.911   3.955 -20.631  1.00  0.00     0.161 HD
BRANCH  30  32
HETATM   32  C4  UNL     1      -2.291   2.909 -22.420  1.00  0.00     0.186 C 
BRANCH  32  33
HETATM   33  C5  UNL     1      -1.174   2.048 -21.896  1.00  0.00     0.072 A 
HETATM   34  C6  UNL     1      -1.269   0.936 -21.098  1.00  0.00     0.048 A 
HETATM   35  C7  UNL     1       0.018   0.492 -20.884  1.00  0.00     0.000 A 
HETATM   36  C8  UNL     1       0.541  -0.566 -20.174  1.00  0.00     0.014 A 
HETATM   37  C12 UNL     1       0.850   1.372 -21.576  1.00  0.00     0.086 A 
HETATM   38  C9  UNL     1       1.916  -0.771 -20.137  1.00  0.00     0.001 A 
HETATM   39  C10 UNL     1       2.731   0.103 -20.823  1.00  0.00     0.003 A 
HETATM   40  C11 UNL     1       2.210   1.161 -21.534  1.00  0.00     0.038 A 
HETATM   41  O2  UNL     1       0.074   2.263 -22.148  1.00  0.00    -0.313 OA
ENDBRANCH  32  33
ENDBRANCH  30  32
ENDBRANCH   4  30
BRANCH  12  42
HETATM   42  C20 UNL     1      -8.159   5.625 -20.278  1.00  0.00     0.170 C 
BRANCH  42  43
HETATM   43  C21 UNL     1      -8.776   5.983 -21.544  1.00  0.00    -0.025 A 
HETATM   44  C22 UNL     1      -9.146   7.277 -21.824  1.00  0.00     0.011 A 
HETATM   45  C23 UNL     1      -9.745   7.632 -23.040  1.00  0.00     0.018 A 
HETATM   46  C24 UNL     1      -9.943   6.601 -23.942  1.00  0.00     0.087 A 
HETATM   47  N5  UNL     1      -9.584   5.335 -23.672  1.00  0.00    -0.375 N 
HETATM   48  C25 UNL     1      -9.016   5.038 -22.503  1.00  0.00     0.096 A 
ATOM     49  H5  UNL     1      -9.745   4.601 -24.361  1.00  0.00     0.164 HD
ENDBRANCH  42  43
ENDBRANCH  12  42
TORSDOF 7
ENDMDL
MODEL 5
REMARK VINA RESULT: -10.947242874      2.209      2.802
REMARK  7 active torsions:
REMARK  status: ('A' for Active; 'I' for Inactive)
REMARK       I    between atoms: C1_2  and  N1_3 
REMARK    1  A    between atoms: C1_2  and  C27_40 
REMARK    2  A    between atoms: N1_3  and  C2_5 
REMARK    3  A    between atoms: C3_8  and  N3_9 
REMARK    4  A    between atoms: N3_9  and  C4_11 
REMARK    5  A    between atoms: C4_11  and  C5_12 
REMARK    6  A    between atoms: N4_28  and  C20_29 
REMARK    7  A    between atoms: C20_29  and  C21_30 
ROOT
HETATM    1  C2  UNL     1      -2.969   4.234 -21.588  1.00  0.00     0.688 A 
HETATM    2  N2  UNL     1      -3.430   5.412 -22.045  1.00  0.00    -0.176 N 
ATOM      3  H2  UNL     1      -2.775   6.179 -22.198  1.00  0.00     0.186 HD
HETATM    4  C3  UNL     1      -4.738   5.601 -22.304  1.00  0.00     0.132 A 
HETATM    5  C13 UNL     1      -5.580   4.526 -22.077  1.00  0.00     0.066 A 
HETATM    6  C14 UNL     1      -6.948   4.413 -22.251  1.00  0.00     0.009 A 
HETATM    7  C15 UNL     1      -7.898   5.306 -22.693  1.00  0.00     0.015 A 
HETATM    8  C16 UNL     1      -9.218   4.922 -22.776  1.00  0.00     0.001 A 
HETATM    9  C17 UNL     1      -9.519   3.632 -22.400  1.00  0.00     0.002 A 
HETATM   10  C18 UNL     1      -8.563   2.742 -21.957  1.00  0.00     0.030 A 
HETATM   11  C19 UNL     1      -7.244   3.121 -21.873  1.00  0.00     0.047 A 
HETATM   12  N4  UNL     1      -6.146   2.450 -21.482  1.00  0.00    -0.327 N 
HETATM   13  C26 UNL     1      -5.120   3.317 -21.609  1.00  0.00     0.139 A 
HETATM   14  N6  UNL     1      -3.798   3.203 -21.373  1.00  0.00    -0.175 N 
ATOM     15  H6  UNL     1      -3.423   2.320 -21.026  1.00  0.00     0.186 HD
ENDROOT
BRANCH   1  16
HETATM   16  N1  UNL     1      -1.713   4.037 -21.334  1.00  0.00    -0.155 N 
HETATM   17  C1  UNL     1      -1.219   2.918 -20.629  1.00  0.00     0.269 C 
HETATM   18  O1  UNL     1      -1.504   2.823 -19.408  1.00  0.00    -0.267 OA
ATOM     19  H1  UNL     1      -1.042   4.731 -21.664  1.00  0.00     0.187 HD
BRANCH  17  20
HETATM   20  C27 UNL     1      -0.403   1.883 -21.247  1.00  0.00     0.033 A 
HETATM   21  C28 UNL     1      -0.195   1.874 -22.617  1.00  0.00     0.018 A 
HETATM   22  C29 UNL     1       0.576   0.893 -23.193  1.00  0.00     0.013 A 
HETATM   23  C30 UNL     1       1.166  -0.112 -22.439  1.00  0.00    -0.026 A 
HETATM   24  C31 UNL     1       1.940  -1.092 -23.039  1.00  0.00     0.012 A 
HETATM   25  C35 UNL     1       0.950  -0.090 -21.077  1.00  0.00    -0.025 A 
HETATM   26  C32 UNL     1       2.514  -2.075 -22.282  1.00  0.00     0.001 A 
HETATM   27  C33 UNL     1       2.323  -2.090 -20.923  1.00  0.00     0.001 A 
HETATM   28  C34 UNL     1       1.548  -1.105 -20.336  1.00  0.00     0.012 A 
HETATM   29  C36 UNL     1       0.175   0.892 -20.486  1.00  0.00     0.029 A 
ENDBRANCH  17  20
ENDBRANCH   1  16
BRANCH   4  30
HETATM   30  N3  UNL     1      -5.164   6.734 -22.741  1.00  0.00    -0.369 N 
ATOM     31  H3  UNL     1      -6.145   6.799 -23.016  1.00  0.00     0.161 HD
BRANCH  30  32
HETATM   32  C4  UNL     1      -4.359   7.906 -22.870  1.00  0.00     0.186 C 
BRANCH  32  33
HETATM   33  C5  UNL     1      -4.011   8.040 -24.327  1.00  0.00     0.072 A 
HETATM   34  C6  UNL     1      -4.865   8.216 -25.386  1.00  0.00     0.048 A 
HETATM   35  C7  UNL     1      -4.083   8.284 -26.519  1.00  0.00     0.000 A 
HETATM   36  C8  UNL     1      -4.375   8.450 -27.854  1.00  0.00     0.014 A 
HETATM   37  C12 UNL     1      -2.765   8.145 -26.086  1.00  0.00     0.086 A 
HETATM   38  C9  UNL     1      -3.352   8.481 -28.796  1.00  0.00     0.001 A 
HETATM   39  C10 UNL     1      -2.051   8.342 -28.359  1.00  0.00     0.003 A 
HETATM   40  C11 UNL     1      -1.757   8.177 -27.024  1.00  0.00     0.038 A 
HETATM   41  O2  UNL     1      -2.802   8.006 -24.781  1.00  0.00    -0.313 OA
ENDBRANCH  32  33
ENDBRANCH  30  32
ENDBRANCH   4  30
BRANCH  12  42
HETATM   42  C20 UNL     1      -6.071   1.071 -21.014  1.00  0.00     0.170 C 
BRANCH  42  43
HETATM   43  C21 UNL     1      -5.132   0.871 -19.923  1.00  0.00    -0.025 A 
HETATM   44  C22 UNL     1      -3.974   0.149 -20.093  1.00  0.00     0.011 A 
HETATM   45  C23 UNL     1      -3.065  -0.054 -19.046  1.00  0.00     0.018 A 
HETATM   46  C24 UNL     1      -3.404   0.514 -17.830  1.00  0.00     0.087 A 
HETATM   47  N5  UNL     1      -4.534   1.220 -17.660  1.00  0.00    -0.375 N 
HETATM   48  C25 UNL     1      -5.374   1.391 -18.682  1.00  0.00     0.096 A 
ATOM     49  H5  UNL     1      -4.751   1.625 -16.750  1.00  0.00     0.164 HD
ENDBRANCH  42  43
ENDBRANCH  12  42
TORSDOF 7
ENDMDL
