MODEL 1
REMARK VINA RESULT: -5.458202221      0.000      0.000
REMARK  5 active torsions:
REMARK  status: ('A' for Active; 'I' for Inactive)
REMARK    1  A    between atoms: N3_8  and  C3_10 
REMARK    2  A    between atoms: C7_14  and  S1_15 
REMARK    3  A    between atoms: S1_15  and  C8_16 
REMARK    4  A    between atoms: C8_16  and  C9_17 
REMARK    5  A    between atoms: C9_17  and  N4_18 
ROOT
HETATM    1  N1  UNL     1      -3.996  29.024  -4.839  1.00  0.00    -0.371 N 
ATOM      2  H11 UNL     1      -4.510  28.765  -3.996  1.00  0.00     0.159 HD
ATOM      3  H12 UNL     1      -4.146  28.247  -5.481  1.00  0.00     0.159 HD
HETATM    4  C1  UNL     1      -3.315  30.099  -5.031  1.00  0.00     0.175 C 
HETATM    5  N2  UNL     1      -2.593  30.463  -6.213  1.00  0.00    -0.316 N 
ATOM      6  H2  UNL     1      -2.532  29.901  -7.062  1.00  0.00     0.170 HD
HETATM    7  C2  UNL     1      -1.972  31.731  -6.021  1.00  0.00     0.113 C 
HETATM    8  N3  UNL     1      -1.516  32.517  -6.936  1.00  0.00    -0.373 N 
ATOM      9  H3  UNL     1      -1.087  33.409  -6.688  1.00  0.00     0.161 HD
HETATM   10  C7  UNL     1      -1.957  31.967  -4.533  1.00  0.00     0.214 C 
HETATM   11  N5  UNL     1      -3.104  31.189  -4.130  1.00  0.00    -0.342 N 
ATOM     12  H5  UNL     1      -3.685  31.389  -3.316  1.00  0.00     0.164 HD
ENDROOT
BRANCH  10  13
HETATM   13  S1  UNL     1      -2.164  33.730  -4.245  1.00  0.00    -0.134 SA
BRANCH  13  14
HETATM   14  C8  UNL     1      -3.892  34.195  -4.072  1.00  0.00     0.103 C 
BRANCH  14  15
HETATM   15  C9  UNL     1      -4.520  34.310  -5.444  1.00  0.00     0.239 C 
BRANCH  15  16
HETATM   16  N4  UNL     1      -5.387  33.197  -5.746  1.00  0.00    -0.079 N 
ATOM     17  H43 UNL     1      -4.875  32.448  -6.213  1.00  0.00     0.274 HD
ATOM     18  H42 UNL     1      -5.661  32.703  -4.897  1.00  0.00     0.274 HD
ATOM     19  H41 UNL     1      -6.204  33.477  -6.288  1.00  0.00     0.274 HD
ENDBRANCH  15  16
ENDBRANCH  14  15
ENDBRANCH  13  14
ENDBRANCH  10  13
BRANCH   8  20
HETATM   20  C3  UNL     1      -1.622  32.115  -8.300  1.00  0.00     0.082 C 
HETATM   21  C4  UNL     1      -0.406  31.358  -8.850  1.00  0.00     0.025 C 
HETATM   22  C5  UNL     1      -0.729  32.038 -10.188  1.00  0.00     0.004 C 
HETATM   23  C6  UNL     1      -1.320  33.172  -9.340  1.00  0.00     0.025 C 
ENDBRANCH   8  20
TORSDOF 5
ENDMDL
MODEL 2
REMARK VINA RESULT: -5.302389113      2.126      3.286
REMARK  5 active torsions:
REMARK  status: ('A' for Active; 'I' for Inactive)
REMARK    1  A    between atoms: N3_8  and  C3_10 
REMARK    2  A    between atoms: C7_14  and  S1_15 
REMARK    3  A    between atoms: S1_15  and  C8_16 
REMARK    4  A    between atoms: C8_16  and  C9_17 
REMARK    5  A    between atoms: C9_17  and  N4_18 
ROOT
HETATM    1  N1  UNL     1       1.045  31.619  -5.989  1.00  0.00    -0.371 N 
ATOM      2  H11 UNL     1       1.500  31.671  -5.078  1.00  0.00     0.159 HD
ATOM      3  H12 UNL     1       1.801  31.415  -6.643  1.00  0.00     0.159 HD
HETATM    4  C1  UNL     1      -0.206  31.779  -6.242  1.00  0.00     0.175 C 
HETATM    5  N2  UNL     1      -0.845  31.707  -7.521  1.00  0.00    -0.316 N 
ATOM      6  H2  UNL     1      -0.372  31.516  -8.405  1.00  0.00     0.170 HD
HETATM    7  C2  UNL     1      -2.242  31.944  -7.371  1.00  0.00     0.113 C 
HETATM    8  N3  UNL     1      -3.172  31.657  -8.216  1.00  0.00    -0.373 N 
ATOM      9  H3  UNL     1      -4.147  31.871  -8.009  1.00  0.00     0.161 HD
HETATM   10  C7  UNL     1      -2.412  32.598  -6.024  1.00  0.00     0.214 C 
HETATM   11  N5  UNL     1      -1.266  32.066  -5.325  1.00  0.00    -0.342 N 
ATOM     12  H5  UNL     1      -1.218  31.915  -4.318  1.00  0.00     0.164 HD
ENDROOT
BRANCH  10  13
HETATM   13  S1  UNL     1      -3.977  32.050  -5.331  1.00  0.00    -0.134 SA
BRANCH  13  14
HETATM   14  C8  UNL     1      -3.772  31.229  -3.744  1.00  0.00     0.103 C 
BRANCH  14  15
HETATM   15  C9  UNL     1      -3.205  29.844  -3.966  1.00  0.00     0.239 C 
BRANCH  15  16
HETATM   16  N4  UNL     1      -3.987  29.074  -4.903  1.00  0.00    -0.079 N 
ATOM     17  H43 UNL     1      -4.963  29.369  -4.897  1.00  0.00     0.274 HD
ATOM     18  H42 UNL     1      -3.750  29.315  -5.865  1.00  0.00     0.274 HD
ATOM     19  H41 UNL     1      -3.905  28.070  -4.745  1.00  0.00     0.274 HD
ENDBRANCH  15  16
ENDBRANCH  14  15
ENDBRANCH  13  14
ENDBRANCH  10  13
BRANCH   8  20
HETATM   20  C3  UNL     1      -2.811  31.034  -9.448  1.00  0.00     0.082 C 
HETATM   21  C4  UNL     1      -2.334  31.996 -10.545  1.00  0.00     0.025 C 
HETATM   22  C5  UNL     1      -2.987  31.015 -11.530  1.00  0.00     0.004 C 
HETATM   23  C6  UNL     1      -3.946  30.675 -10.381  1.00  0.00     0.025 C 
ENDBRANCH   8  20
TORSDOF 5
ENDMDL
MODEL 3
REMARK VINA RESULT: -5.267164973      1.755      1.886
REMARK  5 active torsions:
REMARK  status: ('A' for Active; 'I' for Inactive)
REMARK    1  A    between atoms: N3_8  and  C3_10 
REMARK    2  A    between atoms: C7_14  and  S1_15 
REMARK    3  A    between atoms: S1_15  and  C8_16 
REMARK    4  A    between atoms: C8_16  and  C9_17 
REMARK    5  A    between atoms: C9_17  and  N4_18 
ROOT
HETATM    1  N1  UNL     1      -3.362  28.984  -4.563  1.00  0.00    -0.371 N 
ATOM      2  H11 UNL     1      -3.553  29.065  -3.564  1.00  0.00     0.159 HD
ATOM      3  H12 UNL     1      -3.545  28.005  -4.782  1.00  0.00     0.159 HD
HETATM    4  C1  UNL     1      -2.975  29.920  -5.356  1.00  0.00     0.175 C 
HETATM    5  N2  UNL     1      -2.706  29.807  -6.758  1.00  0.00    -0.316 N 
ATOM      6  H2  UNL     1      -2.791  28.951  -7.307  1.00  0.00     0.170 HD
HETATM    7  C2  UNL     1      -2.300  31.075  -7.270  1.00  0.00     0.113 C 
HETATM    8  N3  UNL     1      -2.281  31.441  -8.506  1.00  0.00    -0.373 N 
ATOM      9  H3  UNL     1      -1.971  32.377  -8.766  1.00  0.00     0.161 HD
HETATM   10  C7  UNL     1      -1.900  31.898  -6.074  1.00  0.00     0.214 C 
HETATM   11  N5  UNL     1      -2.718  31.293  -5.049  1.00  0.00    -0.342 N 
ATOM     12  H5  UNL     1      -3.065  31.777  -4.222  1.00  0.00     0.164 HD
ENDROOT
BRANCH  10  13
HETATM   13  S1  UNL     1      -2.337  33.611  -6.404  1.00  0.00    -0.134 SA
BRANCH  13  14
HETATM   14  C8  UNL     1      -3.448  34.284  -5.162  1.00  0.00     0.103 C 
BRANCH  14  15
HETATM   15  C9  UNL     1      -4.835  34.420  -5.753  1.00  0.00     0.239 C 
BRANCH  15  16
HETATM   16  N4  UNL     1      -5.509  33.150  -5.869  1.00  0.00    -0.079 N 
ATOM     17  H43 UNL     1      -5.004  32.522  -6.493  1.00  0.00     0.274 HD
ATOM     18  H42 UNL     1      -5.436  32.615  -5.005  1.00  0.00     0.274 HD
ATOM     19  H41 UNL     1      -6.482  33.252  -6.157  1.00  0.00     0.274 HD
ENDBRANCH  15  16
ENDBRANCH  14  15
ENDBRANCH  13  14
ENDBRANCH  10  13
BRANCH   8  20
HETATM   20  C3  UNL     1      -2.702  30.511  -9.503  1.00  0.00     0.082 C 
HETATM   21  C4  UNL     1      -1.885  30.541 -10.802  1.00  0.00     0.025 C 
HETATM   22  C5  UNL     1      -3.203  30.183 -11.505  1.00  0.00     0.004 C 
HETATM   23  C6  UNL     1      -3.890  30.918 -10.347  1.00  0.00     0.025 C 
ENDBRANCH   8  20
TORSDOF 5
ENDMDL
MODEL 4
REMARK VINA RESULT: -5.235536648      1.683      1.854
REMARK  5 active torsions:
REMARK  status: ('A' for Active; 'I' for Inactive)
REMARK    1  A    between atoms: N3_8  and  C3_10 
REMARK    2  A    between atoms: C7_14  and  S1_15 
REMARK    3  A    between atoms: S1_15  and  C8_16 
REMARK    4  A    between atoms: C8_16  and  C9_17 
REMARK    5  A    between atoms: C9_17  and  N4_18 
ROOT
HETATM    1  N1  UNL     1      -3.409  28.998  -4.324  1.00  0.00    -0.371 N 
ATOM      2  H11 UNL     1      -3.899  28.751  -3.464  1.00  0.00     0.159 HD
ATOM      3  H12 UNL     1      -2.923  28.144  -4.597  1.00  0.00     0.159 HD
HETATM    4  C1  UNL     1      -3.415  30.138  -4.920  1.00  0.00     0.175 C 
HETATM    5  N2  UNL     1      -2.727  30.485  -6.127  1.00  0.00    -0.316 N 
ATOM      6  H2  UNL     1      -2.138  29.854  -6.670  1.00  0.00     0.170 HD
HETATM    7  C2  UNL     1      -2.992  31.847  -6.452  1.00  0.00     0.113 C 
HETATM    8  N3  UNL     1      -2.819  32.418  -7.595  1.00  0.00    -0.373 N 
ATOM      9  H3  UNL     1      -3.041  33.405  -7.722  1.00  0.00     0.161 HD
HETATM   10  C7  UNL     1      -3.514  32.483  -5.191  1.00  0.00     0.214 C 
HETATM   11  N5  UNL     1      -4.097  31.335  -4.537  1.00  0.00    -0.342 N 
ATOM     12  H5  UNL     1      -4.886  31.372  -3.892  1.00  0.00     0.164 HD
ENDROOT
BRANCH  10  13
HETATM   13  S1  UNL     1      -4.731  33.723  -5.655  1.00  0.00    -0.134 SA
BRANCH  13  14
HETATM   14  C8  UNL     1      -4.831  35.062  -4.460  1.00  0.00     0.103 C 
BRANCH  14  15
HETATM   15  C9  UNL     1      -4.318  34.578  -3.121  1.00  0.00     0.239 C 
BRANCH  15  16
HETATM   16  N4  UNL     1      -5.372  34.058  -2.284  1.00  0.00    -0.079 N 
ATOM     17  H43 UNL     1      -5.507  34.641  -1.458  1.00  0.00     0.274 HD
ATOM     18  H42 UNL     1      -6.284  34.183  -2.722  1.00  0.00     0.274 HD
ATOM     19  H41 UNL     1      -5.218  33.084  -2.026  1.00  0.00     0.274 HD
ENDBRANCH  15  16
ENDBRANCH  14  15
ENDBRANCH  13  14
ENDBRANCH  10  13
BRANCH   8  20
HETATM   20  C3  UNL     1      -2.309  31.642  -8.679  1.00  0.00     0.082 C 
HETATM   21  C4  UNL     1      -1.575  32.445  -9.761  1.00  0.00     0.025 C 
HETATM   22  C5  UNL     1      -2.134  31.409 -10.748  1.00  0.00     0.004 C 
HETATM   23  C6  UNL     1      -3.298  31.262  -9.760  1.00  0.00     0.025 C 
ENDBRANCH   8  20
TORSDOF 5
ENDMDL
MODEL 5
REMARK VINA RESULT: -5.182228836      3.057      3.572
REMARK  5 active torsions:
REMARK  status: ('A' for Active; 'I' for Inactive)
REMARK    1  A    between atoms: N3_8  and  C3_10 
REMARK    2  A    between atoms: C7_14  and  S1_15 
REMARK    3  A    between atoms: S1_15  and  C8_16 
REMARK    4  A    between atoms: C8_16  and  C9_17 
REMARK    5  A    between atoms: C9_17  and  N4_18 
ROOT
HETATM    1  N1  UNL     1      -3.893  28.997  -4.982  1.00  0.00    -0.371 N 
ATOM      2  H11 UNL     1      -3.962  29.075  -3.967  1.00  0.00     0.159 HD
ATOM      3  H12 UNL     1      -4.737  28.496  -5.259  1.00  0.00     0.159 HD
HETATM    4  C1  UNL     1      -2.945  29.438  -5.731  1.00  0.00     0.175 C 
HETATM    5  N2  UNL     1      -2.849  29.328  -7.156  1.00  0.00    -0.316 N 
ATOM      6  H2  UNL     1      -3.536  28.877  -7.759  1.00  0.00     0.170 HD
HETATM    7  C2  UNL     1      -1.644  29.946  -7.601  1.00  0.00     0.113 C 
HETATM    8  N3  UNL     1      -1.365  30.323  -8.803  1.00  0.00    -0.373 N 
ATOM      9  H3  UNL     1      -0.467  30.758  -9.015  1.00  0.00     0.161 HD
HETATM   10  C7  UNL     1      -0.764  30.070  -6.385  1.00  0.00     0.214 C 
HETATM   11  N5  UNL     1      -1.762  30.140  -5.343  1.00  0.00    -0.342 N 
ATOM     12  H5  UNL     1      -1.639  30.624  -4.453  1.00  0.00     0.164 HD
ENDROOT
BRANCH  10  13
HETATM   13  S1  UNL     1       0.197  31.582  -6.543  1.00  0.00    -0.134 SA
BRANCH  13  14
HETATM   14  C8  UNL     1       1.629  31.597  -5.457  1.00  0.00     0.103 C 
BRANCH  14  15
HETATM   15  C9  UNL     1       1.195  31.987  -4.061  1.00  0.00     0.239 C 
BRANCH  15  16
HETATM   16  N4  UNL     1       0.097  32.923  -4.068  1.00  0.00    -0.079 N 
ATOM     17  H43 UNL     1       0.393  33.839  -3.733  1.00  0.00     0.274 HD
ATOM     18  H42 UNL     1      -0.165  33.174  -5.020  1.00  0.00     0.274 HD
ATOM     19  H41 UNL     1      -0.708  32.581  -3.543  1.00  0.00     0.274 HD
ENDBRANCH  15  16
ENDBRANCH  14  15
ENDBRANCH  13  14
ENDBRANCH  10  13
BRANCH   8  20
HETATM   20  C3  UNL     1      -2.335  30.119  -9.828  1.00  0.00     0.082 C 
HETATM   21  C4  UNL     1      -1.847  30.422 -11.251  1.00  0.00     0.025 C 
HETATM   22  C5  UNL     1      -3.288  30.876 -11.526  1.00  0.00     0.004 C 
HETATM   23  C6  UNL     1      -3.343  31.228 -10.034  1.00  0.00     0.025 C 
ENDBRANCH   8  20
TORSDOF 5
ENDMDL
