MODEL 1
REMARK VINA RESULT: -6.247639429      0.000      0.000
REMARK  5 active torsions:
REMARK  status: ('A' for Active; 'I' for Inactive)
REMARK    1  A    between atoms: C2_2  and  C3_3 
REMARK    2  A    between atoms: C3_3  and  C4_4 
REMARK    3  A    between atoms: C4_4  and  C5_5 
REMARK    4  A    between atoms: C5_5  and  N1_6 
REMARK    5  A    between atoms: C7_11  and  N3_12 
ROOT
HETATM    1  N1  UNL     1      -1.829  32.870  -8.099  1.00  0.00    -0.354 N 
ATOM      2  H1  UNL     1      -2.274  33.740  -8.390  1.00  0.00     0.166 HD
HETATM    3  C6  UNL     1      -2.463  32.331  -7.171  1.00  0.00     0.143 A 
HETATM    4  N2  UNL     1      -3.592  32.980  -6.735  1.00  0.00    -0.175 N 
ATOM      5  H2  UNL     1      -3.886  33.860  -7.159  1.00  0.00     0.186 HD
HETATM    6  C7  UNL     1      -4.295  32.434  -5.746  1.00  0.00     0.677 A 
HETATM    7  N4  UNL     1      -3.950  31.277  -5.155  1.00  0.00    -0.195 N 
ATOM      8  H4  UNL     1      -4.533  30.913  -4.401  1.00  0.00     0.184 HD
HETATM    9  C8  UNL     1      -2.857  30.585  -5.529  1.00  0.00     0.047 A 
HETATM   10  C9  UNL     1      -2.458  29.311  -4.895  1.00  0.00     0.070 C 
HETATM   11  C10 UNL     1      -2.112  31.146  -6.564  1.00  0.00     0.111 A 
HETATM   12  C11 UNL     1      -0.947  30.395  -6.953  1.00  0.00     0.105 C 
HETATM   13  N5  UNL     1      -0.013  29.773  -7.250  1.00  0.00    -0.191 NA
ENDROOT
BRANCH   1  14
HETATM   14  C5  UNL     1      -0.673  32.617  -8.857  1.00  0.00     0.062 C 
BRANCH  14  15
HETATM   15  C4  UNL     1      -1.074  32.459 -10.321  1.00  0.00     0.044 C 
BRANCH  15  16
HETATM   16  C3  UNL     1      -0.964  31.050 -10.817  1.00  0.00     0.005 C 
BRANCH  16  17
HETATM   17  C2  UNL     1      -2.072  30.773 -11.787  1.00  0.00    -0.004 C 
HETATM   18  C1  UNL     1      -3.404  31.321 -11.295  1.00  0.00     0.005 C 
ENDBRANCH  16  17
ENDBRANCH  15  16
ENDBRANCH  14  15
ENDBRANCH   1  14
BRANCH   6  19
HETATM   19  N3  UNL     1      -5.381  33.016  -5.295  1.00  0.00    -0.234 N 
ATOM     20  H32 UNL     1      -5.986  33.447  -5.993  1.00  0.00     0.174 HD
ATOM     21  H31 UNL     1      -5.590  33.027  -4.296  1.00  0.00     0.174 HD
ENDBRANCH   6  19
TORSDOF 5
ENDMDL
MODEL 2
REMARK VINA RESULT: -6.199522608      2.323      2.965
REMARK  5 active torsions:
REMARK  status: ('A' for Active; 'I' for Inactive)
REMARK    1  A    between atoms: C2_2  and  C3_3 
REMARK    2  A    between atoms: C3_3  and  C4_4 
REMARK    3  A    between atoms: C4_4  and  C5_5 
REMARK    4  A    between atoms: C5_5  and  N1_6 
REMARK    5  A    between atoms: C7_11  and  N3_12 
ROOT
HETATM    1  N1  UNL     1      -2.909  29.255  -8.238  1.00  0.00    -0.354 N 
ATOM      2  H1  UNL     1      -3.765  28.724  -8.084  1.00  0.00     0.166 HD
HETATM    3  C6  UNL     1      -2.425  29.648  -7.159  1.00  0.00     0.143 A 
HETATM    4  N2  UNL     1      -3.104  29.305  -6.015  1.00  0.00    -0.175 N 
ATOM      5  H2  UNL     1      -3.962  28.756  -6.062  1.00  0.00     0.186 HD
HETATM    6  C7  UNL     1      -2.617  29.707  -4.844  1.00  0.00     0.677 A 
HETATM    7  N4  UNL     1      -1.490  30.431  -4.730  1.00  0.00    -0.195 N 
ATOM      8  H4  UNL     1      -1.171  30.707  -3.801  1.00  0.00     0.184 HD
HETATM    9  C8  UNL     1      -0.771  30.803  -5.806  1.00  0.00     0.047 A 
HETATM   10  C9  UNL     1       0.470  31.599  -5.705  1.00  0.00     0.070 C 
HETATM   11  C10 UNL     1      -1.271  30.389  -7.038  1.00  0.00     0.111 A 
HETATM   12  C11 UNL     1      -0.492  30.795  -8.180  1.00  0.00     0.105 C 
HETATM   13  N5  UNL     1       0.152  31.132  -9.085  1.00  0.00    -0.191 NA
ENDROOT
BRANCH   1  14
HETATM   14  C5  UNL     1      -2.608  29.339  -9.608  1.00  0.00     0.062 C 
BRANCH  14  15
HETATM   15  C4  UNL     1      -3.505  30.400 -10.241  1.00  0.00     0.044 C 
BRANCH  15  16
HETATM   16  C3  UNL     1      -2.864  31.107 -11.395  1.00  0.00     0.005 C 
BRANCH  16  17
HETATM   17  C2  UNL     1      -2.210  30.103 -12.295  1.00  0.00    -0.004 C 
HETATM   18  C1  UNL     1      -0.782  30.498 -12.640  1.00  0.00     0.005 C 
ENDBRANCH  16  17
ENDBRANCH  15  16
ENDBRANCH  14  15
ENDBRANCH   1  14
BRANCH   6  19
HETATM   19  N3  UNL     1      -3.230  29.405  -3.724  1.00  0.00    -0.234 N 
ATOM     20  H32 UNL     1      -2.979  28.513  -3.298  1.00  0.00     0.174 HD
ATOM     21  H31 UNL     1      -3.918  30.040  -3.318  1.00  0.00     0.174 HD
ENDBRANCH   6  19
TORSDOF 5
ENDMDL
MODEL 3
REMARK VINA RESULT: -6.129740146      1.690      2.149
REMARK  5 active torsions:
REMARK  status: ('A' for Active; 'I' for Inactive)
REMARK    1  A    between atoms: C2_2  and  C3_3 
REMARK    2  A    between atoms: C3_3  and  C4_4 
REMARK    3  A    between atoms: C4_4  and  C5_5 
REMARK    4  A    between atoms: C5_5  and  N1_6 
REMARK    5  A    between atoms: C7_11  and  N3_12 
ROOT
HETATM    1  N1  UNL     1      -2.919  31.421  -7.688  1.00  0.00    -0.354 N 
ATOM      2  H1  UNL     1      -3.087  32.063  -8.462  1.00  0.00     0.166 HD
HETATM    3  C6  UNL     1      -3.427  31.849  -6.634  1.00  0.00     0.143 A 
HETATM    4  N2  UNL     1      -4.088  33.051  -6.708  1.00  0.00    -0.175 N 
ATOM      5  H2  UNL     1      -4.153  33.557  -7.591  1.00  0.00     0.186 HD
HETATM    6  C7  UNL     1      -4.643  33.539  -5.602  1.00  0.00     0.677 A 
HETATM    7  N4  UNL     1      -4.586  32.909  -4.415  1.00  0.00    -0.195 N 
ATOM      8  H4  UNL     1      -5.033  33.339  -3.605  1.00  0.00     0.184 HD
HETATM    9  C8  UNL     1      -3.956  31.729  -4.266  1.00  0.00     0.047 A 
HETATM   10  C9  UNL     1      -3.880  31.018  -2.972  1.00  0.00     0.070 C 
HETATM   11  C10 UNL     1      -3.371  31.207  -5.417  1.00  0.00     0.111 A 
HETATM   12  C11 UNL     1      -2.700  29.944  -5.242  1.00  0.00     0.105 C 
HETATM   13  N5  UNL     1      -2.167  28.926  -5.077  1.00  0.00    -0.191 NA
ENDROOT
BRANCH   1  14
HETATM   14  C5  UNL     1      -2.181  30.303  -8.111  1.00  0.00     0.062 C 
BRANCH  14  15
HETATM   15  C4  UNL     1      -2.568  29.980  -9.552  1.00  0.00     0.044 C 
BRANCH  15  16
HETATM   16  C3  UNL     1      -3.498  30.987 -10.156  1.00  0.00     0.005 C 
BRANCH  16  17
HETATM   17  C2  UNL     1      -3.308  31.015 -11.642  1.00  0.00    -0.004 C 
HETATM   18  C1  UNL     1      -1.883  30.657 -12.037  1.00  0.00     0.005 C 
ENDBRANCH  16  17
ENDBRANCH  15  16
ENDBRANCH  14  15
ENDBRANCH   1  14
BRANCH   6  19
HETATM   19  N3  UNL     1      -5.285  34.683  -5.623  1.00  0.00    -0.234 N 
ATOM     20  H32 UNL     1      -5.910  34.865  -4.837  1.00  0.00     0.174 HD
ATOM     21  H31 UNL     1      -5.154  35.341  -6.392  1.00  0.00     0.174 HD
ENDBRANCH   6  19
TORSDOF 5
ENDMDL
MODEL 4
REMARK VINA RESULT: -6.072889795      1.681      2.424
REMARK  5 active torsions:
REMARK  status: ('A' for Active; 'I' for Inactive)
REMARK    1  A    between atoms: C2_2  and  C3_3 
REMARK    2  A    between atoms: C3_3  and  C4_4 
REMARK    3  A    between atoms: C4_4  and  C5_5 
REMARK    4  A    between atoms: C5_5  and  N1_6 
REMARK    5  A    between atoms: C7_11  and  N3_12 
ROOT
HETATM    1  N1  UNL     1      -2.666  30.873  -7.503  1.00  0.00    -0.354 N 
ATOM      2  H1  UNL     1      -2.827  31.367  -8.380  1.00  0.00     0.166 HD
HETATM    3  C6  UNL     1      -3.286  31.411  -6.566  1.00  0.00     0.143 A 
HETATM    4  N2  UNL     1      -4.037  32.519  -6.876  1.00  0.00    -0.175 N 
ATOM      5  H2  UNL     1      -4.076  32.872  -7.832  1.00  0.00     0.186 HD
HETATM    6  C7  UNL     1      -4.713  33.120  -5.901  1.00  0.00     0.677 A 
HETATM    7  N4  UNL     1      -4.695  32.693  -4.626  1.00  0.00    -0.195 N 
ATOM      8  H4  UNL     1      -5.237  33.200  -3.926  1.00  0.00     0.184 HD
HETATM    9  C8  UNL     1      -3.983  31.614  -4.247  1.00  0.00     0.047 A 
HETATM   10  C9  UNL     1      -3.948  31.125  -2.853  1.00  0.00     0.070 C 
HETATM   11  C10 UNL     1      -3.270  30.976  -5.259  1.00  0.00     0.111 A 
HETATM   12  C11 UNL     1      -2.513  29.825  -4.839  1.00  0.00     0.105 C 
HETATM   13  N5  UNL     1      -1.911  28.900  -4.478  1.00  0.00    -0.191 NA
ENDROOT
BRANCH   1  14
HETATM   14  C5  UNL     1      -1.807  29.777  -7.692  1.00  0.00     0.062 C 
BRANCH  14  15
HETATM   15  C4  UNL     1      -0.426  30.301  -8.076  1.00  0.00     0.044 C 
BRANCH  15  16
HETATM   16  C3  UNL     1      -0.388  30.931  -9.434  1.00  0.00     0.005 C 
BRANCH  16  17
HETATM   17  C2  UNL     1      -0.205  32.412  -9.293  1.00  0.00    -0.004 C 
HETATM   18  C1  UNL     1      -1.261  33.189 -10.066  1.00  0.00     0.005 C 
ENDBRANCH  16  17
ENDBRANCH  15  16
ENDBRANCH  14  15
ENDBRANCH   1  14
BRANCH   6  19
HETATM   19  N3  UNL     1      -5.444  34.181  -6.147  1.00  0.00    -0.234 N 
ATOM     20  H32 UNL     1      -6.104  34.455  -5.420  1.00  0.00     0.174 HD
ATOM     21  H31 UNL     1      -5.344  34.691  -7.026  1.00  0.00     0.174 HD
ENDBRANCH   6  19
TORSDOF 5
ENDMDL
MODEL 5
REMARK VINA RESULT: -6.048559873      1.505      1.625
REMARK  5 active torsions:
REMARK  status: ('A' for Active; 'I' for Inactive)
REMARK    1  A    between atoms: C2_2  and  C3_3 
REMARK    2  A    between atoms: C3_3  and  C4_4 
REMARK    3  A    between atoms: C4_4  and  C5_5 
REMARK    4  A    between atoms: C5_5  and  N1_6 
REMARK    5  A    between atoms: C7_11  and  N3_12 
ROOT
HETATM    1  N1  UNL     1      -2.184  30.990  -8.189  1.00  0.00    -0.354 N 
ATOM      2  H1  UNL     1      -3.022  30.964  -8.769  1.00  0.00     0.166 HD
HETATM    3  C6  UNL     1      -2.417  31.529  -7.090  1.00  0.00     0.143 A 
HETATM    4  N2  UNL     1      -3.701  31.966  -6.874  1.00  0.00    -0.175 N 
ATOM      5  H2  UNL     1      -4.419  31.849  -7.589  1.00  0.00     0.186 HD
HETATM    6  C7  UNL     1      -3.987  32.547  -5.712  1.00  0.00     0.677 A 
HETATM    7  N4  UNL     1      -3.076  32.724  -4.739  1.00  0.00    -0.195 N 
ATOM      8  H4  UNL     1      -3.362  33.177  -3.870  1.00  0.00     0.184 HD
HETATM    9  C8  UNL     1      -1.799  32.321  -4.877  1.00  0.00     0.047 A 
HETATM   10  C9  UNL     1      -0.781  32.505  -3.822  1.00  0.00     0.070 C 
HETATM   11  C10 UNL     1      -1.487  31.712  -6.091  1.00  0.00     0.111 A 
HETATM   12  C11 UNL     1      -0.117  31.287  -6.225  1.00  0.00     0.105 C 
HETATM   13  N5  UNL     1       0.991  30.952  -6.310  1.00  0.00    -0.191 NA
ENDROOT
BRANCH   1  14
HETATM   14  C5  UNL     1      -1.092  30.409  -8.854  1.00  0.00     0.062 C 
BRANCH  14  15
HETATM   15  C4  UNL     1      -0.624  31.363  -9.951  1.00  0.00     0.044 C 
BRANCH  15  16
HETATM   16  C3  UNL     1      -1.746  31.904 -10.783  1.00  0.00     0.005 C 
BRANCH  16  17
HETATM   17  C2  UNL     1      -2.172  30.870 -11.780  1.00  0.00    -0.004 C 
HETATM   18  C1  UNL     1      -3.678  30.649 -11.759  1.00  0.00     0.005 C 
ENDBRANCH  16  17
ENDBRANCH  15  16
ENDBRANCH  14  15
ENDBRANCH   1  14
BRANCH   6  19
HETATM   19  N3  UNL     1      -5.199  32.981  -5.460  1.00  0.00    -0.234 N 
ATOM     20  H32 UNL     1      -5.967  32.405  -5.806  1.00  0.00     0.174 HD
ATOM     21  H31 UNL     1      -5.346  33.850  -4.946  1.00  0.00     0.174 HD
ENDBRANCH   6  19
TORSDOF 5
ENDMDL
