MODEL 1
REMARK VINA RESULT: -5.964668172      0.000      0.000
REMARK  4 active torsions:
REMARK  status: ('A' for Active; 'I' for Inactive)
REMARK    1  A    between atoms: C2_2  and  C3_3 
REMARK    2  A    between atoms: C3_3  and  N1_4 
REMARK    3  A    between atoms: C5_9  and  N3_10 
REMARK    4  A    between atoms: C6_15  and  C7_16 
ROOT
HETATM    1  N1  UNL     1      -1.143  30.026  -8.172  1.00  0.00    -0.351 N 
ATOM      2  H1  UNL     1      -1.845  29.424  -8.600  1.00  0.00     0.166 HD
HETATM    3  C4  UNL     1      -1.494  30.116  -7.026  1.00  0.00     0.143 A 
HETATM    4  N2  UNL     1      -2.627  29.460  -6.613  1.00  0.00    -0.175 N 
ATOM      5  H2  UNL     1      -3.140  28.910  -7.302  1.00  0.00     0.186 HD
HETATM    6  C5  UNL     1      -3.096  29.497  -5.369  1.00  0.00     0.677 A 
HETATM    7  N4  UNL     1      -2.439  30.224  -4.421  1.00  0.00    -0.194 N 
ATOM      8  H4  UNL     1      -2.800  30.253  -3.468  1.00  0.00     0.184 HD
HETATM    9  C6  UNL     1      -1.324  30.900  -4.729  1.00  0.00     0.055 A 
HETATM   10  C11 UNL     1      -0.861  30.834  -6.053  1.00  0.00     0.112 A 
HETATM   11  C12 UNL     1       0.352  31.565  -6.327  1.00  0.00     0.105 C 
HETATM   12  N5  UNL     1       1.331  32.149  -6.521  1.00  0.00    -0.191 NA
ENDROOT
BRANCH   9  13
HETATM   13  C7  UNL     1      -0.608  31.731  -3.731  1.00  0.00     0.042 A 
HETATM   14  C8  UNL     1      -1.220  33.113  -3.481  1.00  0.00     0.016 A 
HETATM   15  C9  UNL     1      -1.113  32.076  -2.410  1.00  0.00    -0.008 A 
HETATM   16  C10 UNL     1      -0.033  32.216  -1.333  1.00  0.00     0.011 C 
ENDBRANCH   9  13
BRANCH   1  17
HETATM   17  C3  UNL     1      -0.285  30.317  -9.196  1.00  0.00     0.089 C 
BRANCH  17  18
HETATM   18  C2  UNL     1      -0.917  31.423 -10.027  1.00  0.00     0.007 C 
HETATM   19  C1  UNL     1      -0.853  32.693  -9.676  1.00  0.00     0.012 C 
ENDBRANCH  17  18
ENDBRANCH   1  17
BRANCH   6  20
HETATM   20  N3  UNL     1      -4.182  28.863  -4.991  1.00  0.00    -0.234 N 
ATOM     21  H32 UNL     1      -4.208  28.517  -4.032  1.00  0.00     0.174 HD
ATOM     22  H31 UNL     1      -4.981  28.710  -5.606  1.00  0.00     0.174 HD
ENDBRANCH   6  20
TORSDOF 4
ENDMDL
MODEL 2
REMARK VINA RESULT: -5.940349765      2.694      5.484
REMARK  4 active torsions:
REMARK  status: ('A' for Active; 'I' for Inactive)
REMARK    1  A    between atoms: C2_2  and  C3_3 
REMARK    2  A    between atoms: C3_3  and  N1_4 
REMARK    3  A    between atoms: C5_9  and  N3_10 
REMARK    4  A    between atoms: C6_15  and  C7_16 
ROOT
HETATM    1  N1  UNL     1      -3.839  32.823  -2.601  1.00  0.00    -0.351 N 
ATOM      2  H1  UNL     1      -4.351  32.141  -2.042  1.00  0.00     0.166 HD
HETATM    3  C4  UNL     1      -3.549  32.224  -3.602  1.00  0.00     0.143 A 
HETATM    4  N2  UNL     1      -3.934  30.913  -3.740  1.00  0.00    -0.175 N 
ATOM      5  H2  UNL     1      -4.461  30.486  -2.977  1.00  0.00     0.186 HD
HETATM    6  C5  UNL     1      -3.663  30.167  -4.806  1.00  0.00     0.677 A 
HETATM    7  N4  UNL     1      -2.959  30.703  -5.844  1.00  0.00    -0.194 N 
ATOM      8  H4  UNL     1      -2.750  30.129  -6.661  1.00  0.00     0.184 HD
HETATM    9  C6  UNL     1      -2.539  31.974  -5.801  1.00  0.00     0.055 A 
HETATM   10  C11 UNL     1      -2.847  32.729  -4.658  1.00  0.00     0.112 A 
HETATM   11  C12 UNL     1      -2.388  34.095  -4.670  1.00  0.00     0.105 C 
HETATM   12  N5  UNL     1      -2.019  35.191  -4.706  1.00  0.00    -0.191 NA
ENDROOT
BRANCH   9  13
HETATM   13  C7  UNL     1      -1.739  32.575  -6.895  1.00  0.00     0.042 A 
HETATM   14  C8  UNL     1      -0.398  31.885  -7.170  1.00  0.00     0.016 A 
HETATM   15  C9  UNL     1      -1.489  31.955  -8.189  1.00  0.00    -0.008 A 
HETATM   16  C10 UNL     1      -1.367  32.943  -9.353  1.00  0.00     0.011 C 
ENDBRANCH   9  13
BRANCH   1  17
HETATM   17  C3  UNL     1      -3.835  33.951  -1.827  1.00  0.00     0.089 C 
BRANCH  17  18
HETATM   18  C2  UNL     1      -5.151  34.675  -2.062  1.00  0.00     0.007 C 
HETATM   19  C1  UNL     1      -5.243  35.737  -2.840  1.00  0.00     0.012 C 
ENDBRANCH  17  18
ENDBRANCH   1  17
BRANCH   6  20
HETATM   20  N3  UNL     1      -4.039  28.914  -4.921  1.00  0.00    -0.234 N 
ATOM     21  H32 UNL     1      -3.559  28.229  -4.338  1.00  0.00     0.174 HD
ATOM     22  H31 UNL     1      -4.777  28.609  -5.557  1.00  0.00     0.174 HD
ENDBRANCH   6  20
TORSDOF 4
ENDMDL
MODEL 3
REMARK VINA RESULT: -5.888068079      2.090      5.097
REMARK  4 active torsions:
REMARK  status: ('A' for Active; 'I' for Inactive)
REMARK    1  A    between atoms: C2_2  and  C3_3 
REMARK    2  A    between atoms: C3_3  and  N1_4 
REMARK    3  A    between atoms: C5_9  and  N3_10 
REMARK    4  A    between atoms: C6_15  and  C7_16 
ROOT
HETATM    1  N1  UNL     1      -1.272  31.647  -3.620  1.00  0.00    -0.351 N 
ATOM      2  H1  UNL     1      -1.895  31.874  -2.845  1.00  0.00     0.166 HD
HETATM    3  C4  UNL     1      -1.964  31.767  -4.596  1.00  0.00     0.143 A 
HETATM    4  N2  UNL     1      -3.277  32.142  -4.451  1.00  0.00    -0.175 N 
ATOM      5  H2  UNL     1      -3.626  32.307  -3.507  1.00  0.00     0.186 HD
HETATM    6  C5  UNL     1      -4.121  32.301  -5.466  1.00  0.00     0.677 A 
HETATM    7  N4  UNL     1      -3.691  32.086  -6.742  1.00  0.00    -0.194 N 
ATOM      8  H4  UNL     1      -4.339  32.208  -7.520  1.00  0.00     0.184 HD
HETATM    9  C6  UNL     1      -2.426  31.717  -6.984  1.00  0.00     0.055 A 
HETATM   10  C11 UNL     1      -1.566  31.560  -5.885  1.00  0.00     0.112 A 
HETATM   11  C12 UNL     1      -0.212  31.179  -6.201  1.00  0.00     0.105 C 
HETATM   12  N5  UNL     1       0.871  30.885  -6.480  1.00  0.00    -0.191 NA
ENDROOT
BRANCH   9  13
HETATM   13  C7  UNL     1      -1.938  31.438  -8.356  1.00  0.00     0.042 A 
HETATM   14  C8  UNL     1      -2.355  30.078  -8.926  1.00  0.00     0.016 A 
HETATM   15  C9  UNL     1      -2.774  31.372  -9.546  1.00  0.00    -0.008 A 
HETATM   16  C10 UNL     1      -2.089  31.847 -10.831  1.00  0.00     0.011 C 
ENDBRANCH   9  13
BRANCH   1  17
HETATM   17  C3  UNL     1      -0.079  31.362  -3.016  1.00  0.00     0.089 C 
BRANCH  17  18
HETATM   18  C2  UNL     1       0.722  32.653  -2.947  1.00  0.00     0.007 C 
HETATM   19  C1  UNL     1       1.912  32.776  -3.504  1.00  0.00     0.012 C 
ENDBRANCH  17  18
ENDBRANCH   1  17
BRANCH   6  20
HETATM   20  N3  UNL     1      -5.374  32.660  -5.309  1.00  0.00    -0.234 N 
ATOM     21  H32 UNL     1      -5.836  32.371  -4.446  1.00  0.00     0.174 HD
ATOM     22  H31 UNL     1      -5.890  33.205  -6.001  1.00  0.00     0.174 HD
ENDBRANCH   6  20
TORSDOF 4
ENDMDL
MODEL 4
REMARK VINA RESULT: -5.863657052      2.598      2.894
REMARK  4 active torsions:
REMARK  status: ('A' for Active; 'I' for Inactive)
REMARK    1  A    between atoms: C2_2  and  C3_3 
REMARK    2  A    between atoms: C3_3  and  N1_4 
REMARK    3  A    between atoms: C5_9  and  N3_10 
REMARK    4  A    between atoms: C6_15  and  C7_16 
ROOT
HETATM    1  N1  UNL     1      -1.376  29.810  -8.576  1.00  0.00    -0.351 N 
ATOM      2  H1  UNL     1      -1.420  28.808  -8.395  1.00  0.00     0.166 HD
HETATM    3  C4  UNL     1      -2.010  30.298  -7.679  1.00  0.00     0.143 A 
HETATM    4  N2  UNL     1      -2.575  29.483  -6.731  1.00  0.00    -0.175 N 
ATOM      5  H2  UNL     1      -2.437  28.476  -6.820  1.00  0.00     0.186 HD
HETATM    6  C5  UNL     1      -3.293  29.926  -5.702  1.00  0.00     0.677 A 
HETATM    7  N4  UNL     1      -3.501  31.265  -5.550  1.00  0.00    -0.194 N 
ATOM      8  H4  UNL     1      -4.052  31.603  -4.762  1.00  0.00     0.184 HD
HETATM    9  C6  UNL     1      -2.989  32.140  -6.427  1.00  0.00     0.055 A 
HETATM   10  C11 UNL     1      -2.237  31.632  -7.498  1.00  0.00     0.112 A 
HETATM   11  C12 UNL     1      -1.694  32.616  -8.401  1.00  0.00     0.105 C 
HETATM   12  N5  UNL     1      -1.260  33.424  -9.106  1.00  0.00    -0.191 NA
ENDROOT
BRANCH   9  13
HETATM   13  C7  UNL     1      -3.230  33.598  -6.312  1.00  0.00     0.042 A 
HETATM   14  C8  UNL     1      -4.681  33.993  -6.018  1.00  0.00     0.016 A 
HETATM   15  C9  UNL     1      -3.559  34.299  -5.080  1.00  0.00    -0.008 A 
HETATM   16  C10 UNL     1      -3.016  35.729  -4.998  1.00  0.00     0.011 C 
ENDBRANCH   9  13
BRANCH   1  17
HETATM   17  C3  UNL     1      -0.626  29.909  -9.716  1.00  0.00     0.089 C 
BRANCH  17  18
HETATM   18  C2  UNL     1      -1.580  30.143 -10.876  1.00  0.00     0.007 C 
HETATM   19  C1  UNL     1      -1.246  30.863 -11.930  1.00  0.00     0.012 C 
ENDBRANCH  17  18
ENDBRANCH   1  17
BRANCH   6  20
HETATM   20  N3  UNL     1      -3.827  29.131  -4.804  1.00  0.00    -0.234 N 
ATOM     21  H32 UNL     1      -3.251  28.885  -3.999  1.00  0.00     0.174 HD
ATOM     22  H31 UNL     1      -4.775  28.762  -4.878  1.00  0.00     0.174 HD
ENDBRANCH   6  20
TORSDOF 4
ENDMDL
MODEL 5
REMARK VINA RESULT: -5.834914682      1.992      5.395
REMARK  4 active torsions:
REMARK  status: ('A' for Active; 'I' for Inactive)
REMARK    1  A    between atoms: C2_2  and  C3_3 
REMARK    2  A    between atoms: C3_3  and  N1_4 
REMARK    3  A    between atoms: C5_9  and  N3_10 
REMARK    4  A    between atoms: C6_15  and  C7_16 
ROOT
HETATM    1  N1  UNL     1      -1.396  31.713  -3.766  1.00  0.00    -0.351 N 
ATOM      2  H1  UNL     1      -2.036  32.000  -3.026  1.00  0.00     0.166 HD
HETATM    3  C4  UNL     1      -2.047  31.811  -4.771  1.00  0.00     0.143 A 
HETATM    4  N2  UNL     1      -3.348  32.241  -4.694  1.00  0.00    -0.175 N 
ATOM      5  H2  UNL     1      -3.724  32.466  -3.773  1.00  0.00     0.186 HD
HETATM    6  C5  UNL     1      -4.148  32.383  -5.747  1.00  0.00     0.677 A 
HETATM    7  N4  UNL     1      -3.681  32.090  -6.994  1.00  0.00    -0.194 N 
ATOM      8  H4  UNL     1      -4.296  32.198  -7.801  1.00  0.00     0.184 HD
HETATM    9  C6  UNL     1      -2.424  31.662  -7.170  1.00  0.00     0.055 A 
HETATM   10  C11 UNL     1      -1.611  31.527  -6.033  1.00  0.00     0.112 A 
HETATM   11  C12 UNL     1      -0.263  31.080  -6.280  1.00  0.00     0.105 C 
HETATM   12  N5  UNL     1       0.818  30.732  -6.503  1.00  0.00    -0.191 NA
ENDROOT
BRANCH   9  13
HETATM   13  C7  UNL     1      -1.898  31.298  -8.508  1.00  0.00     0.042 A 
HETATM   14  C8  UNL     1      -2.394  29.956  -9.055  1.00  0.00     0.016 A 
HETATM   15  C9  UNL     1      -2.683  31.255  -9.733  1.00  0.00    -0.008 A 
HETATM   16  C10 UNL     1      -1.905  31.631 -10.999  1.00  0.00     0.011 C 
ENDBRANCH   9  13
BRANCH   1  17
HETATM   17  C3  UNL     1      -0.237  31.412  -3.104  1.00  0.00     0.089 C 
BRANCH  17  18
HETATM   18  C2  UNL     1      -0.294  32.091  -1.745  1.00  0.00     0.007 C 
HETATM   19  C1  UNL     1      -1.434  32.383  -1.149  1.00  0.00     0.012 C 
ENDBRANCH  17  18
ENDBRANCH   1  17
BRANCH   6  20
HETATM   20  N3  UNL     1      -5.391  32.796  -5.654  1.00  0.00    -0.234 N 
ATOM     21  H32 UNL     1      -5.918  32.503  -4.832  1.00  0.00     0.174 HD
ATOM     22  H31 UNL     1      -5.837  33.386  -6.357  1.00  0.00     0.174 HD
ENDBRANCH   6  20
TORSDOF 4
ENDMDL
