MODEL 1
REMARK VINA RESULT: -6.454401167      0.000      0.000
REMARK  6 active torsions:
REMARK  status: ('A' for Active; 'I' for Inactive)
REMARK    1  A    between atoms: O1_2  and  C2_3 
REMARK    2  A    between atoms: C2_3  and  C3_4 
REMARK    3  A    between atoms: C3_4  and  C4_5 
REMARK    4  A    between atoms: C4_5  and  C5_6 
REMARK    5  A    between atoms: C8_11  and  N2_12 
REMARK    6  A    between atoms: C9_17  and  N4_18 
ROOT
HETATM    1  C5  UNL     1      -2.112  31.188 -10.276  1.00  0.00    -0.004 C 
HETATM    2  C6  UNL     1      -3.364  30.687 -10.913  1.00  0.00     0.063 C 
HETATM    3  C7  UNL     1      -2.844  29.855 -12.020  1.00  0.00     0.037 A 
HETATM    4  N1  UNL     1      -3.377  28.781 -12.665  1.00  0.00    -0.195 N 
ATOM      5  H1  UNL     1      -4.292  28.427 -12.388  1.00  0.00     0.184 HD
HETATM    6  C8  UNL     1      -2.707  28.186 -13.663  1.00  0.00     0.677 A 
HETATM    7  N3  UNL     1      -1.502  28.676 -14.004  1.00  0.00    -0.177 N 
ATOM      8  H3  UNL     1      -0.992  28.222 -14.762  1.00  0.00     0.185 HD
HETATM    9  C9  UNL     1      -0.935  29.736 -13.394  1.00  0.00     0.122 A 
HETATM   10  C10 UNL     1      -1.614  30.355 -12.370  1.00  0.00     0.009 A 
HETATM   11  C11 UNL     1      -1.278  31.531 -11.492  1.00  0.00     0.049 C 
ENDROOT
BRANCH   1  12
HETATM   12  C4  UNL     1      -2.287  32.332  -9.341  1.00  0.00     0.007 C 
BRANCH  12  13
HETATM   13  C3  UNL     1      -0.902  32.739  -8.846  1.00  0.00     0.027 C 
BRANCH  13  14
HETATM   14  C2  UNL     1      -0.277  31.650  -8.040  1.00  0.00     0.167 C 
BRANCH  14  15
HETATM   15  O1  UNL     1       0.612  32.159  -7.134  1.00  0.00    -0.396 OA
HETATM   16  C1  UNL     1       0.622  31.472  -5.939  1.00  0.00     0.201 C 
ENDBRANCH  14  15
ENDBRANCH  13  14
ENDBRANCH  12  13
ENDBRANCH   1  12
BRANCH   9  17
HETATM   17  N4  UNL     1       0.221  30.197 -13.730  1.00  0.00    -0.385 N 
ATOM     18  H42 UNL     1       1.014  29.557 -13.740  1.00  0.00     0.157 HD
ATOM     19  H41 UNL     1       0.374  31.173 -13.985  1.00  0.00     0.157 HD
ENDBRANCH   9  17
BRANCH   6  20
HETATM   20  N2  UNL     1      -3.244  27.172 -14.248  1.00  0.00    -0.234 N 
ATOM     21  H22 UNL     1      -2.716  26.343 -14.521  1.00  0.00     0.174 HD
ATOM     22  H21 UNL     1      -4.244  27.197 -14.447  1.00  0.00     0.174 HD
ENDBRANCH   6  20
TORSDOF 6
ENDMDL
MODEL 2
REMARK VINA RESULT: -6.258911226      4.271      6.170
REMARK  6 active torsions:
REMARK  status: ('A' for Active; 'I' for Inactive)
REMARK    1  A    between atoms: O1_2  and  C2_3 
REMARK    2  A    between atoms: C2_3  and  C3_4 
REMARK    3  A    between atoms: C3_4  and  C4_5 
REMARK    4  A    between atoms: C4_5  and  C5_6 
REMARK    5  A    between atoms: C8_11  and  N2_12 
REMARK    6  A    between atoms: C9_17  and  N4_18 
ROOT
HETATM    1  C5  UNL     1      -2.971  30.921 -10.199  1.00  0.00    -0.004 C 
HETATM    2  C6  UNL     1      -2.602  29.618  -9.572  1.00  0.00     0.063 C 
HETATM    3  C7  UNL     1      -2.457  29.983  -8.146  1.00  0.00     0.037 A 
HETATM    4  N1  UNL     1      -2.601  29.248  -7.010  1.00  0.00    -0.195 N 
ATOM      5  H1  UNL     1      -2.859  28.263  -7.074  1.00  0.00     0.184 HD
HETATM    6  C8  UNL     1      -2.407  29.809  -5.808  1.00  0.00     0.677 A 
HETATM    7  N3  UNL     1      -2.070  31.109  -5.757  1.00  0.00    -0.177 N 
ATOM      8  H3  UNL     1      -1.923  31.536  -4.842  1.00  0.00     0.185 HD
HETATM    9  C9  UNL     1      -1.915  31.877  -6.854  1.00  0.00     0.122 A 
HETATM   10  C10 UNL     1      -2.111  31.312  -8.093  1.00  0.00     0.009 A 
HETATM   11  C11 UNL     1      -2.028  31.868  -9.489  1.00  0.00     0.049 C 
ENDROOT
BRANCH   1  12
HETATM   12  C4  UNL     1      -2.852  30.971 -11.681  1.00  0.00     0.007 C 
BRANCH  12  13
HETATM   13  C3  UNL     1      -1.369  30.864 -12.027  1.00  0.00     0.027 C 
BRANCH  13  14
HETATM   14  C2  UNL     1      -1.128  29.790 -13.033  1.00  0.00     0.167 C 
BRANCH  14  15
HETATM   15  O1  UNL     1      -2.151  28.881 -13.035  1.00  0.00    -0.396 OA
HETATM   16  C1  UNL     1      -2.256  28.186 -14.221  1.00  0.00     0.201 C 
ENDBRANCH  14  15
ENDBRANCH  13  14
ENDBRANCH  12  13
ENDBRANCH   1  12
BRANCH   9  17
HETATM   17  N4  UNL     1      -1.591  33.123  -6.793  1.00  0.00    -0.385 N 
ATOM     18  H42 UNL     1      -1.898  33.741  -7.544  1.00  0.00     0.157 HD
ATOM     19  H41 UNL     1      -1.042  33.515  -6.027  1.00  0.00     0.157 HD
ENDBRANCH   9  17
BRANCH   6  20
HETATM   20  N2  UNL     1      -2.554  29.080  -4.756  1.00  0.00    -0.234 N 
ATOM     21  H22 UNL     1      -1.782  28.834  -4.137  1.00  0.00     0.174 HD
ATOM     22  H21 UNL     1      -3.485  28.732  -4.530  1.00  0.00     0.174 HD
ENDBRANCH   6  20
TORSDOF 6
ENDMDL
MODEL 3
REMARK VINA RESULT: -6.250200971      4.965      7.033
REMARK  6 active torsions:
REMARK  status: ('A' for Active; 'I' for Inactive)
REMARK    1  A    between atoms: O1_2  and  C2_3 
REMARK    2  A    between atoms: C2_3  and  C3_4 
REMARK    3  A    between atoms: C3_4  and  C4_5 
REMARK    4  A    between atoms: C4_5  and  C5_6 
REMARK    5  A    between atoms: C8_11  and  N2_12 
REMARK    6  A    between atoms: C9_17  and  N4_18 
ROOT
HETATM    1  C5  UNL     1      -1.887  32.299  -8.056  1.00  0.00    -0.004 C 
HETATM    2  C6  UNL     1      -1.104  31.564  -7.021  1.00  0.00     0.063 C 
HETATM    3  C7  UNL     1      -2.142  31.217  -6.026  1.00  0.00     0.037 A 
HETATM    4  N1  UNL     1      -2.222  30.199  -5.127  1.00  0.00    -0.195 N 
ATOM      5  H1  UNL     1      -1.472  29.509  -5.076  1.00  0.00     0.184 HD
HETATM    6  C8  UNL     1      -3.279  30.094  -4.309  1.00  0.00     0.677 A 
HETATM    7  N3  UNL     1      -4.251  31.018  -4.403  1.00  0.00    -0.177 N 
ATOM      8  H3  UNL     1      -5.057  30.938  -3.781  1.00  0.00     0.185 HD
HETATM    9  C9  UNL     1      -4.216  32.044  -5.276  1.00  0.00     0.122 A 
HETATM   10  C10 UNL     1      -3.136  32.162  -6.120  1.00  0.00     0.009 A 
HETATM   11  C11 UNL     1      -2.786  33.158  -7.193  1.00  0.00     0.049 C 
ENDROOT
BRANCH   1  12
HETATM   12  C4  UNL     1      -1.079  33.084  -9.028  1.00  0.00     0.007 C 
BRANCH  12  13
HETATM   13  C3  UNL     1      -1.589  32.748 -10.427  1.00  0.00     0.027 C 
BRANCH  13  14
HETATM   14  C2  UNL     1      -1.264  31.339 -10.794  1.00  0.00     0.167 C 
BRANCH  14  15
HETATM   15  O1  UNL     1      -2.047  30.909 -11.831  1.00  0.00    -0.396 OA
HETATM   16  C1  UNL     1      -3.395  31.074 -11.596  1.00  0.00     0.201 C 
ENDBRANCH  14  15
ENDBRANCH  13  14
ENDBRANCH  12  13
ENDBRANCH   1  12
BRANCH   9  17
HETATM   17  N4  UNL     1      -5.155  32.925  -5.357  1.00  0.00    -0.385 N 
ATOM     18  H42 UNL     1      -5.706  33.122  -4.522  1.00  0.00     0.157 HD
ATOM     19  H41 UNL     1      -5.367  33.429  -6.217  1.00  0.00     0.157 HD
ENDBRANCH   9  17
BRANCH   6  20
HETATM   20  N2  UNL     1      -3.318  29.116  -3.474  1.00  0.00    -0.234 N 
ATOM     21  H22 UNL     1      -3.678  28.192  -3.715  1.00  0.00     0.174 HD
ATOM     22  H21 UNL     1      -2.974  29.268  -2.526  1.00  0.00     0.174 HD
ENDBRANCH   6  20
TORSDOF 6
ENDMDL
MODEL 4
REMARK VINA RESULT: -6.133358610      4.528      6.247
REMARK  6 active torsions:
REMARK  status: ('A' for Active; 'I' for Inactive)
REMARK    1  A    between atoms: O1_2  and  C2_3 
REMARK    2  A    between atoms: C2_3  and  C3_4 
REMARK    3  A    between atoms: C3_4  and  C4_5 
REMARK    4  A    between atoms: C4_5  and  C5_6 
REMARK    5  A    between atoms: C8_11  and  N2_12 
REMARK    6  A    between atoms: C9_17  and  N4_18 
ROOT
HETATM    1  C5  UNL     1      -1.828  32.324  -8.824  1.00  0.00    -0.004 C 
HETATM    2  C6  UNL     1      -2.479  31.000  -8.604  1.00  0.00     0.063 C 
HETATM    3  C7  UNL     1      -2.286  30.791  -7.152  1.00  0.00     0.037 A 
HETATM    4  N1  UNL     1      -3.002  30.074  -6.244  1.00  0.00    -0.195 N 
ATOM      5  H1  UNL     1      -3.835  29.567  -6.543  1.00  0.00     0.184 HD
HETATM    6  C8  UNL     1      -2.620  30.028  -4.960  1.00  0.00     0.677 A 
HETATM    7  N3  UNL     1      -1.518  30.708  -4.597  1.00  0.00    -0.177 N 
ATOM      8  H3  UNL     1      -1.229  30.675  -3.620  1.00  0.00     0.185 HD
HETATM    9  C9  UNL     1      -0.778  31.432  -5.460  1.00  0.00     0.122 A 
HETATM   10  C10 UNL     1      -1.160  31.485  -6.781  1.00  0.00     0.009 A 
HETATM   11  C11 UNL     1      -0.579  32.185  -7.981  1.00  0.00     0.049 C 
ENDROOT
BRANCH   1  12
HETATM   12  C4  UNL     1      -1.544  32.666 -10.245  1.00  0.00     0.007 C 
BRANCH  12  13
HETATM   13  C3  UNL     1      -2.118  31.548 -11.111  1.00  0.00     0.027 C 
BRANCH  13  14
HETATM   14  C2  UNL     1      -1.049  30.891 -11.918  1.00  0.00     0.167 C 
BRANCH  14  15
HETATM   15  O1  UNL     1      -0.590  29.761 -11.297  1.00  0.00    -0.396 OA
HETATM   16  C1  UNL     1       0.745  29.834 -10.958  1.00  0.00     0.201 C 
ENDBRANCH  14  15
ENDBRANCH  13  14
ENDBRANCH  12  13
ENDBRANCH   1  12
BRANCH   9  17
HETATM   17  N4  UNL     1       0.277  32.080  -5.101  1.00  0.00    -0.385 N 
ATOM     18  H42 UNL     1       0.172  33.047  -4.796  1.00  0.00     0.157 HD
ATOM     19  H41 UNL     1       1.210  31.666  -5.111  1.00  0.00     0.157 HD
ENDBRANCH   9  17
BRANCH   6  20
HETATM   20  N2  UNL     1      -3.324  29.339  -4.131  1.00  0.00    -0.234 N 
ATOM     21  H22 UNL     1      -3.283  28.321  -4.077  1.00  0.00     0.174 HD
ATOM     22  H21 UNL     1      -3.953  29.832  -3.497  1.00  0.00     0.174 HD
ENDBRANCH   6  20
TORSDOF 6
ENDMDL
MODEL 5
REMARK VINA RESULT: -6.131882596      4.966      6.896
REMARK  6 active torsions:
REMARK  status: ('A' for Active; 'I' for Inactive)
REMARK    1  A    between atoms: O1_2  and  C2_3 
REMARK    2  A    between atoms: C2_3  and  C3_4 
REMARK    3  A    between atoms: C3_4  and  C4_5 
REMARK    4  A    between atoms: C4_5  and  C5_6 
REMARK    5  A    between atoms: C8_11  and  N2_12 
REMARK    6  A    between atoms: C9_17  and  N4_18 
ROOT
HETATM    1  C5  UNL     1      -2.047  32.303  -8.083  1.00  0.00    -0.004 C 
HETATM    2  C6  UNL     1      -1.225  31.557  -7.085  1.00  0.00     0.063 C 
HETATM    3  C7  UNL     1      -2.225  31.207  -6.052  1.00  0.00     0.037 A 
HETATM    4  N1  UNL     1      -2.273  30.182  -5.158  1.00  0.00    -0.195 N 
ATOM      5  H1  UNL     1      -1.525  29.489  -5.142  1.00  0.00     0.184 HD
HETATM    6  C8  UNL     1      -3.298  30.076  -4.300  1.00  0.00     0.677 A 
HETATM    7  N3  UNL     1      -4.269  31.004  -4.348  1.00  0.00    -0.177 N 
ATOM      8  H3  UNL     1      -5.049  30.923  -3.695  1.00  0.00     0.185 HD
HETATM    9  C9  UNL     1      -4.264  32.036  -5.215  1.00  0.00     0.122 A 
HETATM   10  C10 UNL     1      -3.217  32.156  -6.100  1.00  0.00     0.009 A 
HETATM   11  C11 UNL     1      -2.907  33.158  -7.178  1.00  0.00     0.049 C 
ENDROOT
BRANCH   1  12
HETATM   12  C4  UNL     1      -1.274  33.092  -9.080  1.00  0.00     0.007 C 
BRANCH  12  13
HETATM   13  C3  UNL     1      -0.477  32.105  -9.930  1.00  0.00     0.027 C 
BRANCH  13  14
HETATM   14  C2  UNL     1      -1.377  31.302 -10.807  1.00  0.00     0.167 C 
BRANCH  14  15
HETATM   15  O1  UNL     1      -0.873  30.045 -11.007  1.00  0.00    -0.396 OA
HETATM   16  C1  UNL     1       0.457  29.933 -10.660  1.00  0.00     0.201 C 
ENDBRANCH  14  15
ENDBRANCH  13  14
ENDBRANCH  12  13
ENDBRANCH   1  12
BRANCH   9  17
HETATM   17  N4  UNL     1      -5.201  32.921  -5.251  1.00  0.00    -0.385 N 
ATOM     18  H42 UNL     1      -5.590  33.253  -4.369  1.00  0.00     0.157 HD
ATOM     19  H41 UNL     1      -5.569  33.301  -6.124  1.00  0.00     0.157 HD
ENDBRANCH   9  17
BRANCH   6  20
HETATM   20  N2  UNL     1      -3.308  29.091  -3.470  1.00  0.00    -0.234 N 
ATOM     21  H22 UNL     1      -2.467  28.743  -3.009  1.00  0.00     0.174 HD
ATOM     22  H21 UNL     1      -4.197  28.637  -3.263  1.00  0.00     0.174 HD
ENDBRANCH   6  20
TORSDOF 6
ENDMDL
