MODEL 1
REMARK VINA RESULT: -9.476573442      0.000      0.000
REMARK  13 active torsions:
REMARK  status: ('A' for Active; 'I' for Inactive)
REMARK    1  A    between atoms: N1_1  and  C1_4 
REMARK    2  A    between atoms: C2_10  and  S1_11 
REMARK    3  A    between atoms: S1_11  and  C3_12 
REMARK    4  A    between atoms: N7_22  and  C8_23 
REMARK    5  A    between atoms: C8_23  and  C9_24 
REMARK       I    between atoms: C9_24  and  N8_26 
REMARK    6  A    between atoms: N9_29  and  C11_30 
REMARK    7  A    between atoms: N11_34  and  C13_36 
REMARK    8  A    between atoms: C13_36  and  C14_37 
REMARK    9  A    between atoms: C14_37  and  N12_38 
REMARK   10  A    between atoms: C19_49  and  C20_50 
REMARK   11  A    between atoms: C20_50  and  O5_51 
REMARK   12  A    between atoms: C21_53  and  O6_54 
REMARK   13  A    between atoms: C23_57  and  C24_58 
ROOT
HETATM    1  C9  UNL     1      31.074  51.351  31.442  1.00  0.00     0.248 C 
HETATM    2  O2  UNL     1      30.856  51.458  30.214  1.00  0.00    -0.271 OA
HETATM    3  N8  UNL     1      32.435  51.277  31.899  1.00  0.00    -0.253 N 
HETATM    4  C10 UNL     1      33.600  51.290  31.090  1.00  0.00     0.334 C 
HETATM    5  O3  UNL     1      33.638  51.218  29.831  1.00  0.00    -0.246 OA
HETATM    6  N9  UNL     1      34.753  51.400  31.916  1.00  0.00    -0.280 N 
HETATM    7  C22 UNL     1      34.274  51.708  33.241  1.00  0.00     0.170 C 
HETATM    8  C23 UNL     1      32.873  51.165  33.261  1.00  0.00     0.205 C 
ENDROOT
BRANCH   6   9
HETATM    9  C11 UNL     1      36.091  51.244  31.499  1.00  0.00     0.161 C 
HETATM   10  N10 UNL     1      36.693  50.041  31.731  1.00  0.00    -0.173 N 
HETATM   11  C12 UNL     1      37.899  49.562  31.387  1.00  0.00     0.682 C 
ATOM     12  H10 UNL     1      36.121  49.385  32.263  1.00  0.00     0.186 HD
HETATM   13  N11 UNL     1      38.293  48.415  31.788  1.00  0.00    -0.224 N 
HETATM   14  N14 UNL     1      38.849  50.168  30.610  1.00  0.00    -0.156 N 
ATOM     15  H11 UNL     1      39.223  48.131  31.480  1.00  0.00     0.177 HD
HETATM   16  C18 UNL     1      38.823  51.369  30.011  1.00  0.00     0.270 C 
ATOM     17  H14 UNL     1      39.701  49.627  30.465  1.00  0.00     0.187 HD
HETATM   18  O4  UNL     1      39.870  51.754  29.469  1.00  0.00    -0.267 OA
HETATM   19  C19 UNL     1      37.740  52.237  29.931  1.00  0.00     0.070 C 
HETATM   20  C21 UNL     1      36.723  52.324  30.878  1.00  0.00     0.124 C 
BRANCH  13  21
HETATM   21  C13 UNL     1      37.599  47.485  32.610  1.00  0.00     0.168 C 
BRANCH  21  22
HETATM   22  C14 UNL     1      36.736  46.540  31.812  1.00  0.00     0.294 C 
BRANCH  22  23
HETATM   23  N12 UNL     1      35.858  45.732  32.603  1.00  0.00     0.117 N 
HETATM   24  C15 UNL     1      34.569  45.527  32.012  1.00  0.00     0.302 C 
HETATM   25  C16 UNL     1      33.591  45.474  33.185  1.00  0.00     0.264 C 
HETATM   26  N13 UNL     1      34.213  46.403  34.104  1.00  0.00    -0.047 N 
HETATM   27  C17 UNL     1      35.646  46.289  33.904  1.00  0.00     0.502 C 
ATOM     28 2H13 UNL     1      33.867  47.358  34.008  1.00  0.00     0.279 HD
ATOM     29 1H13 UNL     1      33.928  46.263  35.073  1.00  0.00     0.279 HD
ENDBRANCH  22  23
ENDBRANCH  21  22
ENDBRANCH  13  21
BRANCH  19  30
HETATM   30  C20 UNL     1      37.679  53.133  28.760  1.00  0.00     0.211 C 
BRANCH  30  31
HETATM   31  O5  UNL     1      36.390  53.195  28.272  1.00  0.00    -0.396 OA
ATOM     32  H5  UNL     1      36.205  54.066  27.943  1.00  0.00     0.209 HD
ENDBRANCH  30  31
ENDBRANCH  19  30
BRANCH  20  33
HETATM   33  O6  UNL     1      36.271  53.537  31.266  1.00  0.00    -0.356 OA
ATOM     34  H6  UNL     1      35.995  53.583  32.174  1.00  0.00     0.218 HD
ENDBRANCH  20  33
ENDBRANCH   6   9
BRANCH   8  35
HETATM   35  C24 UNL     1      32.811  49.733  33.663  1.00  0.00     0.256 C 
HETATM   36  N15 UNL     1      32.881  49.346  35.024  1.00  0.00    -0.060 NA
HETATM   37  O7  UNL     1      32.693  48.822  32.806  1.00  0.00    -0.274 OA
ENDBRANCH   8  35
BRANCH   1  38
HETATM   38  C8  UNL     1      29.996  51.298  32.422  1.00  0.00     0.251 C 
BRANCH  38  39
HETATM   39  N7  UNL     1      29.151  50.135  32.204  1.00  0.00    -0.249 N 
HETATM   40  C5  UNL     1      29.177  48.963  32.874  1.00  0.00     0.149 A 
HETATM   41  N4  UNL     1      29.934  48.490  33.896  1.00  0.00    -0.348 N 
HETATM   42  C6  UNL     1      28.221  48.109  32.367  1.00  0.00     0.092 A 
HETATM   43  C4  UNL     1      29.765  47.252  34.394  1.00  0.00     0.108 A 
ATOM     44  H4  UNL     1      30.653  49.090  34.298  1.00  0.00     0.167 HD
HETATM   45  C3  UNL     1      28.819  46.364  33.917  1.00  0.00     0.025 A 
HETATM   46  C7  UNL     1      28.028  46.822  32.869  1.00  0.00     0.054 A 
HETATM   47  N5  UNL     1      27.619  48.812  31.371  1.00  0.00    -0.280 N 
HETATM   48  N6  UNL     1      28.186  50.003  31.296  1.00  0.00    -0.018 NA
ATOM     49  H5  UNL     1      26.858  48.476  30.781  1.00  0.00     0.184 HD
BRANCH  45  50
HETATM   50  S1  UNL     1      28.653  44.733  34.626  1.00  0.00    -0.066 SA
BRANCH  50  51
HETATM   51  C2  UNL     1      27.485  43.752  33.716  1.00  0.00     0.143 A 
HETATM   52  C1  UNL     1      26.120  43.878  33.666  1.00  0.00     0.157 A 
HETATM   53  N2  UNL     1      25.661  42.917  32.850  1.00  0.00    -0.223 N 
HETATM   54  O1  UNL     1      26.686  42.212  32.401  1.00  0.00    -0.154 OA
ATOM     55  H2  UNL     1      24.682  42.757  32.614  1.00  0.00     0.198 HD
HETATM   56  N3  UNL     1      27.791  42.714  32.922  1.00  0.00    -0.231 N 
ATOM     57  H3  UNL     1      28.734  42.366  32.749  1.00  0.00     0.197 HD
BRANCH  52  58
HETATM   58  N1  UNL     1      25.377  44.738  34.271  1.00  0.00    -0.382 N 
ATOM     59  H12 UNL     1      24.730  45.411  33.862  1.00  0.00     0.157 HD
ATOM     60  H11 UNL     1      25.342  44.863  35.283  1.00  0.00     0.157 HD
ENDBRANCH  52  58
ENDBRANCH  50  51
ENDBRANCH  45  50
ENDBRANCH  38  39
ENDBRANCH   1  38
TORSDOF 13
ENDMDL
MODEL 2
REMARK VINA RESULT: -9.399853760      1.956      4.347
REMARK  13 active torsions:
REMARK  status: ('A' for Active; 'I' for Inactive)
REMARK    1  A    between atoms: N1_1  and  C1_4 
REMARK    2  A    between atoms: C2_10  and  S1_11 
REMARK    3  A    between atoms: S1_11  and  C3_12 
REMARK    4  A    between atoms: N7_22  and  C8_23 
REMARK    5  A    between atoms: C8_23  and  C9_24 
REMARK       I    between atoms: C9_24  and  N8_26 
REMARK    6  A    between atoms: N9_29  and  C11_30 
REMARK    7  A    between atoms: N11_34  and  C13_36 
REMARK    8  A    between atoms: C13_36  and  C14_37 
REMARK    9  A    between atoms: C14_37  and  N12_38 
REMARK   10  A    between atoms: C19_49  and  C20_50 
REMARK   11  A    between atoms: C20_50  and  O5_51 
REMARK   12  A    between atoms: C21_53  and  O6_54 
REMARK   13  A    between atoms: C23_57  and  C24_58 
ROOT
HETATM    1  C9  UNL     1      31.162  51.440  31.479  1.00  0.00     0.248 C 
HETATM    2  O2  UNL     1      30.890  51.627  30.271  1.00  0.00    -0.271 OA
HETATM    3  N8  UNL     1      32.540  51.313  31.867  1.00  0.00    -0.253 N 
HETATM    4  C10 UNL     1      33.667  51.356  31.007  1.00  0.00     0.334 C 
HETATM    5  O3  UNL     1      33.647  51.363  29.746  1.00  0.00    -0.246 OA
HETATM    6  N9  UNL     1      34.858  51.393  31.784  1.00  0.00    -0.280 N 
HETATM    7  C22 UNL     1      34.445  51.625  33.147  1.00  0.00     0.170 C 
HETATM    8  C23 UNL     1      33.037  51.108  33.197  1.00  0.00     0.205 C 
ENDROOT
BRANCH   6   9
HETATM    9  C11 UNL     1      36.172  51.240  31.297  1.00  0.00     0.161 C 
HETATM   10  N10 UNL     1      36.752  52.313  30.683  1.00  0.00    -0.173 N 
HETATM   11  C12 UNL     1      37.989  52.508  30.201  1.00  0.00     0.682 C 
ATOM     12  H10 UNL     1      36.131  53.114  30.571  1.00  0.00     0.186 HD
HETATM   13  N11 UNL     1      38.296  53.582  29.582  1.00  0.00    -0.224 N 
HETATM   14  N14 UNL     1      39.060  51.658  30.277  1.00  0.00    -0.156 N 
ATOM     15  H11 UNL     1      39.258  53.646  29.249  1.00  0.00     0.177 HD
HETATM   16  C18 UNL     1      39.145  50.441  30.834  1.00  0.00     0.270 C 
ATOM     17  H14 UNL     1      39.919  52.002  29.847  1.00  0.00     0.187 HD
HETATM   18  O4  UNL     1      40.197  49.807  30.652  1.00  0.00    -0.267 OA
HETATM   19  C19 UNL     1      38.175  49.804  31.599  1.00  0.00     0.070 C 
HETATM   20  C21 UNL     1      36.804  50.005  31.466  1.00  0.00     0.124 C 
BRANCH  13  21
HETATM   21  C13 UNL     1      37.463  54.701  29.298  1.00  0.00     0.168 C 
BRANCH  21  22
HETATM   22  C14 UNL     1      37.273  54.919  27.819  1.00  0.00     0.294 C 
BRANCH  22  23
HETATM   23  N12 UNL     1      35.905  54.975  27.402  1.00  0.00     0.117 N 
HETATM   24  C15 UNL     1      35.204  56.135  27.866  1.00  0.00     0.302 C 
HETATM   25  C16 UNL     1      33.771  55.667  28.117  1.00  0.00     0.264 C 
HETATM   26  N13 UNL     1      33.998  54.307  28.555  1.00  0.00    -0.047 N 
HETATM   27  C17 UNL     1      35.166  53.830  27.836  1.00  0.00     0.502 C 
ATOM     28 2H13 UNL     1      34.083  54.217  29.567  1.00  0.00     0.279 HD
ATOM     29 1H13 UNL     1      33.182  53.705  28.443  1.00  0.00     0.279 HD
ENDBRANCH  22  23
ENDBRANCH  21  22
ENDBRANCH  13  21
BRANCH  19  30
HETATM   30  C20 UNL     1      38.642  48.841  32.615  1.00  0.00     0.211 C 
BRANCH  30  31
HETATM   31  O5  UNL     1      38.614  47.559  32.107  1.00  0.00    -0.396 OA
ATOM     32  H5  UNL     1      39.497  47.227  32.000  1.00  0.00     0.209 HD
ENDBRANCH  30  31
ENDBRANCH  19  30
BRANCH  20  33
HETATM   33  O6  UNL     1      35.965  48.946  31.498  1.00  0.00    -0.356 OA
ATOM     34  H6  UNL     1      36.363  48.137  31.799  1.00  0.00     0.218 HD
ENDBRANCH  20  33
ENDBRANCH   6   9
BRANCH   8  35
HETATM   35  C24 UNL     1      32.963  49.654  33.513  1.00  0.00     0.256 C 
HETATM   36  N15 UNL     1      33.005  49.187  34.849  1.00  0.00    -0.060 NA
HETATM   37  O7  UNL     1      32.860  48.796  32.601  1.00  0.00    -0.274 OA
ENDBRANCH   8  35
BRANCH   1  38
HETATM   38  C8  UNL     1      30.127  51.344  32.502  1.00  0.00     0.251 C 
BRANCH  38  39
HETATM   39  N7  UNL     1      29.266  50.198  32.266  1.00  0.00    -0.249 N 
HETATM   40  C5  UNL     1      29.270  49.016  32.920  1.00  0.00     0.149 A 
HETATM   41  N4  UNL     1      30.016  48.518  33.938  1.00  0.00    -0.348 N 
HETATM   42  C6  UNL     1      28.303  48.185  32.399  1.00  0.00     0.092 A 
HETATM   43  C4  UNL     1      29.825  47.276  34.419  1.00  0.00     0.108 A 
ATOM     44  H4  UNL     1      30.743  49.102  34.351  1.00  0.00     0.167 HD
HETATM   45  C3  UNL     1      28.868  46.409  33.927  1.00  0.00     0.025 A 
HETATM   46  C7  UNL     1      28.088  46.894  32.883  1.00  0.00     0.054 A 
HETATM   47  N5  UNL     1      27.716  48.910  31.410  1.00  0.00    -0.280 N 
HETATM   48  N6  UNL     1      28.302  50.093  31.353  1.00  0.00    -0.018 NA
ATOM     49  H5  UNL     1      26.952  48.594  30.813  1.00  0.00     0.184 HD
BRANCH  45  50
HETATM   50  S1  UNL     1      28.674  44.773  34.614  1.00  0.00    -0.066 SA
BRANCH  50  51
HETATM   51  C2  UNL     1      27.484  43.827  33.695  1.00  0.00     0.143 A 
HETATM   52  C1  UNL     1      26.117  43.958  33.679  1.00  0.00     0.157 A 
HETATM   53  N2  UNL     1      25.639  43.027  32.840  1.00  0.00    -0.223 N 
HETATM   54  O1  UNL     1      26.652  42.337  32.344  1.00  0.00    -0.154 OA
ATOM     55  H2  UNL     1      24.654  42.877  32.620  1.00  0.00     0.198 HD
HETATM   56  N3  UNL     1      27.769  42.817  32.859  1.00  0.00    -0.231 N 
ATOM     57  H3  UNL     1      28.707  42.473  32.653  1.00  0.00     0.197 HD
BRANCH  52  58
HETATM   58  N1  UNL     1      25.391  44.797  34.330  1.00  0.00    -0.382 N 
ATOM     59  H12 UNL     1      24.622  44.602  34.971  1.00  0.00     0.157 HD
ATOM     60  H11 UNL     1      25.496  45.811  34.284  1.00  0.00     0.157 HD
ENDBRANCH  52  58
ENDBRANCH  50  51
ENDBRANCH  45  50
ENDBRANCH  38  39
ENDBRANCH   1  38
TORSDOF 13
ENDMDL
MODEL 3
REMARK VINA RESULT: -9.374875284      2.966      5.403
REMARK  13 active torsions:
REMARK  status: ('A' for Active; 'I' for Inactive)
REMARK    1  A    between atoms: N1_1  and  C1_4 
REMARK    2  A    between atoms: C2_10  and  S1_11 
REMARK    3  A    between atoms: S1_11  and  C3_12 
REMARK    4  A    between atoms: N7_22  and  C8_23 
REMARK    5  A    between atoms: C8_23  and  C9_24 
REMARK       I    between atoms: C9_24  and  N8_26 
REMARK    6  A    between atoms: N9_29  and  C11_30 
REMARK    7  A    between atoms: N11_34  and  C13_36 
REMARK    8  A    between atoms: C13_36  and  C14_37 
REMARK    9  A    between atoms: C14_37  and  N12_38 
REMARK   10  A    between atoms: C19_49  and  C20_50 
REMARK   11  A    between atoms: C20_50  and  O5_51 
REMARK   12  A    between atoms: C21_53  and  O6_54 
REMARK   13  A    between atoms: C23_57  and  C24_58 
ROOT
HETATM    1  C9  UNL     1      29.572  47.603  34.520  1.00  0.00     0.248 C 
HETATM    2  O2  UNL     1      29.086  48.245  33.562  1.00  0.00    -0.271 OA
HETATM    3  N8  UNL     1      30.966  47.252  34.484  1.00  0.00    -0.253 N 
HETATM    4  C10 UNL     1      31.882  47.543  33.441  1.00  0.00     0.334 C 
HETATM    5  O3  UNL     1      31.602  48.022  32.309  1.00  0.00    -0.246 OA
HETATM    6  N9  UNL     1      33.201  47.210  33.859  1.00  0.00    -0.280 N 
HETATM    7  C22 UNL     1      33.121  46.942  35.275  1.00  0.00     0.170 C 
HETATM    8  C23 UNL     1      31.692  46.533  35.491  1.00  0.00     0.205 C 
ENDROOT
BRANCH   6   9
HETATM    9  C11 UNL     1      34.346  47.167  33.039  1.00  0.00     0.161 C 
HETATM   10  N10 UNL     1      35.064  48.319  32.888  1.00  0.00    -0.173 N 
HETATM   11  C12 UNL     1      36.221  48.577  32.259  1.00  0.00     0.682 C 
ATOM     12  H10 UNL     1      34.644  49.133  33.338  1.00  0.00     0.186 HD
HETATM   13  N11 UNL     1      36.676  49.768  32.174  1.00  0.00    -0.224 N 
HETATM   14  N14 UNL     1      37.054  47.685  31.640  1.00  0.00    -0.156 N 
ATOM     15  H11 UNL     1      37.561  49.873  31.677  1.00  0.00     0.177 HD
HETATM   16  C18 UNL     1      36.929  46.356  31.502  1.00  0.00     0.270 C 
ATOM     17  H14 UNL     1      37.892  48.089  31.222  1.00  0.00     0.187 HD
HETATM   18  O4  UNL     1      37.755  45.782  30.776  1.00  0.00    -0.267 OA
HETATM   19  C19 UNL     1      35.966  45.543  32.089  1.00  0.00     0.070 C 
HETATM   20  C21 UNL     1      34.681  45.956  32.427  1.00  0.00     0.124 C 
BRANCH  13  21
HETATM   21  C13 UNL     1      36.104  50.966  32.686  1.00  0.00     0.168 C 
BRANCH  21  22
HETATM   22  C14 UNL     1      35.747  51.946  31.599  1.00  0.00     0.294 C 
BRANCH  22  23
HETATM   23  N12 UNL     1      34.341  52.120  31.398  1.00  0.00     0.117 N 
HETATM   24  C15 UNL     1      33.568  52.030  32.601  1.00  0.00     0.302 C 
HETATM   25  C16 UNL     1      32.247  51.384  32.185  1.00  0.00     0.264 C 
HETATM   26  N13 UNL     1      32.693  50.499  31.130  1.00  0.00    -0.047 N 
HETATM   27  C17 UNL     1      33.809  51.161  30.479  1.00  0.00     0.502 C 
ATOM     28 2H13 UNL     1      32.917  49.560  31.460  1.00  0.00     0.279 HD
ATOM     29 1H13 UNL     1      31.950  50.233  30.485  1.00  0.00     0.279 HD
ENDBRANCH  22  23
ENDBRANCH  21  22
ENDBRANCH  13  21
BRANCH  19  30
HETATM   30  C20 UNL     1      36.341  44.142  32.361  1.00  0.00     0.211 C 
BRANCH  30  31
HETATM   31  O5  UNL     1      35.950  43.331  31.315  1.00  0.00    -0.396 OA
ATOM     32  H5  UNL     1      35.125  42.908  31.517  1.00  0.00     0.209 HD
ENDBRANCH  30  31
ENDBRANCH  19  30
BRANCH  20  33
HETATM   33  O6  UNL     1      33.627  45.152  32.162  1.00  0.00    -0.356 OA
ATOM     34  H6  UNL     1      33.765  44.545  31.444  1.00  0.00     0.218 HD
ENDBRANCH  20  33
ENDBRANCH   6   9
BRANCH   8  35
HETATM   35  C24 UNL     1      31.468  45.075  35.288  1.00  0.00     0.256 C 
HETATM   36  N15 UNL     1      30.929  44.262  36.315  1.00  0.00    -0.060 NA
HETATM   37  O7  UNL     1      31.748  44.521  34.196  1.00  0.00    -0.274 OA
ENDBRANCH   8  35
BRANCH   1  38
HETATM   38  C8  UNL     1      28.771  47.197  35.669  1.00  0.00     0.251 C 
BRANCH  38  39
HETATM   39  N7  UNL     1      27.602  46.442  35.249  1.00  0.00    -0.249 N 
HETATM   40  C5  UNL     1      27.575  45.231  34.653  1.00  0.00     0.149 A 
HETATM   41  N4  UNL     1      28.542  44.362  34.265  1.00  0.00    -0.348 N 
HETATM   42  C6  UNL     1      26.273  44.854  34.408  1.00  0.00     0.092 A 
HETATM   43  C4  UNL     1      28.251  43.191  33.670  1.00  0.00     0.108 A 
ATOM     44  H4  UNL     1      29.519  44.604  34.428  1.00  0.00     0.167 HD
HETATM   45  C3  UNL     1      26.960  42.774  33.406  1.00  0.00     0.025 A 
HETATM   46  C7  UNL     1      25.948  43.645  33.794  1.00  0.00     0.054 A 
HETATM   47  N5  UNL     1      25.518  45.882  34.880  1.00  0.00    -0.280 N 
HETATM   48  N6  UNL     1      26.326  46.805  35.371  1.00  0.00    -0.018 NA
ATOM     49  H5  UNL     1      24.500  45.932  34.859  1.00  0.00     0.184 HD
BRANCH  45  50
HETATM   50  S1  UNL     1      26.649  41.206  32.610  1.00  0.00    -0.066 SA
BRANCH  50  51
HETATM   51  C2  UNL     1      26.028  41.433  30.962  1.00  0.00     0.143 A 
HETATM   52  C1  UNL     1      25.089  40.689  30.293  1.00  0.00     0.157 A 
HETATM   53  N2  UNL     1      24.942  41.236  29.076  1.00  0.00    -0.223 N 
HETATM   54  O1  UNL     1      25.749  42.279  28.975  1.00  0.00    -0.154 OA
ATOM     55  H2  UNL     1      24.310  40.902  28.348  1.00  0.00     0.198 HD
HETATM   56  N3  UNL     1      26.408  42.401  30.113  1.00  0.00    -0.231 N 
ATOM     57  H3  UNL     1      27.101  43.121  30.317  1.00  0.00     0.197 HD
BRANCH  52  58
HETATM   58  N1  UNL     1      24.446  39.656  30.712  1.00  0.00    -0.382 N 
ATOM     59  H12 UNL     1      23.765  39.090  30.207  1.00  0.00     0.157 HD
ATOM     60  H11 UNL     1      24.539  39.256  31.645  1.00  0.00     0.157 HD
ENDBRANCH  52  58
ENDBRANCH  50  51
ENDBRANCH  45  50
ENDBRANCH  38  39
ENDBRANCH   1  38
TORSDOF 13
ENDMDL
MODEL 4
REMARK VINA RESULT: -9.224143979      2.750      5.883
REMARK  13 active torsions:
REMARK  status: ('A' for Active; 'I' for Inactive)
REMARK    1  A    between atoms: N1_1  and  C1_4 
REMARK    2  A    between atoms: C2_10  and  S1_11 
REMARK    3  A    between atoms: S1_11  and  C3_12 
REMARK    4  A    between atoms: N7_22  and  C8_23 
REMARK    5  A    between atoms: C8_23  and  C9_24 
REMARK       I    between atoms: C9_24  and  N8_26 
REMARK    6  A    between atoms: N9_29  and  C11_30 
REMARK    7  A    between atoms: N11_34  and  C13_36 
REMARK    8  A    between atoms: C13_36  and  C14_37 
REMARK    9  A    between atoms: C14_37  and  N12_38 
REMARK   10  A    between atoms: C19_49  and  C20_50 
REMARK   11  A    between atoms: C20_50  and  O5_51 
REMARK   12  A    between atoms: C21_53  and  O6_54 
REMARK   13  A    between atoms: C23_57  and  C24_58 
ROOT
HETATM    1  C9  UNL     1      28.832  46.846  33.532  1.00  0.00     0.248 C 
HETATM    2  O2  UNL     1      28.064  46.981  32.553  1.00  0.00    -0.271 OA
HETATM    3  N8  UNL     1      30.067  47.582  33.550  1.00  0.00    -0.253 N 
HETATM    4  C10 UNL     1      30.543  48.458  32.541  1.00  0.00     0.334 C 
HETATM    5  O3  UNL     1      30.041  48.625  31.396  1.00  0.00    -0.246 OA
HETATM    6  N9  UNL     1      31.698  49.142  33.011  1.00  0.00    -0.280 N 
HETATM    7  C22 UNL     1      31.788  48.863  34.424  1.00  0.00     0.170 C 
HETATM    8  C23 UNL     1      31.058  47.561  34.588  1.00  0.00     0.205 C 
ENDROOT
BRANCH   6   9
HETATM    9  C11 UNL     1      32.565  49.938  32.234  1.00  0.00     0.161 C 
HETATM   10  N10 UNL     1      32.084  51.124  31.759  1.00  0.00    -0.173 N 
HETATM   11  C12 UNL     1      32.672  52.121  31.079  1.00  0.00     0.682 C 
ATOM     12  H10 UNL     1      31.096  51.282  31.957  1.00  0.00     0.186 HD
HETATM   13  N11 UNL     1      31.998  53.120  30.656  1.00  0.00    -0.224 N 
HETATM   14  N14 UNL     1      33.993  52.236  30.739  1.00  0.00    -0.156 N 
ATOM     15  H11 UNL     1      32.525  53.830  30.148  1.00  0.00     0.177 HD
HETATM   16  C18 UNL     1      35.014  51.402  30.988  1.00  0.00     0.270 C 
ATOM     17  H14 UNL     1      34.237  53.081  30.222  1.00  0.00     0.187 HD
HETATM   18  O4  UNL     1      36.103  51.664  30.454  1.00  0.00    -0.267 OA
HETATM   19  C19 UNL     1      34.985  50.263  31.786  1.00  0.00     0.070 C 
HETATM   20  C21 UNL     1      33.860  49.471  31.994  1.00  0.00     0.124 C 
BRANCH  13  21
HETATM   21  C13 UNL     1      30.604  53.366  30.805  1.00  0.00     0.168 C 
BRANCH  21  22
HETATM   22  C14 UNL     1      29.757  52.309  30.144  1.00  0.00     0.294 C 
BRANCH  22  23
HETATM   23  N12 UNL     1      28.512  52.054  30.803  1.00  0.00     0.117 N 
HETATM   24  C15 UNL     1      28.645  51.756  32.198  1.00  0.00     0.302 C 
HETATM   25  C16 UNL     1      27.543  50.740  32.500  1.00  0.00     0.264 C 
HETATM   26  N13 UNL     1      27.488  50.014  31.250  1.00  0.00    -0.047 N 
HETATM   27  C17 UNL     1      27.801  50.968  30.202  1.00  0.00     0.502 C 
ATOM     28 2H13 UNL     1      28.087  49.188  31.236  1.00  0.00     0.279 HD
ATOM     29 1H13 UNL     1      26.602  49.531  31.103  1.00  0.00     0.279 HD
ENDBRANCH  22  23
ENDBRANCH  21  22
ENDBRANCH  13  21
BRANCH  19  30
HETATM   30  C20 UNL     1      36.245  49.871  32.446  1.00  0.00     0.211 C 
BRANCH  30  31
HETATM   31  O5  UNL     1      36.720  50.907  33.224  1.00  0.00    -0.396 OA
ATOM     32  H5  UNL     1      36.348  50.860  34.097  1.00  0.00     0.209 HD
ENDBRANCH  30  31
ENDBRANCH  19  30
BRANCH  20  33
HETATM   33  O6  UNL     1      33.975  48.125  31.973  1.00  0.00    -0.356 OA
ATOM     34  H6  UNL     1      33.148  47.658  31.975  1.00  0.00     0.218 HD
ENDBRANCH  20  33
ENDBRANCH   6   9
BRANCH   8  35
HETATM   35  C24 UNL     1      31.934  46.374  34.384  1.00  0.00     0.256 C 
HETATM   36  N15 UNL     1      32.176  45.450  35.429  1.00  0.00    -0.060 NA
HETATM   37  O7  UNL     1      32.485  46.156  33.276  1.00  0.00    -0.274 OA
ENDBRANCH   8  35
BRANCH   1  38
HETATM   38  C8  UNL     1      28.516  45.968  34.653  1.00  0.00     0.251 C 
BRANCH  38  39
HETATM   39  N7  UNL     1      27.432  45.061  34.314  1.00  0.00    -0.249 N 
HETATM   40  C5  UNL     1      27.527  43.839  33.748  1.00  0.00     0.149 A 
HETATM   41  N4  UNL     1      28.575  43.087  33.327  1.00  0.00    -0.348 N 
HETATM   42  C6  UNL     1      26.272  43.296  33.584  1.00  0.00     0.092 A 
HETATM   43  C4  UNL     1      28.404  41.872  32.776  1.00  0.00     0.108 A 
ATOM     44  H4  UNL     1      29.521  43.453  33.431  1.00  0.00     0.167 HD
HETATM   45  C3  UNL     1      27.164  41.289  32.592  1.00  0.00     0.025 A 
HETATM   46  C7  UNL     1      26.071  42.038  33.015  1.00  0.00     0.054 A 
HETATM   47  N5  UNL     1      25.419  44.235  34.073  1.00  0.00    -0.280 N 
HETATM   48  N6  UNL     1      26.128  45.266  34.497  1.00  0.00    -0.018 NA
ATOM     49  H5  UNL     1      24.403  44.156  34.106  1.00  0.00     0.184 HD
BRANCH  45  50
HETATM   50  S1  UNL     1      27.013  39.672  31.850  1.00  0.00    -0.066 SA
BRANCH  50  51
HETATM   51  C2  UNL     1      26.248  39.768  30.250  1.00  0.00     0.143 A 
HETATM   52  C1  UNL     1      24.924  39.964  29.947  1.00  0.00     0.157 A 
HETATM   53  N2  UNL     1      24.818  39.964  28.609  1.00  0.00    -0.223 N 
HETATM   54  O1  UNL     1      26.018  39.777  28.085  1.00  0.00    -0.154 OA
ATOM     55  H2  UNL     1      23.953  40.087  28.082  1.00  0.00     0.198 HD
HETATM   56  N3  UNL     1      26.885  39.658  29.074  1.00  0.00    -0.231 N 
ATOM     57  H3  UNL     1      27.888  39.505  28.962  1.00  0.00     0.197 HD
BRANCH  52  58
HETATM   58  N1  UNL     1      23.937  40.121  30.757  1.00  0.00    -0.382 N 
ATOM     59  H12 UNL     1      23.034  40.558  30.574  1.00  0.00     0.157 HD
ATOM     60  H11 UNL     1      23.932  39.816  31.730  1.00  0.00     0.157 HD
ENDBRANCH  52  58
ENDBRANCH  50  51
ENDBRANCH  45  50
ENDBRANCH  38  39
ENDBRANCH   1  38
TORSDOF 13
ENDMDL
MODEL 5
REMARK VINA RESULT: -9.072344222      2.824      5.866
REMARK  13 active torsions:
REMARK  status: ('A' for Active; 'I' for Inactive)
REMARK    1  A    between atoms: N1_1  and  C1_4 
REMARK    2  A    between atoms: C2_10  and  S1_11 
REMARK    3  A    between atoms: S1_11  and  C3_12 
REMARK    4  A    between atoms: N7_22  and  C8_23 
REMARK    5  A    between atoms: C8_23  and  C9_24 
REMARK       I    between atoms: C9_24  and  N8_26 
REMARK    6  A    between atoms: N9_29  and  C11_30 
REMARK    7  A    between atoms: N11_34  and  C13_36 
REMARK    8  A    between atoms: C13_36  and  C14_37 
REMARK    9  A    between atoms: C14_37  and  N12_38 
REMARK   10  A    between atoms: C19_49  and  C20_50 
REMARK   11  A    between atoms: C20_50  and  O5_51 
REMARK   12  A    between atoms: C21_53  and  O6_54 
REMARK   13  A    between atoms: C23_57  and  C24_58 
ROOT
HETATM    1  C9  UNL     1      29.894  46.726  34.275  1.00  0.00     0.248 C 
HETATM    2  O2  UNL     1      28.981  46.595  33.427  1.00  0.00    -0.271 OA
HETATM    3  N8  UNL     1      30.922  47.703  34.041  1.00  0.00    -0.253 N 
HETATM    4  C10 UNL     1      31.038  48.553  32.912  1.00  0.00     0.334 C 
HETATM    5  O3  UNL     1      30.351  48.494  31.856  1.00  0.00    -0.246 OA
HETATM    6  N9  UNL     1      32.066  49.510  33.139  1.00  0.00    -0.280 N 
HETATM    7  C22 UNL     1      32.419  49.401  34.534  1.00  0.00     0.170 C 
HETATM    8  C23 UNL     1      32.031  47.997  34.902  1.00  0.00     0.205 C 
ENDROOT
BRANCH   6   9
HETATM    9  C11 UNL     1      32.610  50.388  32.180  1.00  0.00     0.161 C 
HETATM   10  N10 UNL     1      31.782  51.324  31.632  1.00  0.00    -0.173 N 
HETATM   11  C12 UNL     1      32.011  52.333  30.777  1.00  0.00     0.682 C 
ATOM     12  H10 UNL     1      30.809  51.241  31.926  1.00  0.00     0.186 HD
HETATM   13  N11 UNL     1      31.054  53.048  30.326  1.00  0.00    -0.224 N 
HETATM   14  N14 UNL     1      33.216  52.745  30.273  1.00  0.00    -0.156 N 
ATOM     15  H11 UNL     1      31.319  53.792  29.681  1.00  0.00     0.177 HD
HETATM   16  C18 UNL     1      34.445  52.254  30.494  1.00  0.00     0.270 C 
ATOM     17  H14 UNL     1      33.172  53.541  29.638  1.00  0.00     0.187 HD
HETATM   18  O4  UNL     1      35.371  52.717  29.809  1.00  0.00    -0.267 OA
HETATM   19  C19 UNL     1      34.800  51.274  31.415  1.00  0.00     0.070 C 
HETATM   20  C21 UNL     1      33.960  50.251  31.844  1.00  0.00     0.124 C 
BRANCH  13  21
HETATM   21  C13 UNL     1      29.664  52.935  30.609  1.00  0.00     0.168 C 
BRANCH  21  22
HETATM   22  C14 UNL     1      29.066  51.660  30.071  1.00  0.00     0.294 C 
BRANCH  22  23
HETATM   23  N12 UNL     1      27.930  51.188  30.801  1.00  0.00     0.117 N 
HETATM   24  C15 UNL     1      28.085  51.257  32.223  1.00  0.00     0.302 C 
HETATM   25  C16 UNL     1      27.330  50.046  32.770  1.00  0.00     0.264 C 
HETATM   26  N13 UNL     1      27.553  49.082  31.714  1.00  0.00    -0.047 N 
HETATM   27  C17 UNL     1      27.609  49.833  30.473  1.00  0.00     0.502 C 
ATOM     28 2H13 UNL     1      28.374  48.497  31.869  1.00  0.00     0.279 HD
ATOM     29 1H13 UNL     1      26.863  48.331  31.701  1.00  0.00     0.279 HD
ENDBRANCH  22  23
ENDBRANCH  21  22
ENDBRANCH  13  21
BRANCH  19  30
HETATM   30  C20 UNL     1      36.169  51.328  31.962  1.00  0.00     0.211 C 
BRANCH  30  31
HETATM   31  O5  UNL     1      36.202  50.770  33.223  1.00  0.00    -0.396 OA
ATOM     32  H5  UNL     1      36.160  51.449  33.886  1.00  0.00     0.209 HD
ENDBRANCH  30  31
ENDBRANCH  19  30
BRANCH  20  33
HETATM   33  O6  UNL     1      34.443  48.994  31.963  1.00  0.00    -0.356 OA
ATOM     34  H6  UNL     1      34.744  48.769  32.836  1.00  0.00     0.218 HD
ENDBRANCH  20  33
ENDBRANCH   6   9
BRANCH   8  35
HETATM   35  C24 UNL     1      33.112  47.008  34.639  1.00  0.00     0.256 C 
HETATM   36  N15 UNL     1      34.010  46.608  35.659  1.00  0.00    -0.060 NA
HETATM   37  O7  UNL     1      33.260  46.495  33.501  1.00  0.00    -0.274 OA
ENDBRANCH   8  35
BRANCH   1  38
HETATM   38  C8  UNL     1      29.948  45.919  35.488  1.00  0.00     0.251 C 
BRANCH  38  39
HETATM   39  N7  UNL     1      30.126  44.512  35.170  1.00  0.00    -0.249 N 
HETATM   40  C5  UNL     1      29.280  43.709  34.489  1.00  0.00     0.149 A 
HETATM   41  N4  UNL     1      28.069  43.909  33.910  1.00  0.00    -0.348 N 
HETATM   42  C6  UNL     1      29.805  42.439  34.399  1.00  0.00     0.092 A 
HETATM   43  C4  UNL     1      27.409  42.920  33.280  1.00  0.00     0.108 A 
ATOM     44  H4  UNL     1      27.646  44.835  33.955  1.00  0.00     0.167 HD
HETATM   45  C3  UNL     1      27.898  41.633  33.166  1.00  0.00     0.025 A 
HETATM   46  C7  UNL     1      29.139  41.399  33.749  1.00  0.00     0.054 A 
HETATM   47  N5  UNL     1      30.997  42.507  35.049  1.00  0.00    -0.280 N 
HETATM   48  N6  UNL     1      31.162  43.740  35.495  1.00  0.00    -0.018 NA
ATOM     49  H5  UNL     1      31.653  41.736  35.173  1.00  0.00     0.184 HD
BRANCH  45  50
HETATM   50  S1  UNL     1      26.964  40.370  32.316  1.00  0.00    -0.066 SA
BRANCH  50  51
HETATM   51  C2  UNL     1      26.211  41.012  30.841  1.00  0.00     0.143 A 
HETATM   52  C1  UNL     1      25.124  40.527  30.157  1.00  0.00     0.157 A 
HETATM   53  N2  UNL     1      24.922  41.338  29.107  1.00  0.00    -0.223 N 
HETATM   54  O1  UNL     1      25.836  42.294  29.122  1.00  0.00    -0.154 OA
ATOM     55  H2  UNL     1      24.183  41.234  28.411  1.00  0.00     0.198 HD
HETATM   56  N3  UNL     1      26.618  42.099  30.169  1.00  0.00    -0.231 N 
ATOM     57  H3  UNL     1      27.410  42.687  30.427  1.00  0.00     0.197 HD
BRANCH  52  58
HETATM   58  N1  UNL     1      24.406  39.495  30.432  1.00  0.00    -0.382 N 
ATOM     59  H12 UNL     1      23.439  39.310  30.166  1.00  0.00     0.157 HD
ATOM     60  H11 UNL     1      24.728  38.695  30.977  1.00  0.00     0.157 HD
ENDBRANCH  52  58
ENDBRANCH  50  51
ENDBRANCH  45  50
ENDBRANCH  38  39
ENDBRANCH   1  38
TORSDOF 13
ENDMDL
