MODEL 1
REMARK VINA RESULT: -8.807786599      0.000      0.000
REMARK  18 active torsions:
REMARK  status: ('A' for Active; 'I' for Inactive)
REMARK    1  A    between atoms: C3_5  and  O2_6 
REMARK    2  A    between atoms: O2_6  and  C4_7 
REMARK    3  A    between atoms: C5_9  and  C6_10 
REMARK    4  A    between atoms: C6_10  and  O4_11 
REMARK    5  A    between atoms: C7_13  and  O5_14 
REMARK    6  A    between atoms: C8_16  and  O6_18 
REMARK    7  A    between atoms: C10_20  and  O7_21 
REMARK    8  A    between atoms: O7_21  and  C11_22 
REMARK    9  A    between atoms: C12_23  and  N2_24 
REMARK   10  A    between atoms: C15_30  and  N4_31 
REMARK   11  A    between atoms: N4_31  and  C16_33 
REMARK   12  A    between atoms: C16_33  and  C17_34 
REMARK   13  A    between atoms: C17_34  and  N5_35 
REMARK   14  A    between atoms: C18_41  and  N7_42 
REMARK   15  A    between atoms: N9_51  and  C25_52 
REMARK   16  A    between atoms: C25_52  and  C26_53 
REMARK   17  A    between atoms: C26_53  and  O9_54 
REMARK   18  A    between atoms: C26_53  and  O10_56 
ROOT
HETATM    1  O7  UNL     1      29.703  47.326  32.558  1.00  0.00    -0.302 OA
ENDROOT
BRANCH   1   2
HETATM    2  C10 UNL     1      30.419  48.434  32.314  1.00  0.00     0.193 A 
HETATM    3  C3  UNL     1      31.467  48.668  33.265  1.00  0.00     0.192 A 
HETATM    4  C2  UNL     1      32.265  49.757  33.122  1.00  0.00     0.289 A 
HETATM    5  N1  UNL     1      32.135  50.654  32.130  1.00  0.00    -0.268 N 
HETATM    6  O1  UNL     1      33.197  49.954  33.974  1.00  0.00    -0.265 OA
HETATM    7  C1  UNL     1      33.022  51.810  32.017  1.00  0.00     0.164 C 
HETATM    8  C27 UNL     1      31.143  50.407  31.260  1.00  0.00     0.333 A 
HETATM    9  N9  UNL     1      30.317  49.346  31.347  1.00  0.00    -0.272 N 
HETATM   10  O11 UNL     1      30.973  51.224  30.300  1.00  0.00    -0.246 OA
BRANCH   3  11
HETATM   11  O2  UNL     1      31.620  47.748  34.311  1.00  0.00    -0.307 OA
BRANCH  11  12
HETATM   12  C4  UNL     1      32.534  46.691  34.099  1.00  0.00     0.303 C 
HETATM   13  O3  UNL     1      33.061  46.674  32.794  1.00  0.00    -0.348 OA
HETATM   14  C5  UNL     1      34.113  45.752  32.938  1.00  0.00     0.180 C 
HETATM   15  C7  UNL     1      34.881  46.456  34.070  1.00  0.00     0.188 C 
HETATM   16  C8  UNL     1      33.702  46.680  35.033  1.00  0.00     0.132 C 
HETATM   17  C9  UNL     1      33.703  45.489  35.956  1.00  0.00     0.054 C 
BRANCH  14  18
HETATM   18  C6  UNL     1      34.979  45.636  31.733  1.00  0.00     0.198 C 
BRANCH  18  19
HETATM   19  O4  UNL     1      34.653  44.493  31.001  1.00  0.00    -0.398 OA
ATOM     20  H4  UNL     1      34.769  44.647  30.071  1.00  0.00     0.209 HD
ENDBRANCH  18  19
ENDBRANCH  14  18
BRANCH  15  21
HETATM   21  O5  UNL     1      35.799  45.599  34.622  1.00  0.00    -0.390 OA
ATOM     22  H5  UNL     1      35.369  44.997  35.218  1.00  0.00     0.210 HD
ENDBRANCH  15  21
BRANCH  16  23
HETATM   23  O6  UNL     1      33.929  47.857  35.702  1.00  0.00    -0.382 OA
ATOM     24  H6  UNL     1      33.709  47.848  36.626  1.00  0.00     0.210 HD
ENDBRANCH  16  23
ENDBRANCH  11  12
ENDBRANCH   3  11
BRANCH   9  25
HETATM   25  C25 UNL     1      29.222  49.191  30.397  1.00  0.00     0.196 C 
BRANCH  25  26
HETATM   26  C26 UNL     1      27.971  49.898  30.880  1.00  0.00     0.272 C 
BRANCH  26  27
HETATM   27  O9  UNL     1      27.745  50.933  29.943  1.00  0.00    -0.370 OA
ATOM     28  H9  UNL     1      26.930  51.339  30.213  1.00  0.00     0.212 HD
ENDBRANCH  26  27
BRANCH  26  29
HETATM   29  O10 UNL     1      26.851  49.065  30.759  1.00  0.00    -0.370 OA
ATOM     30  H10 UNL     1      26.141  49.515  30.315  1.00  0.00     0.212 HD
ENDBRANCH  26  29
ENDBRANCH  25  26
ENDBRANCH   9  25
ENDBRANCH   1   2
BRANCH   1  31
HETATM   31  C11 UNL     1      28.600  46.833  33.071  1.00  0.00     0.162 C 
HETATM   32  C12 UNL     1      28.205  46.034  34.202  1.00  0.00     0.128 C 
BRANCH  32  33
HETATM   33  N2  UNL     1      28.585  44.675  34.365  1.00  0.00    -0.256 N 
HETATM   34  C13 UNL     1      29.594  44.213  35.169  1.00  0.00     0.333 A 
HETATM   35  O8  UNL     1      30.227  44.974  35.933  1.00  0.00    -0.246 OA
HETATM   36  N3  UNL     1      29.798  42.927  35.036  1.00  0.00    -0.302 N 
HETATM   37  C14 UNL     1      28.914  42.485  34.120  1.00  0.00     0.126 A 
ATOM     38  H3  UNL     1      30.493  42.367  35.530  1.00  0.00     0.171 HD
HETATM   39  C15 UNL     1      28.687  41.252  33.585  1.00  0.00     0.147 A 
HETATM   40  C24 UNL     1      28.166  43.600  33.714  1.00  0.00     0.162 A 
HETATM   41  N6  UNL     1      27.747  41.051  32.651  1.00  0.00    -0.174 N 
HETATM   42  C18 UNL     1      27.012  42.120  32.244  1.00  0.00     0.683 A 
ATOM     43  H6  UNL     1      27.587  40.124  32.256  1.00  0.00     0.186 HD
HETATM   44  N8  UNL     1      27.230  43.321  32.766  1.00  0.00    -0.173 N 
ATOM     45  H8  UNL     1      26.653  44.092  32.431  1.00  0.00     0.186 HD
BRANCH  39  46
HETATM   46  N4  UNL     1      29.425  40.251  34.011  1.00  0.00    -0.372 N 
ATOM     47  H4  UNL     1      30.381  40.392  34.340  1.00  0.00     0.161 HD
BRANCH  46  48
HETATM   48  C16 UNL     1      28.806  38.928  33.990  1.00  0.00     0.148 C 
BRANCH  48  49
HETATM   49  C17 UNL     1      28.232  38.665  35.376  1.00  0.00     0.249 C 
BRANCH  49  50
HETATM   50  N5  UNL     1      26.785  38.716  35.359  1.00  0.00    -0.078 N 
ATOM     51  H53 UNL     1      26.443  39.488  34.788  1.00  0.00     0.274 HD
ATOM     52  H52 UNL     1      26.388  37.942  34.827  1.00  0.00     0.274 HD
ATOM     53  H51 UNL     1      26.409  38.753  36.306  1.00  0.00     0.274 HD
ENDBRANCH  49  50
ENDBRANCH  48  49
ENDBRANCH  46  48
ENDBRANCH  39  46
BRANCH  42  54
HETATM   54  N7  UNL     1      26.023  41.866  31.240  1.00  0.00    -0.217 N 
HETATM   55  C19 UNL     1      26.486  41.738  29.879  1.00  0.00     0.141 C 
HETATM   56  C20 UNL     1      25.244  41.560  29.005  1.00  0.00     0.020 C 
HETATM   57  C21 UNL     1      24.487  40.379  29.565  1.00  0.00     0.003 C 
HETATM   58  C22 UNL     1      23.901  40.677  30.921  1.00  0.00     0.020 C 
HETATM   59  C23 UNL     1      24.656  41.744  31.675  1.00  0.00     0.141 C 
ENDBRANCH  42  54
ENDBRANCH  32  33
ENDBRANCH   1  31
TORSDOF 18
ENDMDL
MODEL 2
REMARK VINA RESULT: -8.706908771      4.677      9.706
REMARK  18 active torsions:
REMARK  status: ('A' for Active; 'I' for Inactive)
REMARK    1  A    between atoms: C3_5  and  O2_6 
REMARK    2  A    between atoms: O2_6  and  C4_7 
REMARK    3  A    between atoms: C5_9  and  C6_10 
REMARK    4  A    between atoms: C6_10  and  O4_11 
REMARK    5  A    between atoms: C7_13  and  O5_14 
REMARK    6  A    between atoms: C8_16  and  O6_18 
REMARK    7  A    between atoms: C10_20  and  O7_21 
REMARK    8  A    between atoms: O7_21  and  C11_22 
REMARK    9  A    between atoms: C12_23  and  N2_24 
REMARK   10  A    between atoms: C15_30  and  N4_31 
REMARK   11  A    between atoms: N4_31  and  C16_33 
REMARK   12  A    between atoms: C16_33  and  C17_34 
REMARK   13  A    between atoms: C17_34  and  N5_35 
REMARK   14  A    between atoms: C18_41  and  N7_42 
REMARK   15  A    between atoms: N9_51  and  C25_52 
REMARK   16  A    between atoms: C25_52  and  C26_53 
REMARK   17  A    between atoms: C26_53  and  O9_54 
REMARK   18  A    between atoms: C26_53  and  O10_56 
ROOT
HETATM    1  O7  UNL     1      31.031  49.152  32.797  1.00  0.00    -0.302 OA
ENDROOT
BRANCH   1   2
HETATM    2  C10 UNL     1      29.775  49.615  32.709  1.00  0.00     0.193 A 
HETATM    3  C3  UNL     1      28.858  48.975  33.607  1.00  0.00     0.192 A 
HETATM    4  C2  UNL     1      27.556  49.361  33.616  1.00  0.00     0.289 A 
HETATM    5  N1  UNL     1      27.055  50.321  32.822  1.00  0.00    -0.268 N 
HETATM    6  O1  UNL     1      26.748  48.785  34.422  1.00  0.00    -0.265 OA
HETATM    7  C1  UNL     1      25.646  50.704  32.871  1.00  0.00     0.164 C 
HETATM    8  C27 UNL     1      27.939  50.898  31.992  1.00  0.00     0.333 A 
HETATM    9  N9  UNL     1      29.243  50.560  31.934  1.00  0.00    -0.272 N 
HETATM   10  O11 UNL     1      27.521  51.814  31.215  1.00  0.00    -0.246 OA
BRANCH   3  11
HETATM   11  O2  UNL     1      29.355  47.968  34.444  1.00  0.00    -0.307 OA
BRANCH  11  12
HETATM   12  C4  UNL     1      29.392  46.659  33.912  1.00  0.00     0.303 C 
HETATM   13  O3  UNL     1      30.669  46.072  33.986  1.00  0.00    -0.348 OA
HETATM   14  C5  UNL     1      30.370  44.733  33.680  1.00  0.00     0.180 C 
HETATM   15  C7  UNL     1      29.335  44.469  34.787  1.00  0.00     0.188 C 
HETATM   16  C8  UNL     1      28.441  45.699  34.553  1.00  0.00     0.132 C 
HETATM   17  C9  UNL     1      27.355  45.236  33.616  1.00  0.00     0.054 C 
BRANCH  14  18
HETATM   18  C6  UNL     1      31.527  43.808  33.836  1.00  0.00     0.198 C 
BRANCH  18  19
HETATM   19  O4  UNL     1      31.537  43.244  35.113  1.00  0.00    -0.398 OA
ATOM     20  H4  UNL     1      30.813  43.577  35.631  1.00  0.00     0.209 HD
ENDBRANCH  18  19
ENDBRANCH  14  18
BRANCH  15  21
HETATM   21  O5  UNL     1      28.645  43.313  34.524  1.00  0.00    -0.390 OA
ATOM     22  H5  UNL     1      27.709  43.473  34.562  1.00  0.00     0.210 HD
ENDBRANCH  15  21
BRANCH  16  23
HETATM   23  O6  UNL     1      27.944  46.090  35.772  1.00  0.00    -0.382 OA
ATOM     24  H6  UNL     1      27.062  46.443  35.757  1.00  0.00     0.210 HD
ENDBRANCH  16  23
ENDBRANCH  11  12
ENDBRANCH   3  11
BRANCH   9  25
HETATM   25  C25 UNL     1      30.120  51.191  30.954  1.00  0.00     0.196 C 
BRANCH  25  26
HETATM   26  C26 UNL     1      30.383  50.271  29.778  1.00  0.00     0.272 C 
BRANCH  26  27
HETATM   27  O9  UNL     1      31.754  49.939  29.867  1.00  0.00    -0.370 OA
ATOM     28  H9  UNL     1      32.217  50.717  29.578  1.00  0.00     0.212 HD
ENDBRANCH  26  27
BRANCH  26  29
HETATM   29  O10 UNL     1      29.715  49.050  29.942  1.00  0.00    -0.370 OA
ATOM     30  H10 UNL     1      29.541  48.644  29.100  1.00  0.00     0.212 HD
ENDBRANCH  26  29
ENDBRANCH  25  26
ENDBRANCH   9  25
ENDBRANCH   1   2
BRANCH   1  31
HETATM   31  C11 UNL     1      32.154  49.172  33.475  1.00  0.00     0.162 C 
HETATM   32  C12 UNL     1      33.127  50.138  33.912  1.00  0.00     0.128 C 
BRANCH  32  33
HETATM   33  N2  UNL     1      33.953  50.870  33.018  1.00  0.00    -0.256 N 
HETATM   34  C13 UNL     1      33.646  52.077  32.446  1.00  0.00     0.333 A 
HETATM   35  O8  UNL     1      32.611  52.707  32.754  1.00  0.00    -0.246 OA
HETATM   36  N3  UNL     1      34.541  52.465  31.572  1.00  0.00    -0.302 N 
HETATM   37  C14 UNL     1      35.489  51.508  31.535  1.00  0.00     0.126 A 
ATOM     38  H3  UNL     1      34.524  53.325  31.026  1.00  0.00     0.171 HD
HETATM   39  C15 UNL     1      36.632  51.377  30.804  1.00  0.00     0.147 A 
HETATM   40  C24 UNL     1      35.097  50.519  32.450  1.00  0.00     0.162 A 
HETATM   41  N6  UNL     1      37.426  50.304  30.922  1.00  0.00    -0.174 N 
HETATM   42  C18 UNL     1      37.062  49.335  31.803  1.00  0.00     0.683 A 
ATOM     43  H6  UNL     1      38.279  50.217  30.368  1.00  0.00     0.186 HD
HETATM   44  N8  UNL     1      35.951  49.461  32.518  1.00  0.00    -0.173 N 
ATOM     45  H8  UNL     1      35.719  48.709  33.167  1.00  0.00     0.186 HD
BRANCH  39  46
HETATM   46  N4  UNL     1      36.939  52.342  29.965  1.00  0.00    -0.372 N 
ATOM     47  H4  UNL     1      36.242  52.758  29.347  1.00  0.00     0.161 HD
BRANCH  46  48
HETATM   48  C16 UNL     1      38.331  52.788  29.965  1.00  0.00     0.148 C 
BRANCH  48  49
HETATM   49  C17 UNL     1      38.377  54.156  30.631  1.00  0.00     0.249 C 
BRANCH  49  50
HETATM   50  N5  UNL     1      37.079  54.796  30.601  1.00  0.00    -0.078 N 
ATOM     51  H53 UNL     1      36.407  54.256  30.056  1.00  0.00     0.274 HD
ATOM     52  H52 UNL     1      36.616  54.749  31.509  1.00  0.00     0.274 HD
ATOM     53  H51 UNL     1      37.151  55.756  30.265  1.00  0.00     0.274 HD
ENDBRANCH  49  50
ENDBRANCH  48  49
ENDBRANCH  46  48
ENDBRANCH  39  46
BRANCH  42  54
HETATM   54  N7  UNL     1      37.932  48.201  31.896  1.00  0.00    -0.217 N 
HETATM   55  C19 UNL     1      37.341  46.901  31.685  1.00  0.00     0.141 C 
HETATM   56  C20 UNL     1      38.446  45.870  31.922  1.00  0.00     0.020 C 
HETATM   57  C21 UNL     1      39.586  46.241  31.002  1.00  0.00     0.003 C 
HETATM   58  C22 UNL     1      40.243  47.534  31.410  1.00  0.00     0.020 C 
HETATM   59  C23 UNL     1      39.321  48.455  32.173  1.00  0.00     0.141 C 
ENDBRANCH  42  54
ENDBRANCH  32  33
ENDBRANCH   1  31
TORSDOF 18
ENDMDL
MODEL 3
REMARK VINA RESULT: -8.446500823      2.206      3.906
REMARK  18 active torsions:
REMARK  status: ('A' for Active; 'I' for Inactive)
REMARK    1  A    between atoms: C3_5  and  O2_6 
REMARK    2  A    between atoms: O2_6  and  C4_7 
REMARK    3  A    between atoms: C5_9  and  C6_10 
REMARK    4  A    between atoms: C6_10  and  O4_11 
REMARK    5  A    between atoms: C7_13  and  O5_14 
REMARK    6  A    between atoms: C8_16  and  O6_18 
REMARK    7  A    between atoms: C10_20  and  O7_21 
REMARK    8  A    between atoms: O7_21  and  C11_22 
REMARK    9  A    between atoms: C12_23  and  N2_24 
REMARK   10  A    between atoms: C15_30  and  N4_31 
REMARK   11  A    between atoms: N4_31  and  C16_33 
REMARK   12  A    between atoms: C16_33  and  C17_34 
REMARK   13  A    between atoms: C17_34  and  N5_35 
REMARK   14  A    between atoms: C18_41  and  N7_42 
REMARK   15  A    between atoms: N9_51  and  C25_52 
REMARK   16  A    between atoms: C25_52  and  C26_53 
REMARK   17  A    between atoms: C26_53  and  O9_54 
REMARK   18  A    between atoms: C26_53  and  O10_56 
ROOT
HETATM    1  O7  UNL     1      29.709  45.917  33.078  1.00  0.00    -0.302 OA
ENDROOT
BRANCH   1   2
HETATM    2  C10 UNL     1      28.877  46.935  33.346  1.00  0.00     0.193 A 
HETATM    3  C3  UNL     1      29.160  48.126  32.599  1.00  0.00     0.192 A 
HETATM    4  C2  UNL     1      28.384  49.225  32.779  1.00  0.00     0.289 A 
HETATM    5  N1  UNL     1      27.346  49.276  33.630  1.00  0.00    -0.268 N 
HETATM    6  O1  UNL     1      28.644  50.281  32.106  1.00  0.00    -0.265 OA
HETATM    7  C1  UNL     1      26.537  50.484  33.787  1.00  0.00     0.164 C 
HETATM    8  C27 UNL     1      27.111  48.146  34.316  1.00  0.00     0.333 A 
HETATM    9  N9  UNL     1      27.845  47.023  34.183  1.00  0.00    -0.272 N 
HETATM   10  O11 UNL     1      26.140  48.137  35.138  1.00  0.00    -0.246 OA
BRANCH   3  11
HETATM   11  O2  UNL     1      30.240  48.099  31.706  1.00  0.00    -0.307 OA
BRANCH  11  12
HETATM   12  C4  UNL     1      31.416  48.771  32.109  1.00  0.00     0.303 C 
HETATM   13  O3  UNL     1      32.507  47.902  32.300  1.00  0.00    -0.348 OA
HETATM   14  C5  UNL     1      33.569  48.817  32.400  1.00  0.00     0.180 C 
HETATM   15  C7  UNL     1      33.382  49.535  31.052  1.00  0.00     0.188 C 
HETATM   16  C8  UNL     1      31.878  49.838  31.169  1.00  0.00     0.132 C 
HETATM   17  C9  UNL     1      31.790  51.220  31.762  1.00  0.00     0.054 C 
BRANCH  14  18
HETATM   18  C6  UNL     1      34.912  48.177  32.451  1.00  0.00     0.198 C 
BRANCH  18  19
HETATM   19  O4  UNL     1      35.905  49.133  32.670  1.00  0.00    -0.398 OA
ATOM     20  H4  UNL     1      36.273  49.427  31.845  1.00  0.00     0.209 HD
ENDBRANCH  18  19
ENDBRANCH  14  18
BRANCH  15  21
HETATM   21  O5  UNL     1      34.109  50.698  31.030  1.00  0.00    -0.390 OA
ATOM     22  H5  UNL     1      33.683  51.340  30.473  1.00  0.00     0.210 HD
ENDBRANCH  15  21
BRANCH  16  23
HETATM   23  O6  UNL     1      31.342  49.779  29.905  1.00  0.00    -0.382 OA
ATOM     24  H6  UNL     1      30.669  50.423  29.719  1.00  0.00     0.210 HD
ENDBRANCH  16  23
ENDBRANCH  11  12
ENDBRANCH   3  11
BRANCH   9  25
HETATM   25  C25 UNL     1      27.560  45.861  35.018  1.00  0.00     0.196 C 
BRANCH  25  26
HETATM   26  C26 UNL     1      26.635  44.890  34.311  1.00  0.00     0.272 C 
BRANCH  26  27
HETATM   27  O9  UNL     1      25.331  45.380  34.553  1.00  0.00    -0.370 OA
ATOM     28  H9  UNL     1      24.758  44.631  34.434  1.00  0.00     0.212 HD
ENDBRANCH  26  27
BRANCH  26  29
HETATM   29  O10 UNL     1      26.790  44.976  32.921  1.00  0.00    -0.370 OA
ATOM     30  H10 UNL     1      26.564  44.152  32.505  1.00  0.00     0.212 HD
ENDBRANCH  26  29
ENDBRANCH  25  26
ENDBRANCH   9  25
ENDBRANCH   1   2
BRANCH   1  31
HETATM   31  C11 UNL     1      30.651  45.129  33.541  1.00  0.00     0.162 C 
HETATM   32  C12 UNL     1      30.967  43.725  33.550  1.00  0.00     0.128 C 
BRANCH  32  33
HETATM   33  N2  UNL     1      30.179  42.754  34.224  1.00  0.00    -0.256 N 
HETATM   34  C13 UNL     1      30.507  42.127  35.398  1.00  0.00     0.333 A 
HETATM   35  O8  UNL     1      31.526  42.443  36.050  1.00  0.00    -0.246 OA
HETATM   36  N3  UNL     1      29.650  41.194  35.730  1.00  0.00    -0.302 N 
HETATM   37  C14 UNL     1      28.707  41.172  34.767  1.00  0.00     0.126 A 
ATOM     38  H3  UNL     1      29.688  40.600  36.557  1.00  0.00     0.171 HD
HETATM   39  C15 UNL     1      27.598  40.400  34.587  1.00  0.00     0.147 A 
HETATM   40  C24 UNL     1      29.062  42.159  33.834  1.00  0.00     0.162 A 
HETATM   41  N6  UNL     1      26.803  40.546  33.518  1.00  0.00    -0.174 N 
HETATM   42  C18 UNL     1      27.131  41.497  32.604  1.00  0.00     0.683 A 
ATOM     43  H6  UNL     1      25.976  39.962  33.394  1.00  0.00     0.186 HD
HETATM   44  N8  UNL     1      28.210  42.251  32.777  1.00  0.00    -0.173 N 
ATOM     45  H8  UNL     1      28.415  42.952  32.066  1.00  0.00     0.186 HD
BRANCH  39  46
HETATM   46  N4  UNL     1      27.325  39.495  35.501  1.00  0.00    -0.372 N 
ATOM     47  H4  UNL     1      26.920  39.747  36.403  1.00  0.00     0.161 HD
BRANCH  46  48
HETATM   48  C16 UNL     1      27.630  38.108  35.157  1.00  0.00     0.148 C 
BRANCH  48  49
HETATM   49  C17 UNL     1      28.582  37.568  36.215  1.00  0.00     0.249 C 
BRANCH  49  50
HETATM   50  N5  UNL     1      28.160  37.959  37.544  1.00  0.00    -0.078 N 
ATOM     51  H53 UNL     1      28.257  38.963  37.689  1.00  0.00     0.274 HD
ATOM     52  H52 UNL     1      27.149  37.883  37.654  1.00  0.00     0.274 HD
ATOM     53  H51 UNL     1      28.657  37.426  38.258  1.00  0.00     0.274 HD
ENDBRANCH  49  50
ENDBRANCH  48  49
ENDBRANCH  46  48
ENDBRANCH  39  46
BRANCH  42  54
HETATM   54  N7  UNL     1      26.262  41.617  31.472  1.00  0.00    -0.217 N 
HETATM   55  C19 UNL     1      26.872  41.562  30.165  1.00  0.00     0.141 C 
HETATM   56  C20 UNL     1      25.757  41.799  29.146  1.00  0.00     0.020 C 
HETATM   57  C21 UNL     1      24.690  40.766  29.427  1.00  0.00     0.003 C 
HETATM   58  C22 UNL     1      23.997  41.014  30.743  1.00  0.00     0.020 C 
HETATM   59  C23 UNL     1      24.854  41.764  31.733  1.00  0.00     0.141 C 
ENDBRANCH  42  54
ENDBRANCH  32  33
ENDBRANCH   1  31
TORSDOF 18
ENDMDL
MODEL 4
REMARK VINA RESULT: -8.430349976      1.874      3.345
REMARK  18 active torsions:
REMARK  status: ('A' for Active; 'I' for Inactive)
REMARK    1  A    between atoms: C3_5  and  O2_6 
REMARK    2  A    between atoms: O2_6  and  C4_7 
REMARK    3  A    between atoms: C5_9  and  C6_10 
REMARK    4  A    between atoms: C6_10  and  O4_11 
REMARK    5  A    between atoms: C7_13  and  O5_14 
REMARK    6  A    between atoms: C8_16  and  O6_18 
REMARK    7  A    between atoms: C10_20  and  O7_21 
REMARK    8  A    between atoms: O7_21  and  C11_22 
REMARK    9  A    between atoms: C12_23  and  N2_24 
REMARK   10  A    between atoms: C15_30  and  N4_31 
REMARK   11  A    between atoms: N4_31  and  C16_33 
REMARK   12  A    between atoms: C16_33  and  C17_34 
REMARK   13  A    between atoms: C17_34  and  N5_35 
REMARK   14  A    between atoms: C18_41  and  N7_42 
REMARK   15  A    between atoms: N9_51  and  C25_52 
REMARK   16  A    between atoms: C25_52  and  C26_53 
REMARK   17  A    between atoms: C26_53  and  O9_54 
REMARK   18  A    between atoms: C26_53  and  O10_56 
ROOT
HETATM    1  O7  UNL     1      29.863  48.016  34.034  1.00  0.00    -0.302 OA
ENDROOT
BRANCH   1   2
HETATM    2  C10 UNL     1      30.300  49.132  33.432  1.00  0.00     0.193 A 
HETATM    3  C3  UNL     1      31.692  49.400  33.651  1.00  0.00     0.192 A 
HETATM    4  C2  UNL     1      32.254  50.501  33.089  1.00  0.00     0.289 A 
HETATM    5  N1  UNL     1      31.581  51.378  32.327  1.00  0.00    -0.268 N 
HETATM    6  O1  UNL     1      33.496  50.729  33.290  1.00  0.00    -0.265 OA
HETATM    7  C1  UNL     1      32.232  52.548  31.740  1.00  0.00     0.164 C 
HETATM    8  C27 UNL     1      30.280  51.099  32.144  1.00  0.00     0.333 A 
HETATM    9  N9  UNL     1      29.663  50.024  32.675  1.00  0.00    -0.272 N 
HETATM   10  O11 UNL     1      29.592  51.896  31.430  1.00  0.00    -0.246 OA
BRANCH   3  11
HETATM   11  O2  UNL     1      32.416  48.502  34.446  1.00  0.00    -0.307 OA
BRANCH  11  12
HETATM   12  C4  UNL     1      32.816  47.292  33.835  1.00  0.00     0.303 C 
HETATM   13  O3  UNL     1      33.832  47.470  32.878  1.00  0.00    -0.348 OA
HETATM   14  C5  UNL     1      34.232  46.141  32.654  1.00  0.00     0.180 C 
HETATM   15  C7  UNL     1      34.594  45.764  34.101  1.00  0.00     0.188 C 
HETATM   16  C8  UNL     1      33.303  46.245  34.786  1.00  0.00     0.132 C 
HETATM   17  C9  UNL     1      32.402  45.039  34.841  1.00  0.00     0.054 C 
BRANCH  14  18
HETATM   18  C6  UNL     1      35.430  46.012  31.781  1.00  0.00     0.198 C 
BRANCH  18  19
HETATM   19  O4  UNL     1      35.367  44.838  31.029  1.00  0.00    -0.398 OA
ATOM     20  H4  UNL     1      36.148  44.313  31.163  1.00  0.00     0.209 HD
ENDBRANCH  18  19
ENDBRANCH  14  18
BRANCH  15  21
HETATM   21  O5  UNL     1      34.723  44.403  34.217  1.00  0.00    -0.390 OA
ATOM     22  H5  UNL     1      35.594  44.132  33.951  1.00  0.00     0.210 HD
ENDBRANCH  15  21
BRANCH  16  23
HETATM   23  O6  UNL     1      33.641  46.700  36.037  1.00  0.00    -0.382 OA
ATOM     24  H6  UNL     1      34.526  47.036  36.121  1.00  0.00     0.210 HD
ENDBRANCH  16  23
ENDBRANCH  11  12
ENDBRANCH   3  11
BRANCH   9  25
HETATM   25  C25 UNL     1      28.230  49.834  32.481  1.00  0.00     0.196 C 
BRANCH  25  26
HETATM   26  C26 UNL     1      27.953  48.776  31.431  1.00  0.00     0.272 C 
BRANCH  26  27
HETATM   27  O9  UNL     1      27.594  47.618  32.159  1.00  0.00    -0.370 OA
ATOM     28  H9  UNL     1      26.644  47.599  32.141  1.00  0.00     0.212 HD
ENDBRANCH  26  27
BRANCH  26  29
HETATM   29  O10 UNL     1      26.808  49.096  30.691  1.00  0.00    -0.370 OA
ATOM     30  H10 UNL     1      26.845  48.707  29.825  1.00  0.00     0.212 HD
ENDBRANCH  26  29
ENDBRANCH  25  26
ENDBRANCH   9  25
ENDBRANCH   1   2
BRANCH   1  31
HETATM   31  C11 UNL     1      29.183  47.514  35.038  1.00  0.00     0.162 C 
HETATM   32  C12 UNL     1      28.732  46.225  35.492  1.00  0.00     0.128 C 
BRANCH  32  33
HETATM   33  N2  UNL     1      27.776  45.444  34.790  1.00  0.00    -0.256 N 
HETATM   34  C13 UNL     1      26.416  45.614  34.825  1.00  0.00     0.333 A 
HETATM   35  O8  UNL     1      25.889  46.574  35.429  1.00  0.00    -0.246 OA
HETATM   36  N3  UNL     1      25.772  44.679  34.173  1.00  0.00    -0.302 N 
HETATM   37  C14 UNL     1      26.703  43.842  33.673  1.00  0.00     0.126 A 
ATOM     38  H3  UNL     1      24.762  44.600  34.063  1.00  0.00     0.171 HD
HETATM   39  C15 UNL     1      26.607  42.700  32.935  1.00  0.00     0.147 A 
HETATM   40  C24 UNL     1      27.950  44.343  34.075  1.00  0.00     0.162 A 
HETATM   41  N6  UNL     1      27.692  42.007  32.564  1.00  0.00    -0.174 N 
HETATM   42  C18 UNL     1      28.910  42.477  32.944  1.00  0.00     0.683 A 
ATOM     43  H6  UNL     1      27.608  41.153  32.012  1.00  0.00     0.186 HD
HETATM   44  N8  UNL     1      29.006  43.590  33.661  1.00  0.00    -0.173 N 
ATOM     45  H8  UNL     1      29.940  43.904  33.921  1.00  0.00     0.186 HD
BRANCH  39  46
HETATM   46  N4  UNL     1      25.406  42.287  32.594  1.00  0.00    -0.372 N 
ATOM     47  H4  UNL     1      24.572  42.583  33.103  1.00  0.00     0.161 HD
BRANCH  46  48
HETATM   48  C16 UNL     1      25.327  41.383  31.449  1.00  0.00     0.148 C 
BRANCH  48  49
HETATM   49  C17 UNL     1      23.856  41.216  31.093  1.00  0.00     0.249 C 
BRANCH  49  50
HETATM   50  N5  UNL     1      23.567  39.853  30.700  1.00  0.00    -0.078 N 
ATOM     51  H53 UNL     1      24.355  39.233  30.886  1.00  0.00     0.274 HD
ATOM     52  H52 UNL     1      22.881  39.421  31.320  1.00  0.00     0.274 HD
ATOM     53  H51 UNL     1      23.274  39.806  29.725  1.00  0.00     0.274 HD
ENDBRANCH  49  50
ENDBRANCH  48  49
ENDBRANCH  46  48
ENDBRANCH  39  46
BRANCH  42  54
HETATM   54  N7  UNL     1      30.045  41.706  32.534  1.00  0.00    -0.217 N 
HETATM   55  C19 UNL     1      29.903  40.915  31.334  1.00  0.00     0.141 C 
HETATM   56  C20 UNL     1      31.205  40.131  31.166  1.00  0.00     0.020 C 
HETATM   57  C21 UNL     1      32.324  41.146  31.166  1.00  0.00     0.003 C 
HETATM   58  C22 UNL     1      32.497  41.794  32.516  1.00  0.00     0.020 C 
HETATM   59  C23 UNL     1      31.233  41.797  33.341  1.00  0.00     0.141 C 
ENDBRANCH  42  54
ENDBRANCH  32  33
ENDBRANCH   1  31
TORSDOF 18
ENDMDL
MODEL 5
REMARK VINA RESULT: -8.412503893      2.675      5.233
REMARK  18 active torsions:
REMARK  status: ('A' for Active; 'I' for Inactive)
REMARK    1  A    between atoms: C3_5  and  O2_6 
REMARK    2  A    between atoms: O2_6  and  C4_7 
REMARK    3  A    between atoms: C5_9  and  C6_10 
REMARK    4  A    between atoms: C6_10  and  O4_11 
REMARK    5  A    between atoms: C7_13  and  O5_14 
REMARK    6  A    between atoms: C8_16  and  O6_18 
REMARK    7  A    between atoms: C10_20  and  O7_21 
REMARK    8  A    between atoms: O7_21  and  C11_22 
REMARK    9  A    between atoms: C12_23  and  N2_24 
REMARK   10  A    between atoms: C15_30  and  N4_31 
REMARK   11  A    between atoms: N4_31  and  C16_33 
REMARK   12  A    between atoms: C16_33  and  C17_34 
REMARK   13  A    between atoms: C17_34  and  N5_35 
REMARK   14  A    between atoms: C18_41  and  N7_42 
REMARK   15  A    between atoms: N9_51  and  C25_52 
REMARK   16  A    between atoms: C25_52  and  C26_53 
REMARK   17  A    between atoms: C26_53  and  O9_54 
REMARK   18  A    between atoms: C26_53  and  O10_56 
ROOT
HETATM    1  O7  UNL     1      33.358  49.048  33.037  1.00  0.00    -0.302 OA
ENDROOT
BRANCH   1   2
HETATM    2  C10 UNL     1      33.938  49.902  32.181  1.00  0.00     0.193 A 
HETATM    3  C3  UNL     1      35.359  49.737  32.073  1.00  0.00     0.192 A 
HETATM    4  C2  UNL     1      36.061  50.540  31.232  1.00  0.00     0.289 A 
HETATM    5  N1  UNL     1      35.504  51.503  30.479  1.00  0.00    -0.268 N 
HETATM    6  O1  UNL     1      37.326  50.383  31.143  1.00  0.00    -0.265 OA
HETATM    7  C1  UNL     1      36.302  52.340  29.586  1.00  0.00     0.164 C 
HETATM    8  C27 UNL     1      34.173  51.632  30.606  1.00  0.00     0.333 A 
HETATM    9  N9  UNL     1      33.421  50.868  31.423  1.00  0.00    -0.272 N 
HETATM   10  O11 UNL     1      33.591  52.529  29.917  1.00  0.00    -0.246 OA
BRANCH   3  11
HETATM   11  O2  UNL     1      35.965  48.741  32.851  1.00  0.00    -0.307 OA
BRANCH  11  12
HETATM   12  C4  UNL     1      36.116  47.470  32.252  1.00  0.00     0.303 C 
HETATM   13  O3  UNL     1      37.440  47.205  31.855  1.00  0.00    -0.348 OA
HETATM   14  C5  UNL     1      37.370  45.828  31.578  1.00  0.00     0.180 C 
HETATM   15  C7  UNL     1      36.865  45.344  32.948  1.00  0.00     0.188 C 
HETATM   16  C8  UNL     1      35.688  46.322  33.109  1.00  0.00     0.132 C 
HETATM   17  C9  UNL     1      34.485  45.599  32.562  1.00  0.00     0.054 C 
BRANCH  14  18
HETATM   18  C6  UNL     1      38.689  45.208  31.276  1.00  0.00     0.198 C 
BRANCH  18  19
HETATM   19  O4  UNL     1      39.299  44.753  32.446  1.00  0.00    -0.398 OA
ATOM     20  H4  UNL     1      39.977  44.118  32.245  1.00  0.00     0.209 HD
ENDBRANCH  18  19
ENDBRANCH  14  18
BRANCH  15  21
HETATM   21  O5  UNL     1      36.411  44.053  32.856  1.00  0.00    -0.390 OA
ATOM     22  H5  UNL     1      35.862  43.844  33.603  1.00  0.00     0.210 HD
ENDBRANCH  15  21
BRANCH  16  23
HETATM   23  O6  UNL     1      35.562  46.604  34.447  1.00  0.00    -0.382 OA
ATOM     24  H6  UNL     1      34.857  46.149  34.893  1.00  0.00     0.210 HD
ENDBRANCH  16  23
ENDBRANCH  11  12
ENDBRANCH   3  11
BRANCH   9  25
HETATM   25  C25 UNL     1      31.990  51.122  31.550  1.00  0.00     0.196 C 
BRANCH  25  26
HETATM   26  C26 UNL     1      31.186  50.190  30.666  1.00  0.00     0.272 C 
BRANCH  26  27
HETATM   27  O9  UNL     1      32.015  49.930  29.550  1.00  0.00    -0.370 OA
ATOM     28  H9  UNL     1      31.672  50.478  28.853  1.00  0.00     0.212 HD
ENDBRANCH  26  27
BRANCH  26  29
HETATM   29  O10 UNL     1      31.021  48.941  31.279  1.00  0.00    -0.370 OA
ATOM     30  H10 UNL     1      30.800  49.042  32.198  1.00  0.00     0.212 HD
ENDBRANCH  26  29
ENDBRANCH  25  26
ENDBRANCH   9  25
ENDBRANCH   1   2
BRANCH   1  31
HETATM   31  C11 UNL     1      32.848  48.886  34.236  1.00  0.00     0.162 C 
HETATM   32  C12 UNL     1      32.498  47.802  35.116  1.00  0.00     0.128 C 
BRANCH  32  33
HETATM   33  N2  UNL     1      31.463  46.872  34.831  1.00  0.00    -0.256 N 
HETATM   34  C13 UNL     1      31.542  45.512  34.979  1.00  0.00     0.333 A 
HETATM   35  O8  UNL     1      32.541  44.963  35.494  1.00  0.00    -0.246 OA
HETATM   36  N3  UNL     1      30.480  44.892  34.531  1.00  0.00    -0.302 N 
HETATM   37  C14 UNL     1      29.645  45.840  34.060  1.00  0.00     0.126 A 
ATOM     38  H3  UNL     1      30.315  43.885  34.537  1.00  0.00     0.171 HD
HETATM   39  C15 UNL     1      28.418  45.770  33.470  1.00  0.00     0.147 A 
HETATM   40  C24 UNL     1      30.286  47.072  34.259  1.00  0.00     0.162 A 
HETATM   41  N6  UNL     1      27.773  46.869  33.053  1.00  0.00    -0.174 N 
HETATM   42  C18 UNL     1      28.378  48.072  33.236  1.00  0.00     0.683 A 
ATOM     43  H6  UNL     1      26.856  46.804  32.612  1.00  0.00     0.186 HD
HETATM   44  N8  UNL     1      29.572  48.142  33.813  1.00  0.00    -0.173 N 
ATOM     45  H8  UNL     1      29.985  49.067  33.931  1.00  0.00     0.186 HD
BRANCH  39  46
HETATM   46  N4  UNL     1      27.877  44.582  33.315  1.00  0.00    -0.372 N 
ATOM     47  H4  UNL     1      28.410  43.793  32.948  1.00  0.00     0.161 HD
BRANCH  46  48
HETATM   48  C16 UNL     1      26.472  44.450  33.695  1.00  0.00     0.148 C 
BRANCH  48  49
HETATM   49  C17 UNL     1      26.010  43.060  33.282  1.00  0.00     0.249 C 
BRANCH  49  50
HETATM   50  N5  UNL     1      26.793  42.559  32.171  1.00  0.00    -0.078 N 
ATOM     51  H53 UNL     1      27.599  43.154  31.981  1.00  0.00     0.274 HD
ATOM     52  H52 UNL     1      27.288  41.701  32.417  1.00  0.00     0.274 HD
ATOM     53  H51 UNL     1      26.214  42.434  31.341  1.00  0.00     0.274 HD
ENDBRANCH  49  50
ENDBRANCH  48  49
ENDBRANCH  46  48
ENDBRANCH  39  46
BRANCH  42  54
HETATM   54  N7  UNL     1      27.661  49.221  32.772  1.00  0.00    -0.217 N 
HETATM   55  C19 UNL     1      27.072  50.077  33.774  1.00  0.00     0.141 C 
HETATM   56  C20 UNL     1      26.301  51.166  33.027  1.00  0.00     0.020 C 
HETATM   57  C21 UNL     1      27.283  51.822  32.085  1.00  0.00     0.003 C 
HETATM   58  C22 UNL     1      27.707  50.893  30.976  1.00  0.00     0.020 C 
HETATM   59  C23 UNL     1      27.603  49.434  31.349  1.00  0.00     0.141 C 
ENDBRANCH  42  54
ENDBRANCH  32  33
ENDBRANCH   1  31
TORSDOF 18
ENDMDL
