MODEL 1
REMARK VINA RESULT: -10.335975015      0.000      0.000
REMARK  14 active torsions:
REMARK  status: ('A' for Active; 'I' for Inactive)
REMARK    1  A    between atoms: C3_4  and  N2_5 
REMARK    2  A    between atoms: N3_7  and  N4_9 
REMARK    3  A    between atoms: C6_16  and  C7_17 
REMARK    4  A    between atoms: C7_17  and  N7_18 
REMARK    5  A    between atoms: N7_18  and  C8_21 
REMARK    6  A    between atoms: C8_21  and  C9_22 
REMARK    7  A    between atoms: C9_22  and  C10_23 
REMARK    8  A    between atoms: C10_23  and  N8_24 
REMARK    9  A    between atoms: C12_26  and  C13_27 
REMARK       I    between atoms: C13_27  and  N9_29 
REMARK   10  A    between atoms: N10_32  and  O2_33 
REMARK   11  A    between atoms: O2_33  and  S1_34 
REMARK   12  A    between atoms: S1_34  and  N11_36 
REMARK   13  A    between atoms: S1_34  and  N12_40 
REMARK   14  A    between atoms: N11_36  and  O4_38 
REMARK       I    between atoms: N12_40  and  C16_42 
ROOT
HETATM    1  C8  UNL     1      32.600  45.273  36.340  1.00  0.00     0.234 C 
ENDROOT
BRANCH   1   2
HETATM    2  N7  UNL     1      31.444  44.395  36.142  1.00  0.00    -0.069 N 
ATOM      3  H72 UNL     1      31.056  44.052  37.021  1.00  0.00     0.277 HD
ATOM      4  H71 UNL     1      31.700  43.492  35.742  1.00  0.00     0.277 HD
BRANCH   2   5
HETATM    5  C7  UNL     1      30.455  45.110  35.330  1.00  0.00     0.308 C 
BRANCH   5   6
HETATM    6  C6  UNL     1      29.595  44.138  34.595  1.00  0.00     0.109 A 
HETATM    7  N6  UNL     1      29.928  42.923  34.170  1.00  0.00    -0.329 N 
HETATM    8  C5  UNL     1      28.821  42.312  33.630  1.00  0.00     0.137 A 
ATOM      9  H6  UNL     1      30.857  42.509  34.235  1.00  0.00     0.168 HD
HETATM   10  N5  UNL     1      28.602  41.023  33.071  1.00  0.00    -0.356 N 
HETATM   11  C18 UNL     1      27.779  43.204  33.735  1.00  0.00     0.148 A 
HETATM   12  C4  UNL     1      27.279  40.459  33.078  1.00  0.00     0.277 C 
ATOM     13  H5  UNL     1      29.379  40.501  32.666  1.00  0.00     0.162 HD
HETATM   14  N4  UNL     1      26.261  41.470  32.695  1.00  0.00    -0.223 N 
HETATM   15  C19 UNL     1      26.480  42.780  33.258  1.00  0.00     0.295 C 
HETATM   16  O6  UNL     1      25.493  43.567  33.328  1.00  0.00    -0.264 OA
HETATM   17  N17 UNL     1      28.274  44.304  34.320  1.00  0.00    -0.337 N 
ATOM     18  H17 UNL     1      27.736  45.145  34.529  1.00  0.00     0.167 HD
BRANCH  14  19
HETATM   19  N3  UNL     1      25.212  41.155  31.927  1.00  0.00    -0.236 N 
HETATM   20  N2  UNL     1      24.064  41.188  31.635  1.00  0.00    -0.283 N 
ATOM     21  H2  UNL     1      23.376  41.707  32.180  1.00  0.00     0.188 HD
ATOM     22  H3  UNL     1      25.622  40.569  31.200  1.00  0.00     0.208 HD
BRANCH  20  23
HETATM   23  C3  UNL     1      23.704  40.428  30.429  1.00  0.00     0.080 A 
HETATM   24  C2  UNL     1      24.615  40.326  29.406  1.00  0.00     0.127 A 
HETATM   25  N1  UNL     1      24.361  39.649  28.255  1.00  0.00    -0.312 N 
HETATM   26  C1  UNL     1      25.343  39.571  27.191  1.00  0.00     0.160 C 
HETATM   27  C21 UNL     1      23.160  39.074  28.158  1.00  0.00     0.325 A 
HETATM   28  N18 UNL     1      22.245  39.164  29.160  1.00  0.00    -0.316 N 
HETATM   29  O7  UNL     1      22.883  38.433  27.103  1.00  0.00    -0.247 OA
HETATM   30  C20 UNL     1      22.479  39.824  30.296  1.00  0.00     0.125 A 
ATOM     31  H18 UNL     1      21.341  38.706  29.039  1.00  0.00     0.170 HD
ENDBRANCH  20  23
ENDBRANCH  14  19
ENDBRANCH   5   6
ENDBRANCH   2   5
ENDBRANCH   1   2
BRANCH   1  32
HETATM   32  C9  UNL     1      32.756  46.221  35.234  1.00  0.00     0.049 C 
BRANCH  32  33
HETATM   33  C10 UNL     1      33.882  46.079  34.278  1.00  0.00     0.151 C 
BRANCH  33  34
HETATM   34  N8  UNL     1      34.234  47.362  33.706  1.00  0.00    -0.287 N 
HETATM   35  C11 UNL     1      33.411  48.425  33.913  1.00  0.00     0.148 A 
HETATM   36  C12 UNL     1      33.988  49.503  33.255  1.00  0.00     0.135 A 
HETATM   37  N15 UNL     1      35.097  49.031  32.706  1.00  0.00    -0.280 N 
HETATM   38  N16 UNL     1      35.237  47.718  32.990  1.00  0.00    -0.240 N 
ATOM     39  H15 UNL     1      35.750  49.580  32.148  1.00  0.00     0.189 HD
ATOM     40  H16 UNL     1      36.004  47.117  32.689  1.00  0.00     0.208 HD
BRANCH  36  41
HETATM   41  C13 UNL     1      33.378  50.826  33.291  1.00  0.00     0.281 C 
HETATM   42  O1  UNL     1      33.510  51.533  34.361  1.00  0.00    -0.265 OA
HETATM   43  N9  UNL     1      32.646  51.429  32.264  1.00  0.00    -0.261 N 
HETATM   44  C14 UNL     1      32.130  52.800  32.273  1.00  0.00     0.159 C 
HETATM   45  C17 UNL     1      32.170  50.922  31.023  1.00  0.00     0.352 C 
HETATM   46  C15 UNL     1      30.834  52.755  31.524  1.00  0.00     0.183 C 
HETATM   47  N10 UNL     1      30.889  51.534  30.768  1.00  0.00    -0.188 N 
HETATM   48  O5  UNL     1      32.715  50.110  30.265  1.00  0.00    -0.244 OA
BRANCH  47  49
HETATM   49  O2  UNL     1      29.879  51.053  29.982  1.00  0.00    -0.143 OA
BRANCH  49  50
HETATM   50  S1  UNL     1      28.561  50.664  30.945  1.00  0.00     0.282 S 
HETATM   51  O3  UNL     1      27.581  51.811  30.919  1.00  0.00    -0.194 OA
BRANCH  50  52
HETATM   52  N11 UNL     1      27.777  49.411  30.406  1.00  0.00    -0.187 N 
ATOM     53  H11 UNL     1      28.017  48.970  29.518  1.00  0.00     0.208 HD
BRANCH  52  54
HETATM   54  O4  UNL     1      26.745  48.938  31.196  1.00  0.00    -0.280 OA
ATOM     55  H4  UNL     1      25.877  48.939  30.810  1.00  0.00     0.245 HD
ENDBRANCH  52  54
ENDBRANCH  50  52
BRANCH  50  56
HETATM   56  N12 UNL     1      29.082  50.313  32.533  1.00  0.00    -0.250 N 
HETATM   57  C16 UNL     1      29.594  49.029  32.849  1.00  0.00     0.196 C 
HETATM   58  N13 UNL     1      29.717  48.615  34.081  1.00  0.00    -0.373 N 
HETATM   59  N14 UNL     1      29.980  48.145  31.821  1.00  0.00    -0.063 NA
ATOM     60 2H13 UNL     1      29.437  49.254  34.825  1.00  0.00     0.158 HD
ATOM     61 1H13 UNL     1      30.084  47.691  34.308  1.00  0.00     0.158 HD
ATOM     62  H12 UNL     1      29.025  51.029  33.258  1.00  0.00     0.182 HD
ENDBRANCH  50  56
ENDBRANCH  49  50
ENDBRANCH  47  49
ENDBRANCH  36  41
ENDBRANCH  33  34
ENDBRANCH  32  33
ENDBRANCH   1  32
TORSDOF 14
ENDMDL
MODEL 2
REMARK VINA RESULT: -10.037996618      1.186      1.517
REMARK  14 active torsions:
REMARK  status: ('A' for Active; 'I' for Inactive)
REMARK    1  A    between atoms: C3_4  and  N2_5 
REMARK    2  A    between atoms: N3_7  and  N4_9 
REMARK    3  A    between atoms: C6_16  and  C7_17 
REMARK    4  A    between atoms: C7_17  and  N7_18 
REMARK    5  A    between atoms: N7_18  and  C8_21 
REMARK    6  A    between atoms: C8_21  and  C9_22 
REMARK    7  A    between atoms: C9_22  and  C10_23 
REMARK    8  A    between atoms: C10_23  and  N8_24 
REMARK    9  A    between atoms: C12_26  and  C13_27 
REMARK       I    between atoms: C13_27  and  N9_29 
REMARK   10  A    between atoms: N10_32  and  O2_33 
REMARK   11  A    between atoms: O2_33  and  S1_34 
REMARK   12  A    between atoms: S1_34  and  N11_36 
REMARK   13  A    between atoms: S1_34  and  N12_40 
REMARK   14  A    between atoms: N11_36  and  O4_38 
REMARK       I    between atoms: N12_40  and  C16_42 
ROOT
HETATM    1  C8  UNL     1      31.818  45.910  33.596  1.00  0.00     0.234 C 
ENDROOT
BRANCH   1   2
HETATM    2  N7  UNL     1      30.615  46.347  34.311  1.00  0.00    -0.069 N 
ATOM      3  H72 UNL     1      29.864  46.628  33.680  1.00  0.00     0.277 HD
ATOM      4  H71 UNL     1      30.743  47.243  34.782  1.00  0.00     0.277 HD
BRANCH   2   5
HETATM    5  C7  UNL     1      30.211  45.280  35.230  1.00  0.00     0.308 C 
BRANCH   5   6
HETATM    6  C6  UNL     1      29.380  44.271  34.513  1.00  0.00     0.109 A 
HETATM    7  N6  UNL     1      29.743  43.050  34.131  1.00  0.00    -0.329 N 
HETATM    8  C5  UNL     1      28.657  42.401  33.594  1.00  0.00     0.137 A 
ATOM      9  H6  UNL     1      30.679  42.656  34.222  1.00  0.00     0.168 HD
HETATM   10  N5  UNL     1      28.471  41.092  33.071  1.00  0.00    -0.356 N 
HETATM   11  C18 UNL     1      27.596  43.275  33.657  1.00  0.00     0.148 A 
HETATM   12  C4  UNL     1      27.159  40.502  33.077  1.00  0.00     0.277 C 
ATOM     13  H5  UNL     1      29.263  40.574  32.694  1.00  0.00     0.162 HD
HETATM   14  N4  UNL     1      26.127  41.481  32.648  1.00  0.00    -0.223 N 
HETATM   15  C19 UNL     1      26.313  42.811  33.174  1.00  0.00     0.295 C 
HETATM   16  O6  UNL     1      25.310  43.580  33.206  1.00  0.00    -0.264 OA
HETATM   17  N17 UNL     1      28.061  44.402  34.215  1.00  0.00    -0.337 N 
ATOM     18  H17 UNL     1      27.504  45.238  34.390  1.00  0.00     0.167 HD
BRANCH  14  19
HETATM   19  N3  UNL     1      25.097  41.122  31.876  1.00  0.00    -0.236 N 
HETATM   20  N2  UNL     1      23.946  41.084  31.593  1.00  0.00    -0.283 N 
ATOM     21  H2  UNL     1      23.228  41.529  32.163  1.00  0.00     0.188 HD
ATOM     22  H3  UNL     1      25.541  40.596  31.123  1.00  0.00     0.208 HD
BRANCH  20  23
HETATM   23  C3  UNL     1      23.630  40.348  30.360  1.00  0.00     0.080 A 
HETATM   24  C2  UNL     1      24.594  40.226  29.389  1.00  0.00     0.127 A 
HETATM   25  N1  UNL     1      24.383  39.568  28.217  1.00  0.00    -0.312 N 
HETATM   26  C1  UNL     1      25.420  39.468  27.209  1.00  0.00     0.160 C 
HETATM   27  C21 UNL     1      23.171  39.036  28.046  1.00  0.00     0.325 A 
HETATM   28  N18 UNL     1      22.204  39.147  28.996  1.00  0.00    -0.316 N 
HETATM   29  O7  UNL     1      22.933  38.415  26.970  1.00  0.00    -0.247 OA
HETATM   30  C20 UNL     1      22.395  39.787  30.151  1.00  0.00     0.125 A 
ATOM     31  H18 UNL     1      21.294  38.721  28.819  1.00  0.00     0.170 HD
ENDBRANCH  20  23
ENDBRANCH  14  19
ENDBRANCH   5   6
ENDBRANCH   2   5
ENDBRANCH   1   2
BRANCH   1  32
HETATM   32  C9  UNL     1      32.832  45.386  34.514  1.00  0.00     0.049 C 
BRANCH  32  33
HETATM   33  C10 UNL     1      33.851  46.291  35.101  1.00  0.00     0.151 C 
BRANCH  33  34
HETATM   34  N8  UNL     1      34.117  47.406  34.217  1.00  0.00    -0.287 N 
HETATM   35  C11 UNL     1      33.422  48.563  34.386  1.00  0.00     0.148 A 
HETATM   36  C12 UNL     1      33.874  49.440  33.410  1.00  0.00     0.135 A 
HETATM   37  N15 UNL     1      34.792  48.771  32.729  1.00  0.00    -0.280 N 
HETATM   38  N16 UNL     1      34.933  47.526  33.234  1.00  0.00    -0.240 N 
ATOM     39  H15 UNL     1      35.317  49.142  31.938  1.00  0.00     0.189 HD
ATOM     40  H16 UNL     1      35.573  46.809  32.894  1.00  0.00     0.208 HD
BRANCH  36  41
HETATM   41  C13 UNL     1      33.357  50.799  33.315  1.00  0.00     0.281 C 
HETATM   42  O1  UNL     1      33.526  51.590  34.319  1.00  0.00    -0.265 OA
HETATM   43  N9  UNL     1      32.679  51.354  32.226  1.00  0.00    -0.261 N 
HETATM   44  C14 UNL     1      32.259  52.752  32.102  1.00  0.00     0.159 C 
HETATM   45  C17 UNL     1      32.183  50.769  31.028  1.00  0.00     0.352 C 
HETATM   46  C15 UNL     1      30.972  52.727  31.339  1.00  0.00     0.183 C 
HETATM   47  N10 UNL     1      30.950  51.441  30.698  1.00  0.00    -0.188 N 
HETATM   48  O5  UNL     1      32.677  49.856  30.356  1.00  0.00    -0.244 OA
BRANCH  47  49
HETATM   49  O2  UNL     1      29.917  50.959  29.941  1.00  0.00    -0.143 OA
BRANCH  49  50
HETATM   50  S1  UNL     1      28.698  50.405  30.953  1.00  0.00     0.282 S 
HETATM   51  O3  UNL     1      27.802  49.474  30.174  1.00  0.00    -0.194 OA
BRANCH  50  52
HETATM   52  N11 UNL     1      29.258  49.561  32.157  1.00  0.00    -0.187 N 
ATOM     53  H11 UNL     1      29.310  49.944  33.101  1.00  0.00     0.208 HD
BRANCH  52  54
HETATM   54  O4  UNL     1      29.677  48.275  31.870  1.00  0.00    -0.280 OA
ATOM     55  H4  UNL     1      30.495  47.995  32.265  1.00  0.00     0.245 HD
ENDBRANCH  52  54
ENDBRANCH  50  52
BRANCH  50  56
HETATM   56  N12 UNL     1      27.829  51.726  31.598  1.00  0.00    -0.250 N 
HETATM   57  C16 UNL     1      26.765  51.505  32.509  1.00  0.00     0.196 C 
HETATM   58  N13 UNL     1      25.888  52.430  32.789  1.00  0.00    -0.373 N 
HETATM   59  N14 UNL     1      26.617  50.252  33.139  1.00  0.00    -0.063 NA
ATOM     60 2H13 UNL     1      25.995  53.337  32.334  1.00  0.00     0.158 HD
ATOM     61 1H13 UNL     1      25.123  52.271  33.444  1.00  0.00     0.158 HD
ATOM     62  H12 UNL     1      28.076  52.679  31.328  1.00  0.00     0.182 HD
ENDBRANCH  50  56
ENDBRANCH  49  50
ENDBRANCH  47  49
ENDBRANCH  36  41
ENDBRANCH  33  34
ENDBRANCH  32  33
ENDBRANCH   1  32
TORSDOF 14
ENDMDL
MODEL 3
REMARK VINA RESULT: -9.908570568      1.934      2.640
REMARK  14 active torsions:
REMARK  status: ('A' for Active; 'I' for Inactive)
REMARK    1  A    between atoms: C3_4  and  N2_5 
REMARK    2  A    between atoms: N3_7  and  N4_9 
REMARK    3  A    between atoms: C6_16  and  C7_17 
REMARK    4  A    between atoms: C7_17  and  N7_18 
REMARK    5  A    between atoms: N7_18  and  C8_21 
REMARK    6  A    between atoms: C8_21  and  C9_22 
REMARK    7  A    between atoms: C9_22  and  C10_23 
REMARK    8  A    between atoms: C10_23  and  N8_24 
REMARK    9  A    between atoms: C12_26  and  C13_27 
REMARK       I    between atoms: C13_27  and  N9_29 
REMARK   10  A    between atoms: N10_32  and  O2_33 
REMARK   11  A    between atoms: O2_33  and  S1_34 
REMARK   12  A    between atoms: S1_34  and  N11_36 
REMARK   13  A    between atoms: S1_34  and  N12_40 
REMARK   14  A    between atoms: N11_36  and  O4_38 
REMARK       I    between atoms: N12_40  and  C16_42 
ROOT
HETATM    1  C8  UNL     1      28.695  46.843  35.154  1.00  0.00     0.234 C 
ENDROOT
BRANCH   1   2
HETATM    2  N7  UNL     1      27.599  46.549  34.225  1.00  0.00    -0.069 N 
ATOM      3  H72 UNL     1      27.927  46.372  33.275  1.00  0.00     0.277 HD
ATOM      4  H71 UNL     1      27.026  47.368  34.024  1.00  0.00     0.277 HD
BRANCH   2   5
HETATM    5  C7  UNL     1      26.818  45.435  34.769  1.00  0.00     0.308 C 
BRANCH   5   6
HETATM    6  C6  UNL     1      26.780  44.309  33.792  1.00  0.00     0.109 A 
HETATM    7  N6  UNL     1      27.810  43.612  33.321  1.00  0.00    -0.329 N 
HETATM    8  C5  UNL     1      27.342  42.595  32.524  1.00  0.00     0.137 A 
ATOM      9  H6  UNL     1      28.792  43.802  33.520  1.00  0.00     0.168 HD
HETATM   10  N5  UNL     1      27.987  41.549  31.809  1.00  0.00    -0.356 N 
HETATM   11  C18 UNL     1      25.970  42.689  32.517  1.00  0.00     0.148 A 
HETATM   12  C4  UNL     1      27.268  40.340  31.510  1.00  0.00     0.277 C 
ATOM     13  H5  UNL     1      28.956  41.655  31.509  1.00  0.00     0.162 HD
HETATM   14  N4  UNL     1      25.889  40.636  31.042  1.00  0.00    -0.223 N 
HETATM   15  C19 UNL     1      25.231  41.698  31.763  1.00  0.00     0.295 C 
HETATM   16  O6  UNL     1      23.968  41.746  31.722  1.00  0.00    -0.264 OA
HETATM   17  N17 UNL     1      25.653  43.737  33.290  1.00  0.00    -0.337 N 
ATOM     18  H17 UNL     1      24.704  44.060  33.476  1.00  0.00     0.167 HD
BRANCH  14  19
HETATM   19  N3  UNL     1      25.314  39.931  30.063  1.00  0.00    -0.236 N 
HETATM   20  N2  UNL     1      24.381  39.466  29.498  1.00  0.00    -0.283 N 
ATOM     21  H2  UNL     1      23.424  39.592  29.828  1.00  0.00     0.188 HD
ATOM     22  H3  UNL     1      26.105  39.631  29.494  1.00  0.00     0.208 HD
BRANCH  20  23
HETATM   23  C3  UNL     1      24.703  38.695  28.289  1.00  0.00     0.080 A 
HETATM   24  C2  UNL     1      26.007  38.641  27.859  1.00  0.00     0.127 A 
HETATM   25  N1  UNL     1      26.390  37.957  26.748  1.00  0.00    -0.312 N 
HETATM   26  C1  UNL     1      27.774  37.930  26.316  1.00  0.00     0.160 C 
HETATM   27  C21 UNL     1      25.424  37.327  26.076  1.00  0.00     0.325 A 
HETATM   28  N18 UNL     1      24.128  37.369  26.487  1.00  0.00    -0.316 N 
HETATM   29  O7  UNL     1      25.738  36.678  25.037  1.00  0.00    -0.247 OA
HETATM   30  C20 UNL     1      23.735  38.034  27.575  1.00  0.00     0.125 A 
ATOM     31  H18 UNL     1      23.426  36.870  25.941  1.00  0.00     0.170 HD
ENDBRANCH  20  23
ENDBRANCH  14  19
ENDBRANCH   5   6
ENDBRANCH   2   5
ENDBRANCH   1   2
BRANCH   1  32
HETATM   32  C9  UNL     1      29.977  46.339  34.654  1.00  0.00     0.049 C 
BRANCH  32  33
HETATM   33  C10 UNL     1      31.174  46.338  35.530  1.00  0.00     0.151 C 
BRANCH  33  34
HETATM   34  N8  UNL     1      32.191  47.227  35.009  1.00  0.00    -0.287 N 
HETATM   35  C11 UNL     1      31.849  48.504  34.686  1.00  0.00     0.148 A 
HETATM   36  C12 UNL     1      33.004  49.114  34.216  1.00  0.00     0.135 A 
HETATM   37  N15 UNL     1      33.947  48.187  34.282  1.00  0.00    -0.280 N 
HETATM   38  N16 UNL     1      33.437  47.035  34.771  1.00  0.00    -0.240 N 
ATOM     39  H15 UNL     1      34.919  48.322  34.004  1.00  0.00     0.189 HD
ATOM     40  H16 UNL     1      33.951  46.168  34.923  1.00  0.00     0.208 HD
BRANCH  36  41
HETATM   41  C13 UNL     1      33.007  50.511  33.801  1.00  0.00     0.281 C 
HETATM   42  O1  UNL     1      33.385  51.402  34.653  1.00  0.00    -0.265 OA
HETATM   43  N9  UNL     1      32.635  51.005  32.548  1.00  0.00    -0.261 N 
HETATM   44  C14 UNL     1      32.745  52.398  32.110  1.00  0.00     0.159 C 
HETATM   45  C17 UNL     1      32.036  50.369  31.425  1.00  0.00     0.352 C 
HETATM   46  C15 UNL     1      31.579  52.636  31.201  1.00  0.00     0.183 C 
HETATM   47  N10 UNL     1      31.142  51.322  30.815  1.00  0.00    -0.188 N 
HETATM   48  O5  UNL     1      32.215  49.219  31.006  1.00  0.00    -0.244 OA
BRANCH  47  49
HETATM   49  O2  UNL     1      30.053  51.058  30.031  1.00  0.00    -0.143 OA
BRANCH  49  50
HETATM   50  S1  UNL     1      28.805  50.477  30.991  1.00  0.00     0.282 S 
HETATM   51  O3  UNL     1      27.782  49.804  30.109  1.00  0.00    -0.194 OA
BRANCH  50  52
HETATM   52  N11 UNL     1      29.294  49.377  32.005  1.00  0.00    -0.187 N 
ATOM     53  H11 UNL     1      29.968  49.589  32.740  1.00  0.00     0.208 HD
BRANCH  52  54
HETATM   54  O4  UNL     1      28.763  48.110  31.848  1.00  0.00    -0.280 OA
ATOM     55  H4  UNL     1      29.358  47.432  31.551  1.00  0.00     0.245 HD
ENDBRANCH  52  54
ENDBRANCH  50  52
BRANCH  50  56
HETATM   56  N12 UNL     1      28.120  51.755  31.894  1.00  0.00    -0.250 N 
HETATM   57  C16 UNL     1      27.057  51.501  32.797  1.00  0.00     0.196 C 
HETATM   58  N13 UNL     1      26.307  52.458  33.272  1.00  0.00    -0.373 N 
HETATM   59  N14 UNL     1      26.769  50.182  33.204  1.00  0.00    -0.063 NA
ATOM     60 2H13 UNL     1      26.514  53.412  32.978  1.00  0.00     0.158 HD
ATOM     61 1H13 UNL     1      25.542  52.275  33.921  1.00  0.00     0.158 HD
ATOM     62  H12 UNL     1      28.476  52.704  31.783  1.00  0.00     0.182 HD
ENDBRANCH  50  56
ENDBRANCH  49  50
ENDBRANCH  47  49
ENDBRANCH  36  41
ENDBRANCH  33  34
ENDBRANCH  32  33
ENDBRANCH   1  32
TORSDOF 14
ENDMDL
MODEL 4
REMARK VINA RESULT: -9.842338815      2.479      3.595
REMARK  14 active torsions:
REMARK  status: ('A' for Active; 'I' for Inactive)
REMARK    1  A    between atoms: C3_4  and  N2_5 
REMARK    2  A    between atoms: N3_7  and  N4_9 
REMARK    3  A    between atoms: C6_16  and  C7_17 
REMARK    4  A    between atoms: C7_17  and  N7_18 
REMARK    5  A    between atoms: N7_18  and  C8_21 
REMARK    6  A    between atoms: C8_21  and  C9_22 
REMARK    7  A    between atoms: C9_22  and  C10_23 
REMARK    8  A    between atoms: C10_23  and  N8_24 
REMARK    9  A    between atoms: C12_26  and  C13_27 
REMARK       I    between atoms: C13_27  and  N9_29 
REMARK   10  A    between atoms: N10_32  and  O2_33 
REMARK   11  A    between atoms: O2_33  and  S1_34 
REMARK   12  A    between atoms: S1_34  and  N11_36 
REMARK   13  A    between atoms: S1_34  and  N12_40 
REMARK   14  A    between atoms: N11_36  and  O4_38 
REMARK       I    between atoms: N12_40  and  C16_42 
ROOT
HETATM    1  C8  UNL     1      28.594  45.526  34.741  1.00  0.00     0.234 C 
ENDROOT
BRANCH   1   2
HETATM    2  N7  UNL     1      27.936  44.891  33.595  1.00  0.00    -0.069 N 
ATOM      3  H72 UNL     1      28.578  44.331  33.034  1.00  0.00     0.277 HD
ATOM      4  H71 UNL     1      27.671  45.562  32.874  1.00  0.00     0.277 HD
BRANCH   2   5
HETATM    5  C7  UNL     1      26.795  44.116  34.089  1.00  0.00     0.308 C 
BRANCH   5   6
HETATM    6  C6  UNL     1      26.441  43.044  33.115  1.00  0.00     0.109 A 
HETATM    7  N6  UNL     1      25.234  42.546  32.864  1.00  0.00    -0.329 N 
HETATM    8  C5  UNL     1      25.320  41.649  31.826  1.00  0.00     0.137 A 
ATOM      9  H6  UNL     1      24.379  42.791  33.362  1.00  0.00     0.168 HD
HETATM   10  N5  UNL     1      24.353  40.866  31.139  1.00  0.00    -0.356 N 
HETATM   11  C18 UNL     1      26.640  41.607  31.440  1.00  0.00     0.148 A 
HETATM   12  C4  UNL     1      24.608  40.440  29.789  1.00  0.00     0.277 C 
ATOM     13  H5  UNL     1      23.481  40.607  31.601  1.00  0.00     0.162 HD
HETATM   14  N4  UNL     1      26.004  39.957  29.633  1.00  0.00    -0.223 N 
HETATM   15  C19 UNL     1      26.990  40.747  30.330  1.00  0.00     0.295 C 
HETATM   16  O6  UNL     1      28.191  40.671  29.943  1.00  0.00    -0.264 OA
HETATM   17  N17 UNL     1      27.300  42.459  32.238  1.00  0.00    -0.337 N 
ATOM     18  H17 UNL     1      28.302  42.642  32.194  1.00  0.00     0.167 HD
BRANCH  14  19
HETATM   19  N3  UNL     1      26.301  38.903  28.867  1.00  0.00    -0.236 N 
HETATM   20  N2  UNL     1      26.928  37.936  28.590  1.00  0.00    -0.283 N 
ATOM     21  H2  UNL     1      27.702  37.604  29.164  1.00  0.00     0.188 HD
ATOM     22  H3  UNL     1      25.617  38.962  28.112  1.00  0.00     0.208 HD
BRANCH  20  23
HETATM   23  C3  UNL     1      26.510  37.251  27.358  1.00  0.00     0.080 A 
HETATM   24  C2  UNL     1      27.437  36.530  26.646  1.00  0.00     0.127 A 
HETATM   25  N1  UNL     1      27.137  35.873  25.494  1.00  0.00    -0.312 N 
HETATM   26  C1  UNL     1      28.144  35.130  24.762  1.00  0.00     0.160 C 
HETATM   27  C21 UNL     1      25.873  35.961  25.073  1.00  0.00     0.325 A 
HETATM   28  N18 UNL     1      24.941  36.669  25.765  1.00  0.00    -0.316 N 
HETATM   29  O7  UNL     1      25.551  35.363  24.007  1.00  0.00    -0.247 OA
HETATM   30  C20 UNL     1      25.219  37.319  26.897  1.00  0.00     0.125 A 
ATOM     31  H18 UNL     1      23.987  36.706  25.404  1.00  0.00     0.170 HD
ENDBRANCH  20  23
ENDBRANCH  14  19
ENDBRANCH   5   6
ENDBRANCH   2   5
ENDBRANCH   1   2
BRANCH   1  32
HETATM   32  C9  UNL     1      29.862  46.153  34.357  1.00  0.00     0.049 C 
BRANCH  32  33
HETATM   33  C10 UNL     1      31.074  45.967  35.192  1.00  0.00     0.151 C 
BRANCH  33  34
HETATM   34  N8  UNL     1      32.100  46.921  34.828  1.00  0.00    -0.287 N 
HETATM   35  C11 UNL     1      31.739  48.204  34.551  1.00  0.00     0.148 A 
HETATM   36  C12 UNL     1      32.908  48.881  34.233  1.00  0.00     0.135 A 
HETATM   37  N15 UNL     1      33.877  47.984  34.335  1.00  0.00    -0.280 N 
HETATM   38  N16 UNL     1      33.369  46.787  34.701  1.00  0.00    -0.240 N 
ATOM     39  H15 UNL     1      34.865  48.170  34.162  1.00  0.00     0.189 HD
ATOM     40  H16 UNL     1      33.901  45.929  34.851  1.00  0.00     0.208 HD
BRANCH  36  41
HETATM   41  C13 UNL     1      32.895  50.301  33.905  1.00  0.00     0.281 C 
HETATM   42  O1  UNL     1      33.214  51.145  34.826  1.00  0.00    -0.265 OA
HETATM   43  N9  UNL     1      32.567  50.863  32.669  1.00  0.00    -0.261 N 
HETATM   44  C14 UNL     1      32.662  52.284  32.323  1.00  0.00     0.159 C 
HETATM   45  C17 UNL     1      32.033  50.286  31.483  1.00  0.00     0.352 C 
HETATM   46  C15 UNL     1      31.531  52.552  31.379  1.00  0.00     0.183 C 
HETATM   47  N10 UNL     1      31.143  51.257  30.893  1.00  0.00    -0.188 N 
HETATM   48  O5  UNL     1      32.258  49.169  31.004  1.00  0.00    -0.244 OA
BRANCH  47  49
HETATM   49  O2  UNL     1      30.096  51.018  30.046  1.00  0.00    -0.143 OA
BRANCH  49  50
HETATM   50  S1  UNL     1      28.774  50.485  30.933  1.00  0.00     0.282 S 
HETATM   51  O3  UNL     1      27.779  49.851  29.993  1.00  0.00    -0.194 OA
BRANCH  50  52
HETATM   52  N11 UNL     1      29.163  49.369  31.971  1.00  0.00    -0.187 N 
ATOM     53  H11 UNL     1      29.840  49.541  32.715  1.00  0.00     0.208 HD
BRANCH  52  54
HETATM   54  O4  UNL     1      28.541  48.142  31.825  1.00  0.00    -0.280 OA
ATOM     55  H4  UNL     1      29.008  47.385  32.158  1.00  0.00     0.245 HD
ENDBRANCH  52  54
ENDBRANCH  50  52
BRANCH  50  56
HETATM   56  N12 UNL     1      28.087  51.789  31.797  1.00  0.00    -0.250 N 
HETATM   57  C16 UNL     1      26.972  51.574  32.645  1.00  0.00     0.196 C 
HETATM   58  N13 UNL     1      26.231  52.557  33.079  1.00  0.00    -0.373 N 
HETATM   59  N14 UNL     1      26.620  50.267  33.040  1.00  0.00    -0.063 NA
ATOM     60 2H13 UNL     1      26.486  53.502  32.794  1.00  0.00     0.158 HD
ATOM     61 1H13 UNL     1      25.428  52.403  33.689  1.00  0.00     0.158 HD
ATOM     62  H12 UNL     1      28.481  52.725  31.703  1.00  0.00     0.182 HD
ENDBRANCH  50  56
ENDBRANCH  49  50
ENDBRANCH  47  49
ENDBRANCH  36  41
ENDBRANCH  33  34
ENDBRANCH  32  33
ENDBRANCH   1  32
TORSDOF 14
ENDMDL
MODEL 5
REMARK VINA RESULT: -9.810795472      3.206      6.376
REMARK  14 active torsions:
REMARK  status: ('A' for Active; 'I' for Inactive)
REMARK    1  A    between atoms: C3_4  and  N2_5 
REMARK    2  A    between atoms: N3_7  and  N4_9 
REMARK    3  A    between atoms: C6_16  and  C7_17 
REMARK    4  A    between atoms: C7_17  and  N7_18 
REMARK    5  A    between atoms: N7_18  and  C8_21 
REMARK    6  A    between atoms: C8_21  and  C9_22 
REMARK    7  A    between atoms: C9_22  and  C10_23 
REMARK    8  A    between atoms: C10_23  and  N8_24 
REMARK    9  A    between atoms: C12_26  and  C13_27 
REMARK       I    between atoms: C13_27  and  N9_29 
REMARK   10  A    between atoms: N10_32  and  O2_33 
REMARK   11  A    between atoms: O2_33  and  S1_34 
REMARK   12  A    between atoms: S1_34  and  N11_36 
REMARK   13  A    between atoms: S1_34  and  N12_40 
REMARK   14  A    between atoms: N11_36  and  O4_38 
REMARK       I    between atoms: N12_40  and  C16_42 
ROOT
HETATM    1  C8  UNL     1      27.012  42.876  33.371  1.00  0.00     0.234 C 
ENDROOT
BRANCH   1   2
HETATM    2  N7  UNL     1      26.536  42.558  32.021  1.00  0.00    -0.069 N 
ATOM      3  H72 UNL     1      27.147  41.901  31.534  1.00  0.00     0.277 HD
ATOM      4  H71 UNL     1      26.634  43.343  31.377  1.00  0.00     0.277 HD
BRANCH   2   5
HETATM    5  C7  UNL     1      25.155  42.079  32.119  1.00  0.00     0.308 C 
BRANCH   5   6
HETATM    6  C6  UNL     1      24.869  41.108  31.023  1.00  0.00     0.109 A 
HETATM    7  N6  UNL     1      23.729  40.464  30.791  1.00  0.00    -0.329 N 
HETATM    8  C5  UNL     1      23.845  39.743  29.626  1.00  0.00     0.137 A 
ATOM      9  H6  UNL     1      22.900  40.500  31.383  1.00  0.00     0.168 HD
HETATM   10  N5  UNL     1      22.940  38.919  28.903  1.00  0.00    -0.356 N 
HETATM   11  C18 UNL     1      25.113  39.965  29.141  1.00  0.00     0.148 A 
HETATM   12  C4  UNL     1      23.123  38.728  27.490  1.00  0.00     0.277 C 
ATOM     13  H5  UNL     1      22.165  38.464  29.385  1.00  0.00     0.162 HD
HETATM   14  N4  UNL     1      24.553  38.499  27.158  1.00  0.00    -0.223 N 
HETATM   15  C19 UNL     1      25.475  39.332  27.891  1.00  0.00     0.295 C 
HETATM   16  O6  UNL     1      26.631  39.502  27.408  1.00  0.00    -0.264 OA
HETATM   17  N17 UNL     1      25.715  40.793  30.007  1.00  0.00    -0.337 N 
ATOM     18  H17 UNL     1      26.670  41.137  29.916  1.00  0.00     0.167 HD
BRANCH  14  19
HETATM   19  N3  UNL     1      24.924  37.621  26.222  1.00  0.00    -0.236 N 
HETATM   20  N2  UNL     1      24.786  37.039  25.199  1.00  0.00    -0.283 N 
ATOM     21  H2  UNL     1      23.984  37.192  24.587  1.00  0.00     0.188 HD
ATOM     22  H3  UNL     1      25.803  37.250  26.584  1.00  0.00     0.208 HD
BRANCH  20  23
HETATM   23  C3  UNL     1      25.853  36.081  24.874  1.00  0.00     0.080 A 
HETATM   24  C2  UNL     1      27.099  36.258  25.423  1.00  0.00     0.127 A 
HETATM   25  N1  UNL     1      28.143  35.424  25.171  1.00  0.00    -0.312 N 
HETATM   26  C1  UNL     1      29.449  35.647  25.759  1.00  0.00     0.160 C 
HETATM   27  C21 UNL     1      27.900  34.402  24.346  1.00  0.00     0.325 A 
HETATM   28  N18 UNL     1      26.672  34.211  23.794  1.00  0.00    -0.316 N 
HETATM   29  O7  UNL     1      28.843  33.602  24.086  1.00  0.00    -0.247 OA
HETATM   30  C20 UNL     1      25.638  35.019  24.031  1.00  0.00     0.125 A 
ATOM     31  H18 UNL     1      26.536  33.415  23.170  1.00  0.00     0.170 HD
ENDBRANCH  20  23
ENDBRANCH  14  19
ENDBRANCH   5   6
ENDBRANCH   2   5
ENDBRANCH   1   2
BRANCH   1  32
HETATM   32  C9  UNL     1      26.895  44.307  33.663  1.00  0.00     0.049 C 
BRANCH  32  33
HETATM   33  C10 UNL     1      28.090  45.090  34.062  1.00  0.00     0.151 C 
BRANCH  33  34
HETATM   34  N8  UNL     1      27.805  46.510  34.035  1.00  0.00    -0.287 N 
HETATM   35  C11 UNL     1      28.373  47.279  33.067  1.00  0.00     0.148 A 
HETATM   36  C12 UNL     1      27.934  48.577  33.288  1.00  0.00     0.135 A 
HETATM   37  N15 UNL     1      27.148  48.510  34.352  1.00  0.00    -0.280 N 
HETATM   38  N16 UNL     1      27.077  47.237  34.800  1.00  0.00    -0.240 N 
ATOM     39  H15 UNL     1      26.666  49.304  34.772  1.00  0.00     0.189 HD
ATOM     40  H16 UNL     1      26.539  46.914  35.604  1.00  0.00     0.208 HD
BRANCH  36  41
HETATM   41  C13 UNL     1      28.331  49.670  32.409  1.00  0.00     0.281 C 
HETATM   42  O1  UNL     1      27.414  50.281  31.739  1.00  0.00    -0.265 OA
HETATM   43  N9  UNL     1      29.631  50.141  32.209  1.00  0.00    -0.261 N 
HETATM   44  C14 UNL     1      30.003  51.309  31.406  1.00  0.00     0.159 C 
HETATM   45  C17 UNL     1      30.891  49.643  32.642  1.00  0.00     0.352 C 
HETATM   46  C15 UNL     1      31.328  50.979  30.792  1.00  0.00     0.183 C 
HETATM   47  N10 UNL     1      31.842  49.898  31.587  1.00  0.00    -0.188 N 
HETATM   48  O5  UNL     1      31.173  49.089  33.711  1.00  0.00    -0.244 OA
BRANCH  47  49
HETATM   49  O2  UNL     1      33.012  49.233  31.344  1.00  0.00    -0.143 OA
BRANCH  49  50
HETATM   50  S1  UNL     1      34.133  49.630  32.529  1.00  0.00     0.282 S 
HETATM   51  O3  UNL     1      35.499  49.726  31.896  1.00  0.00    -0.194 OA
BRANCH  50  52
HETATM   52  N11 UNL     1      33.852  51.039  33.168  1.00  0.00    -0.187 N 
ATOM     53  H11 UNL     1      34.010  51.904  32.651  1.00  0.00     0.208 HD
BRANCH  52  54
HETATM   54  O4  UNL     1      33.379  51.047  34.468  1.00  0.00    -0.280 OA
ATOM     55  H4  UNL     1      33.144  51.893  34.831  1.00  0.00     0.245 HD
ENDBRANCH  52  54
ENDBRANCH  50  52
BRANCH  50  56
HETATM   56  N12 UNL     1      34.095  48.468  33.780  1.00  0.00    -0.250 N 
HETATM   57  C16 UNL     1      34.070  47.085  33.469  1.00  0.00     0.196 C 
HETATM   58  N13 UNL     1      33.738  46.182  34.351  1.00  0.00    -0.373 N 
HETATM   59  N14 UNL     1      34.399  46.642  32.172  1.00  0.00    -0.063 NA
ATOM     60 2H13 UNL     1      33.500  46.503  35.290  1.00  0.00     0.158 HD
ATOM     61 1H13 UNL     1      33.719  45.187  34.128  1.00  0.00     0.158 HD
ATOM     62  H12 UNL     1      34.090  48.770  34.755  1.00  0.00     0.182 HD
ENDBRANCH  50  56
ENDBRANCH  49  50
ENDBRANCH  47  49
ENDBRANCH  36  41
ENDBRANCH  33  34
ENDBRANCH  32  33
ENDBRANCH   1  32
TORSDOF 14
ENDMDL
