MODEL 1
REMARK VINA RESULT: -9.377615160      0.000      0.000
REMARK  18 active torsions:
REMARK  status: ('A' for Active; 'I' for Inactive)
REMARK    1  A    between atoms: C2_2  and  C3_7 
REMARK    2  A    between atoms: N1_3  and  O1_5 
REMARK       I    between atoms: C3_7  and  N2_9 
REMARK    3  A    between atoms: N2_9  and  S1_11 
REMARK    4  A    between atoms: S1_11  and  N3_14 
REMARK       I    between atoms: N3_14  and  C4_16 
REMARK    5  A    between atoms: C4_16  and  C5_18 
REMARK    6  A    between atoms: C5_18  and  O6_19 
REMARK    7  A    between atoms: C5_18  and  C6_21 
REMARK    8  A    between atoms: C6_21  and  N4_23 
REMARK    9  A    between atoms: N4_23  and  C8_25 
REMARK   10  A    between atoms: C8_25  and  N5_26 
REMARK   11  A    between atoms: C8_25  and  C16_40 
REMARK   12  A    between atoms: N5_26  and  O7_27 
REMARK   13  A    between atoms: O7_27  and  C9_28 
REMARK   14  A    between atoms: C9_28  and  C10_30 
REMARK   15  A    between atoms: C18_42  and  O10_43 
REMARK   16  A    between atoms: C19_45  and  O11_46 
REMARK   17  A    between atoms: C20_48  and  O12_49 
REMARK   18  A    between atoms: O12_49  and  S2_50 
ROOT
HETATM    1  C8  UNL     1      29.361  48.453  34.093  1.00  0.00     0.219 C 
ENDROOT
BRANCH   1   2
HETATM    2  N4  UNL     1      29.155  49.266  32.941  1.00  0.00    -0.355 N 
ATOM      3  H4  UNL     1      29.295  50.273  33.029  1.00  0.00     0.162 HD
BRANCH   2   4
HETATM    4  C6  UNL     1      28.760  48.740  31.651  1.00  0.00     0.118 C 
HETATM    5  C7  UNL     1      27.369  49.206  31.268  1.00  0.00     0.035 C 
BRANCH   4   6
HETATM    6  C5  UNL     1      29.755  49.224  30.609  1.00  0.00     0.233 C 
BRANCH   6   7
HETATM    7  C4  UNL     1      30.084  50.675  30.851  1.00  0.00     0.263 C 
HETATM    8  N3  UNL     1      31.438  51.072  30.838  1.00  0.00    -0.235 N 
ATOM      9  H3  UNL     1      32.169  50.380  30.673  1.00  0.00     0.183 HD
HETATM   10  O5  UNL     1      29.188  51.506  31.057  1.00  0.00    -0.270 OA
BRANCH   8  11
HETATM   11  S1  UNL     1      31.857  52.706  31.097  1.00  0.00     0.328 S 
HETATM   12  O3  UNL     1      31.147  53.655  30.171  1.00  0.00    -0.182 OA
HETATM   13  O4  UNL     1      31.412  53.102  32.496  1.00  0.00    -0.182 OA
BRANCH  11  14
HETATM   14  N2  UNL     1      33.558  52.949  31.018  1.00  0.00    -0.232 N 
HETATM   15  C3  UNL     1      34.520  51.912  31.244  1.00  0.00     0.280 C 
HETATM   16  O2  UNL     1      34.163  50.737  31.519  1.00  0.00    -0.265 OA
ATOM     17  H2  UNL     1      33.902  53.884  30.798  1.00  0.00     0.183 HD
BRANCH  15  18
HETATM   18  C2  UNL     1      35.948  52.194  31.160  1.00  0.00     0.096 C 
HETATM   19  C1  UNL     1      36.874  51.143  30.704  1.00  0.00     0.076 C 
HETATM   20  N1  UNL     1      36.401  53.349  31.476  1.00  0.00    -0.268 N 
ATOM     21  H1  UNL     1      35.767  54.081  31.794  1.00  0.00     0.194 HD
BRANCH  20  22
HETATM   22  O1  UNL     1      37.744  53.590  31.382  1.00  0.00    -0.290 OA
ATOM     23  H1  UNL     1      38.075  54.094  30.648  1.00  0.00     0.244 HD
ENDBRANCH  20  22
ENDBRANCH  15  18
ENDBRANCH  11  14
ENDBRANCH   8  11
ENDBRANCH   6   7
BRANCH   6  24
HETATM   24  O6  UNL     1      29.164  49.092  29.336  1.00  0.00    -0.384 OA
ATOM     25  H6  UNL     1      28.540  49.797  29.209  1.00  0.00     0.210 HD
ENDBRANCH   6  24
ENDBRANCH   4   6
ENDBRANCH   2   4
ENDBRANCH   1   2
BRANCH   1  26
HETATM   26  N5  UNL     1      28.417  48.085  34.743  1.00  0.00    -0.253 NA
BRANCH  26  27
HETATM   27  O7  UNL     1      27.621  47.338  35.374  1.00  0.00    -0.122 OA
BRANCH  27  28
HETATM   28  C9  UNL     1      26.796  46.282  35.136  1.00  0.00     0.325 C 
HETATM   29  O8  UNL     1      25.782  46.196  35.906  1.00  0.00    -0.259 OA
BRANCH  28  30
HETATM   30  C10 UNL     1      26.957  45.258  34.104  1.00  0.00     0.237 C 
HETATM   31  C11 UNL     1      28.105  44.299  34.342  1.00  0.00     0.104 C 
HETATM   32  C12 UNL     1      27.644  43.130  33.512  1.00  0.00     0.065 A 
HETATM   33  C13 UNL     1      26.288  43.256  33.301  1.00  0.00     0.111 A 
HETATM   34  N7  UNL     1      28.070  42.006  32.901  1.00  0.00    -0.298 N 
HETATM   35  C14 UNL     1      25.919  42.165  32.540  1.00  0.00     0.146 A 
HETATM   36  O9  UNL     1      25.816  44.426  33.933  1.00  0.00    -0.332 OA
HETATM   37  N6  UNL     1      27.016  41.448  32.326  1.00  0.00    -0.307 N 
ATOM     38  H6  UNL     1      27.043  40.580  31.789  1.00  0.00     0.186 HD
HETATM   39  C15 UNL     1      29.457  41.513  32.891  1.00  0.00     0.177 C 
ENDBRANCH  28  30
ENDBRANCH  27  28
ENDBRANCH  26  27
ENDBRANCH   1  26
BRANCH   1  40
HETATM   40  C16 UNL     1      30.748  48.138  34.404  1.00  0.00     0.030 A 
HETATM   41  C17 UNL     1      31.840  48.779  33.917  1.00  0.00     0.056 A 
HETATM   42  C18 UNL     1      33.109  48.411  34.299  1.00  0.00     0.102 A 
HETATM   43  C19 UNL     1      33.335  47.387  35.185  1.00  0.00     0.134 A 
HETATM   44  C20 UNL     1      32.249  46.706  35.706  1.00  0.00     0.129 A 
HETATM   45  C21 UNL     1      30.994  47.101  35.302  1.00  0.00     0.057 A 
BRANCH  42  46
HETATM   46  O10 UNL     1      34.246  49.069  33.801  1.00  0.00    -0.358 OA
ATOM     47  H10 UNL     1      34.183  49.914  33.372  1.00  0.00     0.217 HD
ENDBRANCH  42  46
BRANCH  43  48
HETATM   48  O11 UNL     1      34.632  47.017  35.572  1.00  0.00    -0.356 OA
ATOM     49  H11 UNL     1      35.255  47.652  35.908  1.00  0.00     0.218 HD
ENDBRANCH  43  48
BRANCH  44  50
HETATM   50  O12 UNL     1      32.440  45.666  36.608  1.00  0.00    -0.211 OA
BRANCH  50  51
HETATM   51  S2  UNL     1      32.161  44.075  36.109  1.00  0.00     0.257 S 
HETATM   52  O13 UNL     1      32.232  43.979  34.607  1.00  0.00    -0.572 OA
HETATM   53  O14 UNL     1      33.189  43.147  36.743  1.00  0.00    -0.572 OA
HETATM   54  O15 UNL     1      30.652  43.585  36.659  1.00  0.00    -0.572 OA
ENDBRANCH  50  51
ENDBRANCH  44  50
ENDBRANCH   1  40
TORSDOF 18
ENDMDL
MODEL 2
REMARK VINA RESULT: -9.175848341      2.335      5.569
REMARK  18 active torsions:
REMARK  status: ('A' for Active; 'I' for Inactive)
REMARK    1  A    between atoms: C2_2  and  C3_7 
REMARK    2  A    between atoms: N1_3  and  O1_5 
REMARK       I    between atoms: C3_7  and  N2_9 
REMARK    3  A    between atoms: N2_9  and  S1_11 
REMARK    4  A    between atoms: S1_11  and  N3_14 
REMARK       I    between atoms: N3_14  and  C4_16 
REMARK    5  A    between atoms: C4_16  and  C5_18 
REMARK    6  A    between atoms: C5_18  and  O6_19 
REMARK    7  A    between atoms: C5_18  and  C6_21 
REMARK    8  A    between atoms: C6_21  and  N4_23 
REMARK    9  A    between atoms: N4_23  and  C8_25 
REMARK   10  A    between atoms: C8_25  and  N5_26 
REMARK   11  A    between atoms: C8_25  and  C16_40 
REMARK   12  A    between atoms: N5_26  and  O7_27 
REMARK   13  A    between atoms: O7_27  and  C9_28 
REMARK   14  A    between atoms: C9_28  and  C10_30 
REMARK   15  A    between atoms: C18_42  and  O10_43 
REMARK   16  A    between atoms: C19_45  and  O11_46 
REMARK   17  A    between atoms: C20_48  and  O12_49 
REMARK   18  A    between atoms: O12_49  and  S2_50 
ROOT
HETATM    1  C8  UNL     1      29.404  47.825  34.763  1.00  0.00     0.219 C 
ENDROOT
BRANCH   1   2
HETATM    2  N4  UNL     1      30.773  47.911  35.149  1.00  0.00    -0.355 N 
ATOM      3  H4  UNL     1      31.171  48.835  35.315  1.00  0.00     0.162 HD
BRANCH   2   4
HETATM    4  C6  UNL     1      31.629  46.755  35.319  1.00  0.00     0.118 C 
HETATM    5  C7  UNL     1      31.585  45.853  34.103  1.00  0.00     0.035 C 
BRANCH   4   6
HETATM    6  C5  UNL     1      33.054  47.241  35.531  1.00  0.00     0.233 C 
BRANCH   6   7
HETATM    7  C4  UNL     1      33.282  48.514  34.755  1.00  0.00     0.263 C 
HETATM    8  N3  UNL     1      33.999  48.446  33.542  1.00  0.00    -0.235 N 
ATOM      9  H3  UNL     1      34.356  47.548  33.212  1.00  0.00     0.183 HD
HETATM   10  O5  UNL     1      32.850  49.598  35.169  1.00  0.00    -0.270 OA
BRANCH   8  11
HETATM   11  S1  UNL     1      34.273  49.858  32.625  1.00  0.00     0.328 S 
HETATM   12  O3  UNL     1      35.350  50.738  33.198  1.00  0.00    -0.182 OA
HETATM   13  O4  UNL     1      34.777  49.450  31.250  1.00  0.00    -0.182 OA
BRANCH  11  14
HETATM   14  N2  UNL     1      32.826  50.757  32.388  1.00  0.00    -0.232 N 
HETATM   15  C3  UNL     1      32.586  51.589  31.247  1.00  0.00     0.280 C 
HETATM   16  O2  UNL     1      33.443  51.712  30.334  1.00  0.00    -0.265 OA
ATOM     17  H2  UNL     1      32.097  50.693  33.099  1.00  0.00     0.183 HD
BRANCH  15  18
HETATM   18  C2  UNL     1      31.332  52.321  31.114  1.00  0.00     0.096 C 
HETATM   19  C1  UNL     1      30.944  53.299  32.146  1.00  0.00     0.076 C 
HETATM   20  N1  UNL     1      30.568  52.122  30.106  1.00  0.00    -0.268 N 
ATOM     21  H1  UNL     1      30.829  51.446  29.389  1.00  0.00     0.194 HD
BRANCH  20  22
HETATM   22  O1  UNL     1      29.400  52.826  30.001  1.00  0.00    -0.290 OA
ATOM     23  H1  UNL     1      29.385  53.629  29.496  1.00  0.00     0.244 HD
ENDBRANCH  20  22
ENDBRANCH  15  18
ENDBRANCH  11  14
ENDBRANCH   8  11
ENDBRANCH   6   7
BRANCH   6  24
HETATM   24  O6  UNL     1      33.936  46.249  35.057  1.00  0.00    -0.384 OA
ATOM     25  H6  UNL     1      33.474  45.692  34.441  1.00  0.00     0.210 HD
ENDBRANCH   6  24
ENDBRANCH   4   6
ENDBRANCH   2   4
ENDBRANCH   1   2
BRANCH   1  26
HETATM   26  N5  UNL     1      28.623  47.222  35.453  1.00  0.00    -0.253 NA
BRANCH  26  27
HETATM   27  O7  UNL     1      27.666  46.479  35.803  1.00  0.00    -0.122 OA
BRANCH  27  28
HETATM   28  C9  UNL     1      26.613  45.826  35.239  1.00  0.00     0.325 C 
HETATM   29  O8  UNL     1      25.477  46.058  35.772  1.00  0.00    -0.259 OA
BRANCH  28  30
HETATM   30  C10 UNL     1      26.659  44.903  34.106  1.00  0.00     0.237 C 
HETATM   31  C11 UNL     1      27.790  43.896  34.159  1.00  0.00     0.104 C 
HETATM   32  C12 UNL     1      27.226  42.825  33.263  1.00  0.00     0.065 A 
HETATM   33  C13 UNL     1      25.862  43.005  33.175  1.00  0.00     0.111 A 
HETATM   34  N7  UNL     1      27.565  41.754  32.516  1.00  0.00    -0.298 N 
HETATM   35  C14 UNL     1      25.399  42.003  32.347  1.00  0.00     0.146 A 
HETATM   36  O9  UNL     1      25.481  44.121  33.951  1.00  0.00    -0.332 OA
HETATM   37  N6  UNL     1      26.451  41.281  31.978  1.00  0.00    -0.307 N 
ATOM     38  H6  UNL     1      26.407  40.469  31.362  1.00  0.00     0.186 HD
HETATM   39  C15 UNL     1      28.929  41.228  32.347  1.00  0.00     0.177 C 
ENDBRANCH  28  30
ENDBRANCH  27  28
ENDBRANCH  26  27
ENDBRANCH   1  26
BRANCH   1  40
HETATM   40  C16 UNL     1      29.058  48.485  33.512  1.00  0.00     0.030 A 
HETATM   41  C17 UNL     1      29.802  48.483  32.377  1.00  0.00     0.056 A 
HETATM   42  C18 UNL     1      29.365  49.124  31.241  1.00  0.00     0.102 A 
HETATM   43  C19 UNL     1      28.166  49.790  31.195  1.00  0.00     0.134 A 
HETATM   44  C20 UNL     1      27.376  49.817  32.331  1.00  0.00     0.129 A 
HETATM   45  C21 UNL     1      27.843  49.166  33.450  1.00  0.00     0.057 A 
BRANCH  42  46
HETATM   46  O10 UNL     1      30.127  49.127  30.061  1.00  0.00    -0.358 OA
ATOM     47  H10 UNL     1      30.590  48.351  29.767  1.00  0.00     0.217 HD
ENDBRANCH  42  46
BRANCH  43  48
HETATM   48  O11 UNL     1      27.725  50.440  30.032  1.00  0.00    -0.356 OA
ATOM     49  H11 UNL     1      28.271  50.506  29.257  1.00  0.00     0.218 HD
ENDBRANCH  43  48
BRANCH  44  50
HETATM   50  O12 UNL     1      26.155  50.480  32.320  1.00  0.00    -0.211 OA
BRANCH  50  51
HETATM   51  S2  UNL     1      26.121  52.159  32.520  1.00  0.00     0.257 S 
HETATM   52  O13 UNL     1      24.742  52.607  32.927  1.00  0.00    -0.572 OA
HETATM   53  O14 UNL     1      27.139  52.574  33.575  1.00  0.00    -0.572 OA
HETATM   54  O15 UNL     1      26.578  52.891  31.081  1.00  0.00    -0.572 OA
ENDBRANCH  50  51
ENDBRANCH  44  50
ENDBRANCH   1  40
TORSDOF 18
ENDMDL
MODEL 3
REMARK VINA RESULT: -9.152984922      2.358      9.884
REMARK  18 active torsions:
REMARK  status: ('A' for Active; 'I' for Inactive)
REMARK    1  A    between atoms: C2_2  and  C3_7 
REMARK    2  A    between atoms: N1_3  and  O1_5 
REMARK       I    between atoms: C3_7  and  N2_9 
REMARK    3  A    between atoms: N2_9  and  S1_11 
REMARK    4  A    between atoms: S1_11  and  N3_14 
REMARK       I    between atoms: N3_14  and  C4_16 
REMARK    5  A    between atoms: C4_16  and  C5_18 
REMARK    6  A    between atoms: C5_18  and  O6_19 
REMARK    7  A    between atoms: C5_18  and  C6_21 
REMARK    8  A    between atoms: C6_21  and  N4_23 
REMARK    9  A    between atoms: N4_23  and  C8_25 
REMARK   10  A    between atoms: C8_25  and  N5_26 
REMARK   11  A    between atoms: C8_25  and  C16_40 
REMARK   12  A    between atoms: N5_26  and  O7_27 
REMARK   13  A    between atoms: O7_27  and  C9_28 
REMARK   14  A    between atoms: C9_28  and  C10_30 
REMARK   15  A    between atoms: C18_42  and  O10_43 
REMARK   16  A    between atoms: C19_45  and  O11_46 
REMARK   17  A    between atoms: C20_48  and  O12_49 
REMARK   18  A    between atoms: O12_49  and  S2_50 
ROOT
HETATM    1  C8  UNL     1      32.781  48.979  34.603  1.00  0.00     0.219 C 
ENDROOT
BRANCH   1   2
HETATM    2  N4  UNL     1      33.632  47.929  35.054  1.00  0.00    -0.355 N 
ATOM      3  H4  UNL     1      34.180  48.081  35.901  1.00  0.00     0.162 HD
BRANCH   2   4
HETATM    4  C6  UNL     1      33.761  46.657  34.373  1.00  0.00     0.118 C 
HETATM    5  C7  UNL     1      34.633  46.777  33.140  1.00  0.00     0.035 C 
BRANCH   4   6
HETATM    6  C5  UNL     1      34.387  45.660  35.335  1.00  0.00     0.233 C 
BRANCH   6   7
HETATM    7  C4  UNL     1      33.622  44.361  35.296  1.00  0.00     0.263 C 
HETATM    8  N3  UNL     1      32.920  43.957  36.451  1.00  0.00    -0.235 N 
ATOM      9  H3  UNL     1      32.943  44.537  37.290  1.00  0.00     0.183 HD
HETATM   10  O5  UNL     1      33.606  43.661  34.274  1.00  0.00    -0.270 OA
BRANCH   8  11
HETATM   11  S1  UNL     1      32.032  42.500  36.451  1.00  0.00     0.328 S 
HETATM   12  O3  UNL     1      32.891  41.281  36.258  1.00  0.00    -0.182 OA
HETATM   13  O4  UNL     1      31.389  42.326  37.818  1.00  0.00    -0.182 OA
BRANCH  11  14
HETATM   14  N2  UNL     1      30.760  42.527  35.293  1.00  0.00    -0.232 N 
HETATM   15  C3  UNL     1      29.857  43.627  35.131  1.00  0.00     0.280 C 
HETATM   16  O2  UNL     1      29.949  44.660  35.845  1.00  0.00    -0.265 OA
ATOM     17  H2  UNL     1      30.641  41.714  34.688  1.00  0.00     0.183 HD
BRANCH  15  18
HETATM   18  C2  UNL     1      28.802  43.578  34.126  1.00  0.00     0.096 C 
HETATM   19  C1  UNL     1      28.480  42.300  33.467  1.00  0.00     0.076 C 
HETATM   20  N1  UNL     1      28.152  44.637  33.816  1.00  0.00    -0.268 N 
ATOM     21  H1  UNL     1      28.370  45.525  34.266  1.00  0.00     0.194 HD
BRANCH  20  22
HETATM   22  O1  UNL     1      27.163  44.563  32.874  1.00  0.00    -0.290 OA
ATOM     23  H1  UNL     1      26.647  45.337  32.681  1.00  0.00     0.244 HD
ENDBRANCH  20  22
ENDBRANCH  15  18
ENDBRANCH  11  14
ENDBRANCH   8  11
ENDBRANCH   6   7
BRANCH   6  24
HETATM   24  O6  UNL     1      34.318  46.196  36.637  1.00  0.00    -0.384 OA
ATOM     25  H6  UNL     1      34.836  45.656  37.222  1.00  0.00     0.210 HD
ENDBRANCH   6  24
ENDBRANCH   4   6
ENDBRANCH   2   4
ENDBRANCH   1   2
BRANCH   1  26
HETATM   26  N5  UNL     1      33.196  50.108  34.553  1.00  0.00    -0.253 NA
BRANCH  26  27
HETATM   27  O7  UNL     1      33.616  51.206  34.096  1.00  0.00    -0.122 OA
BRANCH  27  28
HETATM   28  C9  UNL     1      33.911  51.773  32.894  1.00  0.00     0.325 C 
HETATM   29  O8  UNL     1      33.195  52.780  32.574  1.00  0.00    -0.259 OA
BRANCH  28  30
HETATM   30  C10 UNL     1      34.947  51.347  31.955  1.00  0.00     0.237 C 
HETATM   31  C11 UNL     1      35.735  52.481  31.329  1.00  0.00     0.104 C 
HETATM   32  C12 UNL     1      36.989  51.742  30.941  1.00  0.00     0.065 A 
HETATM   33  C13 UNL     1      37.053  50.578  31.676  1.00  0.00     0.111 A 
HETATM   34  N7  UNL     1      38.071  51.802  30.139  1.00  0.00    -0.298 N 
HETATM   35  C14 UNL     1      38.214  49.944  31.284  1.00  0.00     0.146 A 
HETATM   36  O9  UNL     1      35.930  50.492  32.527  1.00  0.00    -0.332 OA
HETATM   37  N6  UNL     1      38.789  50.712  30.364  1.00  0.00    -0.307 N 
ATOM     38  H6  UNL     1      39.667  50.491  29.894  1.00  0.00     0.186 HD
HETATM   39  C15 UNL     1      38.377  52.891  29.196  1.00  0.00     0.177 C 
ENDBRANCH  28  30
ENDBRANCH  27  28
ENDBRANCH  26  27
ENDBRANCH   1  26
BRANCH   1  40
HETATM   40  C16 UNL     1      31.426  48.584  34.245  1.00  0.00     0.030 A 
HETATM   41  C17 UNL     1      30.475  48.133  35.100  1.00  0.00     0.056 A 
HETATM   42  C18 UNL     1      29.215  47.808  34.653  1.00  0.00     0.102 A 
HETATM   43  C19 UNL     1      28.857  47.922  33.333  1.00  0.00     0.134 A 
HETATM   44  C20 UNL     1      29.798  48.378  32.426  1.00  0.00     0.129 A 
HETATM   45  C21 UNL     1      31.048  48.694  32.907  1.00  0.00     0.057 A 
BRANCH  42  46
HETATM   46  O10 UNL     1      28.222  47.341  35.531  1.00  0.00    -0.358 OA
ATOM     47  H10 UNL     1      27.649  47.940  35.996  1.00  0.00     0.217 HD
ENDBRANCH  42  46
BRANCH  43  48
HETATM   48  O11 UNL     1      27.570  47.591  32.884  1.00  0.00    -0.356 OA
ATOM     49  H11 UNL     1      26.837  48.189  32.976  1.00  0.00     0.218 HD
ENDBRANCH  43  48
BRANCH  44  50
HETATM   50  O12 UNL     1      29.471  48.510  31.083  1.00  0.00    -0.211 OA
BRANCH  50  51
HETATM   51  S2  UNL     1      28.632  49.884  30.564  1.00  0.00     0.257 S 
HETATM   52  O13 UNL     1      27.210  49.526  30.216  1.00  0.00    -0.572 OA
HETATM   53  O14 UNL     1      28.653  50.945  31.657  1.00  0.00    -0.572 OA
HETATM   54  O15 UNL     1      29.418  50.535  29.231  1.00  0.00    -0.572 OA
ENDBRANCH  50  51
ENDBRANCH  44  50
ENDBRANCH   1  40
TORSDOF 18
ENDMDL
MODEL 4
REMARK VINA RESULT: -9.141966238      3.224      8.730
REMARK  18 active torsions:
REMARK  status: ('A' for Active; 'I' for Inactive)
REMARK    1  A    between atoms: C2_2  and  C3_7 
REMARK    2  A    between atoms: N1_3  and  O1_5 
REMARK       I    between atoms: C3_7  and  N2_9 
REMARK    3  A    between atoms: N2_9  and  S1_11 
REMARK    4  A    between atoms: S1_11  and  N3_14 
REMARK       I    between atoms: N3_14  and  C4_16 
REMARK    5  A    between atoms: C4_16  and  C5_18 
REMARK    6  A    between atoms: C5_18  and  O6_19 
REMARK    7  A    between atoms: C5_18  and  C6_21 
REMARK    8  A    between atoms: C6_21  and  N4_23 
REMARK    9  A    between atoms: N4_23  and  C8_25 
REMARK   10  A    between atoms: C8_25  and  N5_26 
REMARK   11  A    between atoms: C8_25  and  C16_40 
REMARK   12  A    between atoms: N5_26  and  O7_27 
REMARK   13  A    between atoms: O7_27  and  C9_28 
REMARK   14  A    between atoms: C9_28  and  C10_30 
REMARK   15  A    between atoms: C18_42  and  O10_43 
REMARK   16  A    between atoms: C19_45  and  O11_46 
REMARK   17  A    between atoms: C20_48  and  O12_49 
REMARK   18  A    between atoms: O12_49  and  S2_50 
ROOT
HETATM    1  C8  UNL     1      31.703  47.630  34.725  1.00  0.00     0.219 C 
ENDROOT
BRANCH   1   2
HETATM    2  N4  UNL     1      31.762  46.493  35.583  1.00  0.00    -0.355 N 
ATOM      3  H4  UNL     1      30.919  46.227  36.092  1.00  0.00     0.162 HD
BRANCH   2   4
HETATM    4  C6  UNL     1      32.956  45.694  35.769  1.00  0.00     0.118 C 
HETATM    5  C7  UNL     1      33.157  45.336  37.228  1.00  0.00     0.035 C 
BRANCH   4   6
HETATM    6  C5  UNL     1      32.811  44.418  34.956  1.00  0.00     0.233 C 
BRANCH   6   7
HETATM    7  C4  UNL     1      33.543  44.560  33.646  1.00  0.00     0.263 C 
HETATM    8  N3  UNL     1      34.306  43.469  33.177  1.00  0.00    -0.235 N 
ATOM      9  H3  UNL     1      34.356  42.610  33.727  1.00  0.00     0.183 HD
HETATM   10  O5  UNL     1      33.480  45.609  32.991  1.00  0.00    -0.270 OA
BRANCH   8  11
HETATM   11  S1  UNL     1      35.144  43.579  31.695  1.00  0.00     0.328 S 
HETATM   12  O3  UNL     1      35.971  42.362  31.388  1.00  0.00    -0.182 OA
HETATM   13  O4  UNL     1      34.124  43.666  30.570  1.00  0.00    -0.182 OA
BRANCH  11  14
HETATM   14  N2  UNL     1      36.110  44.999  31.612  1.00  0.00    -0.232 N 
HETATM   15  C3  UNL     1      37.011  45.408  32.648  1.00  0.00     0.280 C 
HETATM   16  O2  UNL     1      37.148  44.733  33.701  1.00  0.00    -0.265 OA
ATOM     17  H2  UNL     1      36.039  45.583  30.778  1.00  0.00     0.183 HD
BRANCH  15  18
HETATM   18  C2  UNL     1      37.800  46.626  32.506  1.00  0.00     0.096 C 
HETATM   19  C1  UNL     1      38.963  46.642  31.601  1.00  0.00     0.076 C 
HETATM   20  N1  UNL     1      37.487  47.682  33.160  1.00  0.00    -0.268 N 
ATOM     21  H1  UNL     1      36.685  47.679  33.789  1.00  0.00     0.194 HD
BRANCH  20  22
HETATM   22  O1  UNL     1      38.239  48.813  33.005  1.00  0.00    -0.290 OA
ATOM     23  H1  UNL     1      37.900  49.644  33.317  1.00  0.00     0.244 HD
ENDBRANCH  20  22
ENDBRANCH  15  18
ENDBRANCH  11  14
ENDBRANCH   8  11
ENDBRANCH   6   7
BRANCH   6  24
HETATM   24  O6  UNL     1      31.441  44.210  34.697  1.00  0.00    -0.384 OA
ATOM     25  H6  UNL     1      30.928  44.745  35.293  1.00  0.00     0.210 HD
ENDBRANCH   6  24
ENDBRANCH   4   6
ENDBRANCH   2   4
ENDBRANCH   1   2
BRANCH   1  26
HETATM   26  N5  UNL     1      32.600  48.432  34.730  1.00  0.00    -0.253 NA
BRANCH  26  27
HETATM   27  O7  UNL     1      33.557  49.155  34.340  1.00  0.00    -0.122 OA
BRANCH  27  28
HETATM   28  C9  UNL     1      33.755  50.315  33.655  1.00  0.00     0.325 C 
HETATM   29  O8  UNL     1      33.237  51.355  34.183  1.00  0.00    -0.259 OA
BRANCH  28  30
HETATM   30  C10 UNL     1      34.487  50.479  32.400  1.00  0.00     0.237 C 
HETATM   31  C11 UNL     1      34.154  51.746  31.638  1.00  0.00     0.104 C 
HETATM   32  C12 UNL     1      35.403  51.885  30.808  1.00  0.00     0.065 A 
HETATM   33  C13 UNL     1      36.400  51.134  31.394  1.00  0.00     0.111 A 
HETATM   34  N7  UNL     1      35.904  52.475  29.704  1.00  0.00    -0.298 N 
HETATM   35  C14 UNL     1      37.515  51.298  30.598  1.00  0.00     0.146 A 
HETATM   36  O9  UNL     1      35.900  50.507  32.555  1.00  0.00    -0.332 OA
HETATM   37  N6  UNL     1      37.171  52.106  29.601  1.00  0.00    -0.307 N 
ATOM     38  H6  UNL     1      37.801  52.403  28.855  1.00  0.00     0.186 HD
HETATM   39  C15 UNL     1      35.158  53.363  28.797  1.00  0.00     0.177 C 
ENDBRANCH  28  30
ENDBRANCH  27  28
ENDBRANCH  26  27
ENDBRANCH   1  26
BRANCH   1  40
HETATM   40  C16 UNL     1      30.509  47.735  33.899  1.00  0.00     0.030 A 
HETATM   41  C17 UNL     1      29.501  46.829  33.834  1.00  0.00     0.056 A 
HETATM   42  C18 UNL     1      28.405  47.043  33.031  1.00  0.00     0.102 A 
HETATM   43  C19 UNL     1      28.272  48.173  32.263  1.00  0.00     0.134 A 
HETATM   44  C20 UNL     1      29.278  49.124  32.300  1.00  0.00     0.129 A 
HETATM   45  C21 UNL     1      30.361  48.877  33.113  1.00  0.00     0.057 A 
BRANCH  42  46
HETATM   46  O10 UNL     1      27.355  46.112  32.957  1.00  0.00    -0.358 OA
ATOM     47  H10 UNL     1      26.570  46.206  33.484  1.00  0.00     0.217 HD
ENDBRANCH  42  46
BRANCH  43  48
HETATM   48  O11 UNL     1      27.151  48.387  31.448  1.00  0.00    -0.356 OA
ATOM     49  H11 UNL     1      27.007  49.212  30.999  1.00  0.00     0.218 HD
ENDBRANCH  43  48
BRANCH  44  50
HETATM   50  O12 UNL     1      29.177  50.281  31.538  1.00  0.00    -0.211 OA
BRANCH  50  51
HETATM   51  S2  UNL     1      29.725  50.271  29.938  1.00  0.00     0.257 S 
HETATM   52  O13 UNL     1      29.150  49.093  29.197  1.00  0.00    -0.572 OA
HETATM   53  O14 UNL     1      29.327  51.570  29.247  1.00  0.00    -0.572 OA
HETATM   54  O15 UNL     1      31.402  50.208  29.934  1.00  0.00    -0.572 OA
ENDBRANCH  50  51
ENDBRANCH  44  50
ENDBRANCH   1  40
TORSDOF 18
ENDMDL
MODEL 5
REMARK VINA RESULT: -9.140879546      2.092      5.099
REMARK  18 active torsions:
REMARK  status: ('A' for Active; 'I' for Inactive)
REMARK    1  A    between atoms: C2_2  and  C3_7 
REMARK    2  A    between atoms: N1_3  and  O1_5 
REMARK       I    between atoms: C3_7  and  N2_9 
REMARK    3  A    between atoms: N2_9  and  S1_11 
REMARK    4  A    between atoms: S1_11  and  N3_14 
REMARK       I    between atoms: N3_14  and  C4_16 
REMARK    5  A    between atoms: C4_16  and  C5_18 
REMARK    6  A    between atoms: C5_18  and  O6_19 
REMARK    7  A    between atoms: C5_18  and  C6_21 
REMARK    8  A    between atoms: C6_21  and  N4_23 
REMARK    9  A    between atoms: N4_23  and  C8_25 
REMARK   10  A    between atoms: C8_25  and  N5_26 
REMARK   11  A    between atoms: C8_25  and  C16_40 
REMARK   12  A    between atoms: N5_26  and  O7_27 
REMARK   13  A    between atoms: O7_27  and  C9_28 
REMARK   14  A    between atoms: C9_28  and  C10_30 
REMARK   15  A    between atoms: C18_42  and  O10_43 
REMARK   16  A    between atoms: C19_45  and  O11_46 
REMARK   17  A    between atoms: C20_48  and  O12_49 
REMARK   18  A    between atoms: O12_49  and  S2_50 
ROOT
HETATM    1  C8  UNL     1      29.529  48.026  34.587  1.00  0.00     0.219 C 
ENDROOT
BRANCH   1   2
HETATM    2  N4  UNL     1      30.896  48.252  34.923  1.00  0.00    -0.355 N 
ATOM      3  H4  UNL     1      31.214  49.215  35.033  1.00  0.00     0.162 HD
BRANCH   2   4
HETATM    4  C6  UNL     1      31.857  47.186  35.119  1.00  0.00     0.118 C 
HETATM    5  C7  UNL     1      31.675  46.085  34.093  1.00  0.00     0.035 C 
BRANCH   4   6
HETATM    6  C5  UNL     1      33.254  47.771  34.984  1.00  0.00     0.233 C 
BRANCH   6   7
HETATM    7  C4  UNL     1      33.217  48.986  34.093  1.00  0.00     0.263 C 
HETATM    8  N3  UNL     1      33.154  48.798  32.696  1.00  0.00    -0.235 N 
ATOM      9  H3  UNL     1      33.140  47.853  32.311  1.00  0.00     0.183 HD
HETATM   10  O5  UNL     1      33.242  50.128  34.573  1.00  0.00    -0.270 OA
BRANCH   8  11
HETATM   11  S1  UNL     1      33.100  50.144  31.649  1.00  0.00     0.328 S 
HETATM   12  O3  UNL     1      32.612  49.803  30.268  1.00  0.00    -0.182 OA
HETATM   13  O4  UNL     1      32.091  51.141  32.197  1.00  0.00    -0.182 OA
BRANCH  11  14
HETATM   14  N2  UNL     1      34.617  50.951  31.568  1.00  0.00    -0.232 N 
HETATM   15  C3  UNL     1      34.921  51.975  30.614  1.00  0.00     0.280 C 
HETATM   16  O2  UNL     1      34.074  52.350  29.762  1.00  0.00    -0.265 OA
ATOM     17  H2  UNL     1      35.340  50.686  32.237  1.00  0.00     0.183 HD
BRANCH  15  18
HETATM   18  C2  UNL     1      36.231  52.616  30.607  1.00  0.00     0.096 C 
HETATM   19  C1  UNL     1      37.371  51.940  29.964  1.00  0.00     0.076 C 
HETATM   20  N1  UNL     1      36.395  53.763  31.153  1.00  0.00    -0.268 N 
ATOM     21  H1  UNL     1      35.612  54.236  31.601  1.00  0.00     0.194 HD
BRANCH  20  22
HETATM   22  O1  UNL     1      37.632  54.345  31.127  1.00  0.00    -0.290 OA
ATOM     23  H1  UNL     1      38.003  54.613  30.294  1.00  0.00     0.244 HD
ENDBRANCH  20  22
ENDBRANCH  15  18
ENDBRANCH  11  14
ENDBRANCH   8  11
ENDBRANCH   6   7
BRANCH   6  24
HETATM   24  O6  UNL     1      34.088  46.796  34.399  1.00  0.00    -0.384 OA
ATOM     25  H6  UNL     1      33.646  45.955  34.423  1.00  0.00     0.210 HD
ENDBRANCH   6  24
ENDBRANCH   4   6
ENDBRANCH   2   4
ENDBRANCH   1   2
BRANCH   1  26
HETATM   26  N5  UNL     1      28.837  47.355  35.307  1.00  0.00    -0.253 NA
BRANCH  26  27
HETATM   27  O7  UNL     1      27.934  46.567  35.700  1.00  0.00    -0.122 OA
BRANCH  27  28
HETATM   28  C9  UNL     1      26.834  45.937  35.204  1.00  0.00     0.325 C 
HETATM   29  O8  UNL     1      25.733  46.221  35.784  1.00  0.00    -0.259 OA
BRANCH  28  30
HETATM   30  C10 UNL     1      26.794  44.985  34.095  1.00  0.00     0.237 C 
HETATM   31  C11 UNL     1      27.898  43.947  34.115  1.00  0.00     0.104 C 
HETATM   32  C12 UNL     1      27.258  42.871  33.278  1.00  0.00     0.065 A 
HETATM   33  C13 UNL     1      25.897  43.089  33.256  1.00  0.00     0.111 A 
HETATM   34  N7  UNL     1      27.527  41.773  32.543  1.00  0.00    -0.298 N 
HETATM   35  C14 UNL     1      25.363  42.080  32.481  1.00  0.00     0.146 A 
HETATM   36  O9  UNL     1      25.588  44.234  34.022  1.00  0.00    -0.332 OA
HETATM   37  N6  UNL     1      26.374  41.319  32.077  1.00  0.00    -0.307 N 
ATOM     38  H6  UNL     1      26.275  40.494  31.485  1.00  0.00     0.186 HD
HETATM   39  C15 UNL     1      28.866  41.204  32.317  1.00  0.00     0.177 C 
ENDBRANCH  28  30
ENDBRANCH  27  28
ENDBRANCH  26  27
ENDBRANCH   1  26
BRANCH   1  40
HETATM   40  C16 UNL     1      29.076  48.636  33.345  1.00  0.00     0.030 A 
HETATM   41  C17 UNL     1      29.727  48.601  32.155  1.00  0.00     0.056 A 
HETATM   42  C18 UNL     1      29.192  49.196  31.036  1.00  0.00     0.102 A 
HETATM   43  C19 UNL     1      27.984  49.848  31.063  1.00  0.00     0.134 A 
HETATM   44  C20 UNL     1      27.287  49.908  32.257  1.00  0.00     0.129 A 
HETATM   45  C21 UNL     1      27.851  49.303  33.357  1.00  0.00     0.057 A 
BRANCH  42  46
HETATM   46  O10 UNL     1      29.857  49.164  29.798  1.00  0.00    -0.358 OA
ATOM     47  H10 UNL     1      30.046  48.343  29.358  1.00  0.00     0.217 HD
ENDBRANCH  42  46
BRANCH  43  48
HETATM   48  O11 UNL     1      27.443  50.451  29.917  1.00  0.00    -0.356 OA
ATOM     49  H11 UNL     1      26.607  50.903  29.936  1.00  0.00     0.218 HD
ENDBRANCH  43  48
BRANCH  44  50
HETATM   50  O12 UNL     1      26.061  50.557  32.321  1.00  0.00    -0.211 OA
BRANCH  50  51
HETATM   51  S2  UNL     1      26.021  52.238  32.510  1.00  0.00     0.257 S 
HETATM   52  O13 UNL     1      24.630  52.689  32.869  1.00  0.00    -0.572 OA
HETATM   53  O14 UNL     1      27.005  52.659  33.595  1.00  0.00    -0.572 OA
HETATM   54  O15 UNL     1      26.525  52.961  31.082  1.00  0.00    -0.572 OA
ENDBRANCH  50  51
ENDBRANCH  44  50
ENDBRANCH   1  40
TORSDOF 18
ENDMDL
