MODEL 1
REMARK VINA RESULT: -7.245997342      0.000      0.000
REMARK  14 active torsions:
REMARK  status: ('A' for Active; 'I' for Inactive)
REMARK    1  A    between atoms: O1_2  and  C2_3 
REMARK       I    between atoms: C2_3  and  N1_5 
REMARK    2  A    between atoms: N1_5  and  C3_7 
REMARK    3  A    between atoms: C3_7  and  C4_8 
REMARK    4  A    between atoms: N2_10  and  C5_11 
REMARK    5  A    between atoms: C5_11  and  C6_12 
REMARK    6  A    between atoms: N5_17  and  C7_18 
REMARK    7  A    between atoms: N7_24  and  C9_25 
REMARK    8  A    between atoms: C12_28  and  N8_29 
REMARK    9  A    between atoms: N8_29  and  C13_30 
REMARK   10  A    between atoms: C13_30  and  O5_32 
REMARK   11  A    between atoms: C15_36  and  C16_37 
REMARK   12  A    between atoms: C17_40  and  N10_41 
REMARK   13  A    between atoms: N14_52  and  C23_53 
REMARK   14  A    between atoms: C23_53  and  S1_54 
ROOT
HETATM    1  N10 UNL     1      37.428  44.222  33.742  1.00  0.00    -0.317 N 
ATOM      2  H10 UNL     1      38.118  43.832  33.101  1.00  0.00     0.172 HD
HETATM    3  C18 UNL     1      37.743  45.431  34.350  1.00  0.00     0.178 C 
HETATM    4  N11 UNL     1      38.020  46.452  34.837  1.00  0.00    -0.172 NA
ENDROOT
BRANCH   1   5
HETATM    5  C17 UNL     1      36.219  43.472  33.933  1.00  0.00     0.156 C 
HETATM    6  C10 UNL     1      35.196  44.009  32.971  1.00  0.00    -0.030 C 
HETATM    7  C9  UNL     1      34.043  44.549  33.258  1.00  0.00     0.122 C 
HETATM    8  C11 UNL     1      35.659  43.867  31.539  1.00  0.00     0.130 C 
HETATM    9  C12 UNL     1      36.047  42.467  31.281  1.00  0.00     0.159 C 
HETATM   10  N9  UNL     1      36.349  41.700  32.276  1.00  0.00    -0.352 N 
HETATM   11  C15 UNL     1      36.364  42.005  33.630  1.00  0.00     0.212 C 
ATOM     12  H9  UNL     1      36.610  40.744  32.035  1.00  0.00     0.162 HD
BRANCH   7  13
HETATM   13  N7  UNL     1      33.553  44.718  34.563  1.00  0.00    -0.142 N 
HETATM   14  C6  UNL     1      33.602  46.037  35.103  1.00  0.00     0.140 A 
HETATM   15  N3  UNL     1      33.215  46.222  36.302  1.00  0.00    -0.271 N 
HETATM   16  N4  UNL     1      32.741  45.219  37.144  1.00  0.00    -0.218 N 
ATOM     17  H3  UNL     1      33.256  47.172  36.672  1.00  0.00     0.190 HD
HETATM   18  N5  UNL     1      32.655  43.914  36.707  1.00  0.00    -0.046 N 
ATOM     19  H4  UNL     1      32.454  45.452  38.095  1.00  0.00     0.209 HD
HETATM   20  C8  UNL     1      33.078  43.629  35.347  1.00  0.00     0.708 A 
HETATM   21  N6  UNL     1      32.947  42.427  34.929  1.00  0.00    -0.232 N 
ATOM     22  H62 UNL     1      32.606  41.647  35.492  1.00  0.00     0.174 HD
ATOM     23  H61 UNL     1      33.244  42.227  33.975  1.00  0.00     0.174 HD
BRANCH  14  24
HETATM   24  C5  UNL     1      34.088  47.210  34.279  1.00  0.00     0.234 C 
BRANCH  24  25
HETATM   25  N2  UNL     1      32.897  47.667  33.541  1.00  0.00    -0.262 N 
HETATM   26  O3  UNL     1      31.684  47.322  33.973  1.00  0.00    -0.269 OA
HETATM   27  C4  UNL     1      30.749  47.529  32.967  1.00  0.00     0.197 C 
HETATM   28  C25 UNL     1      30.799  48.972  32.589  1.00  0.00     0.153 C 
HETATM   29  C20 UNL     1      32.110  49.108  31.856  1.00  0.00    -0.019 C 
HETATM   30  N14 UNL     1      29.732  49.442  31.731  1.00  0.00    -0.336 N 
HETATM   31  C19 UNL     1      33.117  48.466  32.342  1.00  0.00     0.124 C 
HETATM   32  C21 UNL     1      32.195  49.944  30.640  1.00  0.00     0.160 C 
HETATM   33  N12 UNL     1      31.015  49.736  29.800  1.00  0.00    -0.360 N 
HETATM   34  C22 UNL     1      29.849  49.504  30.348  1.00  0.00     0.188 C 
ATOM     35  H12 UNL     1      31.101  49.771  28.785  1.00  0.00     0.162 HD
HETATM   36  N13 UNL     1      28.748  49.310  29.493  1.00  0.00    -0.064 NA
BRANCH  27  37
HETATM   37  C3  UNL     1      29.420  46.957  33.276  1.00  0.00     0.161 C 
BRANCH  37  38
HETATM   38  N1  UNL     1      29.548  45.513  33.303  1.00  0.00    -0.334 N 
HETATM   39  C2  UNL     1      29.712  44.756  34.470  1.00  0.00     0.360 C 
HETATM   40  O2  UNL     1      29.773  45.206  35.640  1.00  0.00    -0.239 OA
ATOM     41  H1  UNL     1      29.516  45.015  32.413  1.00  0.00     0.164 HD
BRANCH  39  42
HETATM   42  O1  UNL     1      29.829  43.359  34.356  1.00  0.00    -0.309 OA
HETATM   43  C1  UNL     1      28.686  42.620  33.964  1.00  0.00     0.215 C 
ENDBRANCH  39  42
ENDBRANCH  37  38
ENDBRANCH  27  37
BRANCH  30  44
HETATM   44  C23 UNL     1      28.497  49.871  32.378  1.00  0.00     0.200 C 
BRANCH  44  45
HETATM   45  S1  UNL     1      28.175  51.650  32.042  1.00  0.00    -0.154 SA
HETATM   46  C24 UNL     1      26.548  52.138  32.710  1.00  0.00     0.091 C 
ENDBRANCH  44  45
ENDBRANCH  30  44
ENDBRANCH  24  25
ENDBRANCH  14  24
BRANCH  18  47
HETATM   47  C7  UNL     1      32.176  42.852  37.517  1.00  0.00     0.395 C 
HETATM   48  O4  UNL     1      30.925  42.586  37.526  1.00  0.00    -0.281 OA
ENDBRANCH  18  47
ENDBRANCH   7  13
BRANCH   9  49
HETATM   49  N8  UNL     1      36.177  41.892  29.967  1.00  0.00    -0.372 NA
BRANCH  49  50
HETATM   50  C13 UNL     1      36.286  41.386  28.816  1.00  0.00     0.187 C 
HETATM   51  C14 UNL     1      36.290  39.856  28.593  1.00  0.00     0.114 C 
BRANCH  50  52
HETATM   52  O5  UNL     1      36.402  41.971  27.654  1.00  0.00    -0.339 OA
ATOM     53  H5  UNL     1      36.747  41.634  26.836  1.00  0.00     0.220 HD
ENDBRANCH  50  52
ENDBRANCH  49  50
ENDBRANCH   9  49
BRANCH  11  54
HETATM   54  C16 UNL     1      37.445  41.369  34.425  1.00  0.00     0.199 C 
HETATM   55  O6  UNL     1      37.154  40.429  35.204  1.00  0.00    -0.646 OA
HETATM   56  O7  UNL     1      38.744  41.796  34.310  1.00  0.00    -0.646 OA
ENDBRANCH  11  54
ENDBRANCH   1   5
TORSDOF 14
ENDMDL
MODEL 2
REMARK VINA RESULT: -7.166538804      4.159      6.980
REMARK  14 active torsions:
REMARK  status: ('A' for Active; 'I' for Inactive)
REMARK    1  A    between atoms: O1_2  and  C2_3 
REMARK       I    between atoms: C2_3  and  N1_5 
REMARK    2  A    between atoms: N1_5  and  C3_7 
REMARK    3  A    between atoms: C3_7  and  C4_8 
REMARK    4  A    between atoms: N2_10  and  C5_11 
REMARK    5  A    between atoms: C5_11  and  C6_12 
REMARK    6  A    between atoms: N5_17  and  C7_18 
REMARK    7  A    between atoms: N7_24  and  C9_25 
REMARK    8  A    between atoms: C12_28  and  N8_29 
REMARK    9  A    between atoms: N8_29  and  C13_30 
REMARK   10  A    between atoms: C13_30  and  O5_32 
REMARK   11  A    between atoms: C15_36  and  C16_37 
REMARK   12  A    between atoms: C17_40  and  N10_41 
REMARK   13  A    between atoms: N14_52  and  C23_53 
REMARK   14  A    between atoms: C23_53  and  S1_54 
ROOT
HETATM    1  N10 UNL     1      27.025  39.728  34.724  1.00  0.00    -0.317 N 
ATOM      2  H10 UNL     1      26.100  39.813  34.301  1.00  0.00     0.172 HD
HETATM    3  C18 UNL     1      27.254  38.617  35.525  1.00  0.00     0.178 C 
HETATM    4  N11 UNL     1      27.431  37.670  36.181  1.00  0.00    -0.172 NA
ENDROOT
BRANCH   1   5
HETATM    5  C17 UNL     1      27.971  40.769  34.436  1.00  0.00     0.156 C 
HETATM    6  C10 UNL     1      29.301  40.115  34.185  1.00  0.00    -0.030 C 
HETATM    7  C9  UNL     1      30.411  40.294  34.848  1.00  0.00     0.122 C 
HETATM    8  C11 UNL     1      29.231  39.156  33.017  1.00  0.00     0.130 C 
HETATM    9  C12 UNL     1      28.672  39.849  31.840  1.00  0.00     0.159 C 
HETATM   10  N9  UNL     1      27.970  40.920  32.010  1.00  0.00    -0.352 N 
HETATM   11  C15 UNL     1      27.640  41.559  33.197  1.00  0.00     0.212 C 
ATOM     12  H9  UNL     1      27.610  41.352  31.160  1.00  0.00     0.162 HD
BRANCH   7  13
HETATM   13  N7  UNL     1      30.545  41.162  35.943  1.00  0.00    -0.142 N 
HETATM   14  C6  UNL     1      31.074  42.459  35.676  1.00  0.00     0.140 A 
HETATM   15  N3  UNL     1      31.259  43.256  36.650  1.00  0.00    -0.271 N 
HETATM   16  N4  UNL     1      30.981  42.957  37.983  1.00  0.00    -0.218 N 
ATOM     17  H3  UNL     1      31.638  44.180  36.442  1.00  0.00     0.190 HD
HETATM   18  N5  UNL     1      30.464  41.728  38.334  1.00  0.00    -0.046 N 
ATOM     19  H4  UNL     1      31.163  43.653  38.705  1.00  0.00     0.209 HD
HETATM   20  C8  UNL     1      30.225  40.767  37.272  1.00  0.00     0.708 A 
HETATM   21  N6  UNL     1      29.696  39.649  37.599  1.00  0.00    -0.232 N 
ATOM     22  H62 UNL     1      29.467  39.366  38.552  1.00  0.00     0.174 HD
ATOM     23  H61 UNL     1      29.528  38.974  36.853  1.00  0.00     0.174 HD
BRANCH  14  24
HETATM   24  C5  UNL     1      31.404  42.902  34.267  1.00  0.00     0.234 C 
BRANCH  24  25
HETATM   25  N2  UNL     1      30.827  44.254  34.156  1.00  0.00    -0.262 N 
HETATM   26  O3  UNL     1      31.634  45.313  34.135  1.00  0.00    -0.269 OA
HETATM   27  C4  UNL     1      30.905  46.467  34.395  1.00  0.00     0.197 C 
HETATM   28  C25 UNL     1      29.842  46.577  33.355  1.00  0.00     0.153 C 
HETATM   29  C20 UNL     1      28.869  45.482  33.715  1.00  0.00    -0.019 C 
HETATM   30  N14 UNL     1      29.130  47.836  33.303  1.00  0.00    -0.336 N 
HETATM   31  C19 UNL     1      29.374  44.359  34.099  1.00  0.00     0.124 C 
HETATM   32  C21 UNL     1      27.414  45.724  33.623  1.00  0.00     0.160 C 
HETATM   33  N12 UNL     1      27.091  47.056  34.135  1.00  0.00    -0.360 N 
HETATM   34  C22 UNL     1      27.926  48.049  33.963  1.00  0.00     0.188 C 
ATOM     35  H12 UNL     1      26.211  47.212  34.628  1.00  0.00     0.162 HD
HETATM   36  N13 UNL     1      27.565  49.309  34.476  1.00  0.00    -0.064 NA
BRANCH  27  37
HETATM   37  C3  UNL     1      31.754  47.657  34.623  1.00  0.00     0.161 C 
BRANCH  37  38
HETATM   38  N1  UNL     1      32.855  47.611  33.679  1.00  0.00    -0.334 N 
HETATM   39  C2  UNL     1      33.718  48.683  33.421  1.00  0.00     0.360 C 
HETATM   40  O2  UNL     1      33.667  49.819  33.955  1.00  0.00    -0.239 OA
ATOM     41  H1  UNL     1      33.010  46.741  33.171  1.00  0.00     0.164 HD
BRANCH  39  42
HETATM   42  O1  UNL     1      34.744  48.509  32.476  1.00  0.00    -0.309 OA
HETATM   43  C1  UNL     1      35.529  49.633  32.121  1.00  0.00     0.215 C 
ENDBRANCH  39  42
ENDBRANCH  37  38
ENDBRANCH  27  37
BRANCH  30  44
HETATM   44  C23 UNL     1      29.725  48.905  32.508  1.00  0.00     0.200 C 
BRANCH  44  45
HETATM   45  S1  UNL     1      28.721  49.225  31.000  1.00  0.00    -0.154 SA
HETATM   46  C24 UNL     1      29.758  49.961  29.691  1.00  0.00     0.091 C 
ENDBRANCH  44  45
ENDBRANCH  30  44
ENDBRANCH  24  25
ENDBRANCH  14  24
BRANCH  18  47
HETATM   47  C7  UNL     1      30.157  41.368  39.672  1.00  0.00     0.395 C 
HETATM   48  O4  UNL     1      28.955  41.486  40.093  1.00  0.00    -0.281 OA
ENDBRANCH  18  47
ENDBRANCH   7  13
BRANCH   9  49
HETATM   49  N8  UNL     1      28.803  39.378  30.486  1.00  0.00    -0.372 NA
BRANCH  49  50
HETATM   50  C13 UNL     1      28.922  38.967  29.299  1.00  0.00     0.187 C 
HETATM   51  C14 UNL     1      27.692  38.666  28.411  1.00  0.00     0.114 C 
BRANCH  50  52
HETATM   52  O5  UNL     1      30.001  38.728  28.601  1.00  0.00    -0.339 OA
ATOM     53  H5  UNL     1      30.671  39.327  28.295  1.00  0.00     0.220 HD
ENDBRANCH  50  52
ENDBRANCH  49  50
ENDBRANCH   9  49
BRANCH  11  54
HETATM   54  C16 UNL     1      26.282  42.158  33.256  1.00  0.00     0.199 C 
HETATM   55  O6  UNL     1      25.906  42.708  34.319  1.00  0.00    -0.646 OA
HETATM   56  O7  UNL     1      25.451  42.116  32.165  1.00  0.00    -0.646 OA
ENDBRANCH  11  54
ENDBRANCH   1   5
TORSDOF 14
ENDMDL
MODEL 3
REMARK VINA RESULT: -7.092881912      2.082      2.864
REMARK  14 active torsions:
REMARK  status: ('A' for Active; 'I' for Inactive)
REMARK    1  A    between atoms: O1_2  and  C2_3 
REMARK       I    between atoms: C2_3  and  N1_5 
REMARK    2  A    between atoms: N1_5  and  C3_7 
REMARK    3  A    between atoms: C3_7  and  C4_8 
REMARK    4  A    between atoms: N2_10  and  C5_11 
REMARK    5  A    between atoms: C5_11  and  C6_12 
REMARK    6  A    between atoms: N5_17  and  C7_18 
REMARK    7  A    between atoms: N7_24  and  C9_25 
REMARK    8  A    between atoms: C12_28  and  N8_29 
REMARK    9  A    between atoms: N8_29  and  C13_30 
REMARK   10  A    between atoms: C13_30  and  O5_32 
REMARK   11  A    between atoms: C15_36  and  C16_37 
REMARK   12  A    between atoms: C17_40  and  N10_41 
REMARK   13  A    between atoms: N14_52  and  C23_53 
REMARK   14  A    between atoms: C23_53  and  S1_54 
ROOT
HETATM    1  N10 UNL     1      34.715  41.519  32.652  1.00  0.00    -0.317 N 
ATOM      2  H10 UNL     1      35.420  41.240  31.971  1.00  0.00     0.172 HD
HETATM    3  C18 UNL     1      34.172  40.518  33.447  1.00  0.00     0.178 C 
HETATM    4  N11 UNL     1      33.741  39.665  34.114  1.00  0.00    -0.172 NA
ENDROOT
BRANCH   1   5
HETATM    5  C17 UNL     1      34.373  42.913  32.702  1.00  0.00     0.156 C 
HETATM    6  C10 UNL     1      35.479  43.624  33.430  1.00  0.00    -0.030 C 
HETATM    7  C9  UNL     1      35.389  44.312  34.535  1.00  0.00     0.122 C 
HETATM    8  C11 UNL     1      36.804  43.452  32.720  1.00  0.00     0.130 C 
HETATM    9  C12 UNL     1      36.663  43.850  31.306  1.00  0.00     0.159 C 
HETATM   10  N9  UNL     1      35.490  43.869  30.768  1.00  0.00    -0.352 N 
HETATM   11  C15 UNL     1      34.267  43.557  31.346  1.00  0.00     0.212 C 
ATOM     12  H9  UNL     1      35.457  44.151  29.788  1.00  0.00     0.162 HD
BRANCH   7  13
HETATM   13  N7  UNL     1      34.195  44.507  35.248  1.00  0.00    -0.142 N 
HETATM   14  C6  UNL     1      33.580  45.789  35.137  1.00  0.00     0.140 A 
HETATM   15  N3  UNL     1      32.524  46.021  35.809  1.00  0.00    -0.271 N 
HETATM   16  N4  UNL     1      31.911  45.105  36.661  1.00  0.00    -0.218 N 
ATOM     17  H3  UNL     1      32.097  46.942  35.716  1.00  0.00     0.190 HD
HETATM   18  N5  UNL     1      32.433  43.840  36.829  1.00  0.00    -0.046 N 
ATOM     19  H4  UNL     1      31.067  45.374  37.167  1.00  0.00     0.209 HD
HETATM   20  C8  UNL     1      33.638  43.505  36.090  1.00  0.00     0.708 A 
HETATM   21  N6  UNL     1      34.087  42.312  36.209  1.00  0.00    -0.232 N 
ATOM     22  H62 UNL     1      33.688  41.594  36.814  1.00  0.00     0.174 HD
ATOM     23  H61 UNL     1      34.934  42.076  35.691  1.00  0.00     0.174 HD
BRANCH  14  24
HETATM   24  C5  UNL     1      34.148  46.861  34.232  1.00  0.00     0.234 C 
BRANCH  24  25
HETATM   25  N2  UNL     1      32.981  47.400  33.513  1.00  0.00    -0.262 N 
HETATM   26  O3  UNL     1      31.753  47.077  33.917  1.00  0.00    -0.269 OA
HETATM   27  C4  UNL     1      30.835  47.372  32.918  1.00  0.00     0.197 C 
HETATM   28  C25 UNL     1      30.939  48.830  32.620  1.00  0.00     0.153 C 
HETATM   29  C20 UNL     1      32.260  48.958  31.904  1.00  0.00    -0.019 C 
HETATM   30  N14 UNL     1      29.897  49.384  31.782  1.00  0.00    -0.336 N 
HETATM   31  C19 UNL     1      33.240  48.255  32.360  1.00  0.00     0.124 C 
HETATM   32  C21 UNL     1      32.386  49.856  30.736  1.00  0.00     0.160 C 
HETATM   33  N12 UNL     1      31.206  49.736  29.879  1.00  0.00    -0.360 N 
HETATM   34  C22 UNL     1      30.028  49.517  30.405  1.00  0.00     0.188 C 
ATOM     35  H12 UNL     1      31.302  49.824  28.867  1.00  0.00     0.162 HD
HETATM   36  N13 UNL     1      28.928  49.411  29.534  1.00  0.00    -0.064 NA
BRANCH  27  37
HETATM   37  C3  UNL     1      29.483  46.832  33.187  1.00  0.00     0.161 C 
BRANCH  37  38
HETATM   38  N1  UNL     1      29.596  45.394  33.341  1.00  0.00    -0.334 N 
HETATM   39  C2  UNL     1      29.328  44.704  34.530  1.00  0.00     0.360 C 
HETATM   40  O2  UNL     1      28.961  45.218  35.616  1.00  0.00    -0.239 OA
ATOM     41  H1  UNL     1      29.889  44.850  32.530  1.00  0.00     0.164 HD
BRANCH  39  42
HETATM   42  O1  UNL     1      29.482  43.307  34.547  1.00  0.00    -0.309 OA
HETATM   43  C1  UNL     1      28.572  42.523  33.797  1.00  0.00     0.215 C 
ENDBRANCH  39  42
ENDBRANCH  37  38
ENDBRANCH  27  37
BRANCH  30  44
HETATM   44  C23 UNL     1      28.673  49.822  32.444  1.00  0.00     0.200 C 
BRANCH  44  45
HETATM   45  S1  UNL     1      28.272  51.556  31.980  1.00  0.00    -0.154 SA
HETATM   46  C24 UNL     1      26.651  52.038  32.667  1.00  0.00     0.091 C 
ENDBRANCH  44  45
ENDBRANCH  30  44
ENDBRANCH  24  25
ENDBRANCH  14  24
BRANCH  18  47
HETATM   47  C7  UNL     1      31.850  42.865  37.679  1.00  0.00     0.395 C 
HETATM   48  O4  UNL     1      30.580  42.844  37.830  1.00  0.00    -0.281 OA
ENDBRANCH  18  47
ENDBRANCH   7  13
BRANCH   9  49
HETATM   49  N8  UNL     1      37.770  44.169  30.442  1.00  0.00    -0.372 NA
BRANCH  49  50
HETATM   50  C13 UNL     1      38.741  44.451  29.687  1.00  0.00     0.187 C 
HETATM   51  C14 UNL     1      40.071  45.012  30.243  1.00  0.00     0.114 C 
BRANCH  50  52
HETATM   52  O5  UNL     1      38.852  44.341  28.390  1.00  0.00    -0.339 OA
ATOM     53  H5  UNL     1      38.297  43.883  27.770  1.00  0.00     0.220 HD
ENDBRANCH  50  52
ENDBRANCH  49  50
ENDBRANCH   9  49
BRANCH  11  54
HETATM   54  C16 UNL     1      33.292  42.863  30.466  1.00  0.00     0.199 C 
HETATM   55  O6  UNL     1      33.438  42.934  29.222  1.00  0.00    -0.646 OA
HETATM   56  O7  UNL     1      32.249  42.151  31.002  1.00  0.00    -0.646 OA
ENDBRANCH  11  54
ENDBRANCH   1   5
TORSDOF 14
ENDMDL
MODEL 4
REMARK VINA RESULT: -7.075765107      3.287      9.259
REMARK  14 active torsions:
REMARK  status: ('A' for Active; 'I' for Inactive)
REMARK    1  A    between atoms: O1_2  and  C2_3 
REMARK       I    between atoms: C2_3  and  N1_5 
REMARK    2  A    between atoms: N1_5  and  C3_7 
REMARK    3  A    between atoms: C3_7  and  C4_8 
REMARK    4  A    between atoms: N2_10  and  C5_11 
REMARK    5  A    between atoms: C5_11  and  C6_12 
REMARK    6  A    between atoms: N5_17  and  C7_18 
REMARK    7  A    between atoms: N7_24  and  C9_25 
REMARK    8  A    between atoms: C12_28  and  N8_29 
REMARK    9  A    between atoms: N8_29  and  C13_30 
REMARK   10  A    between atoms: C13_30  and  O5_32 
REMARK   11  A    between atoms: C15_36  and  C16_37 
REMARK   12  A    between atoms: C17_40  and  N10_41 
REMARK   13  A    between atoms: N14_52  and  C23_53 
REMARK   14  A    between atoms: C23_53  and  S1_54 
ROOT
HETATM    1  N10 UNL     1      29.581  49.854  32.506  1.00  0.00    -0.317 N 
ATOM      2  H10 UNL     1      29.441  50.623  33.162  1.00  0.00     0.172 HD
HETATM    3  C18 UNL     1      30.779  49.833  31.805  1.00  0.00     0.178 C 
HETATM    4  N11 UNL     1      31.797  49.825  31.237  1.00  0.00    -0.172 NA
ENDROOT
BRANCH   1   5
HETATM    5  C17 UNL     1      28.521  48.893  32.393  1.00  0.00     0.156 C 
HETATM    6  C10 UNL     1      27.815  48.839  33.719  1.00  0.00    -0.030 C 
HETATM    7  C9  UNL     1      27.681  47.807  34.507  1.00  0.00     0.122 C 
HETATM    8  C11 UNL     1      27.239  50.187  34.091  1.00  0.00     0.130 C 
HETATM    9  C12 UNL     1      26.400  50.689  32.985  1.00  0.00     0.159 C 
HETATM   10  N9  UNL     1      26.575  50.220  31.795  1.00  0.00    -0.352 N 
HETATM   11  C15 UNL     1      27.481  49.259  31.368  1.00  0.00     0.212 C 
ATOM     12  H9  UNL     1      25.967  50.606  31.073  1.00  0.00     0.162 HD
BRANCH   7  13
HETATM   13  N7  UNL     1      28.195  46.530  34.228  1.00  0.00    -0.142 N 
HETATM   14  C6  UNL     1      29.615  46.399  34.202  1.00  0.00     0.140 A 
HETATM   15  N3  UNL     1      30.119  45.269  33.902  1.00  0.00    -0.271 N 
HETATM   16  N4  UNL     1      29.380  44.130  33.591  1.00  0.00    -0.218 N 
ATOM     17  H3  UNL     1      31.136  45.192  33.890  1.00  0.00     0.190 HD
HETATM   18  N5  UNL     1      28.002  44.162  33.593  1.00  0.00    -0.046 N 
ATOM     19  H4  UNL     1      29.864  43.263  33.357  1.00  0.00     0.209 HD
HETATM   20  C8  UNL     1      27.357  45.420  33.928  1.00  0.00     0.708 A 
HETATM   21  N6  UNL     1      26.078  45.430  33.981  1.00  0.00    -0.232 N 
ATOM     22  H62 UNL     1      25.478  44.633  33.766  1.00  0.00     0.174 HD
ATOM     23  H61 UNL     1      25.625  46.313  34.216  1.00  0.00     0.174 HD
BRANCH  14  24
HETATM   24  C5  UNL     1      30.522  47.564  34.535  1.00  0.00     0.234 C 
BRANCH  24  25
HETATM   25  N2  UNL     1      31.864  46.969  34.656  1.00  0.00    -0.262 N 
HETATM   26  O3  UNL     1      32.109  46.092  35.628  1.00  0.00    -0.269 OA
HETATM   27  C4  UNL     1      33.480  45.940  35.793  1.00  0.00     0.197 C 
HETATM   28  C25 UNL     1      34.046  45.478  34.492  1.00  0.00     0.153 C 
HETATM   29  C20 UNL     1      33.951  46.693  33.604  1.00  0.00    -0.019 C 
HETATM   30  N14 UNL     1      35.420  45.026  34.521  1.00  0.00    -0.336 N 
HETATM   31  C19 UNL     1      32.877  47.401  33.700  1.00  0.00     0.124 C 
HETATM   32  C21 UNL     1      35.059  47.027  32.684  1.00  0.00     0.160 C 
HETATM   33  N12 UNL     1      36.346  46.823  33.349  1.00  0.00    -0.360 N 
HETATM   34  C22 UNL     1      36.493  45.856  34.218  1.00  0.00     0.188 C 
ATOM     35  H12 UNL     1      37.131  47.437  33.134  1.00  0.00     0.162 HD
HETATM   36  N13 UNL     1      37.753  45.706  34.828  1.00  0.00    -0.064 NA
BRANCH  27  37
HETATM   37  C3  UNL     1      33.843  45.167  37.001  1.00  0.00     0.161 C 
BRANCH  37  38
HETATM   38  N1  UNL     1      32.619  44.680  37.607  1.00  0.00    -0.334 N 
HETATM   39  C2  UNL     1      32.196  43.345  37.569  1.00  0.00     0.360 C 
HETATM   40  O2  UNL     1      32.801  42.394  37.016  1.00  0.00    -0.239 OA
ATOM     41  H1  UNL     1      32.027  45.353  38.093  1.00  0.00     0.164 HD
BRANCH  39  42
HETATM   42  O1  UNL     1      30.983  43.005  38.194  1.00  0.00    -0.309 OA
HETATM   43  C1  UNL     1      31.013  42.637  39.561  1.00  0.00     0.215 C 
ENDBRANCH  39  42
ENDBRANCH  37  38
ENDBRANCH  27  37
BRANCH  30  44
HETATM   44  C23 UNL     1      35.656  43.631  34.879  1.00  0.00     0.200 C 
BRANCH  44  45
HETATM   45  S1  UNL     1      34.915  42.508  33.626  1.00  0.00    -0.154 SA
HETATM   46  C24 UNL     1      35.319  43.083  31.941  1.00  0.00     0.091 C 
ENDBRANCH  44  45
ENDBRANCH  30  44
ENDBRANCH  24  25
ENDBRANCH  14  24
BRANCH  18  47
HETATM   47  C7  UNL     1      27.197  43.034  33.289  1.00  0.00     0.395 C 
HETATM   48  O4  UNL     1      26.426  43.070  32.269  1.00  0.00    -0.281 OA
ENDBRANCH  18  47
ENDBRANCH   7  13
BRANCH   9  49
HETATM   49  N8  UNL     1      25.418  51.733  33.124  1.00  0.00    -0.372 NA
BRANCH  49  50
HETATM   50  C13 UNL     1      24.560  52.650  33.248  1.00  0.00     0.187 C 
HETATM   51  C14 UNL     1      23.094  52.465  32.791  1.00  0.00     0.114 C 
BRANCH  50  52
HETATM   52  O5  UNL     1      24.686  53.851  33.747  1.00  0.00    -0.339 OA
ATOM     53  H5  UNL     1      25.287  54.547  33.509  1.00  0.00     0.220 HD
ENDBRANCH  50  52
ENDBRANCH  49  50
ENDBRANCH   9  49
BRANCH  11  54
HETATM   54  C16 UNL     1      28.068  49.475  30.021  1.00  0.00     0.199 C 
HETATM   55  O6  UNL     1      28.318  48.478  29.299  1.00  0.00    -0.646 OA
HETATM   56  O7  UNL     1      28.332  50.742  29.566  1.00  0.00    -0.646 OA
ENDBRANCH  11  54
ENDBRANCH   1   5
TORSDOF 14
ENDMDL
MODEL 5
REMARK VINA RESULT: -7.046815129      2.750      4.886
REMARK  14 active torsions:
REMARK  status: ('A' for Active; 'I' for Inactive)
REMARK    1  A    between atoms: O1_2  and  C2_3 
REMARK       I    between atoms: C2_3  and  N1_5 
REMARK    2  A    between atoms: N1_5  and  C3_7 
REMARK    3  A    between atoms: C3_7  and  C4_8 
REMARK    4  A    between atoms: N2_10  and  C5_11 
REMARK    5  A    between atoms: C5_11  and  C6_12 
REMARK    6  A    between atoms: N5_17  and  C7_18 
REMARK    7  A    between atoms: N7_24  and  C9_25 
REMARK    8  A    between atoms: C12_28  and  N8_29 
REMARK    9  A    between atoms: N8_29  and  C13_30 
REMARK   10  A    between atoms: C13_30  and  O5_32 
REMARK   11  A    between atoms: C15_36  and  C16_37 
REMARK   12  A    between atoms: C17_40  and  N10_41 
REMARK   13  A    between atoms: N14_52  and  C23_53 
REMARK   14  A    between atoms: C23_53  and  S1_54 
ROOT
HETATM    1  N10 UNL     1      33.709  40.737  35.672  1.00  0.00    -0.317 N 
ATOM      2  H10 UNL     1      33.138  39.894  35.607  1.00  0.00     0.172 HD
HETATM    3  C18 UNL     1      35.071  40.597  35.440  1.00  0.00     0.178 C 
HETATM    4  N11 UNL     1      36.208  40.461  35.226  1.00  0.00    -0.172 NA
ENDROOT
BRANCH   1   5
HETATM    5  C17 UNL     1      33.030  41.960  35.996  1.00  0.00     0.156 C 
HETATM    6  C10 UNL     1      32.431  42.494  34.725  1.00  0.00    -0.030 C 
HETATM    7  C9  UNL     1      32.680  43.640  34.150  1.00  0.00     0.122 C 
HETATM    8  C11 UNL     1      31.448  41.514  34.124  1.00  0.00     0.130 C 
HETATM    9  C12 UNL     1      30.452  41.126  35.141  1.00  0.00     0.159 C 
HETATM   10  N9  UNL     1      30.732  41.278  36.393  1.00  0.00    -0.352 N 
HETATM   11  C15 UNL     1      31.892  41.780  36.965  1.00  0.00     0.212 C 
ATOM     12  H9  UNL     1      30.004  40.991  37.047  1.00  0.00     0.162 HD
BRANCH   7  13
HETATM   13  N7  UNL     1      33.582  44.593  34.648  1.00  0.00    -0.142 N 
HETATM   14  C6  UNL     1      33.049  45.594  35.512  1.00  0.00     0.140 A 
HETATM   15  N3  UNL     1      33.826  46.506  35.943  1.00  0.00    -0.271 N 
HETATM   16  N4  UNL     1      35.180  46.606  35.631  1.00  0.00    -0.218 N 
ATOM     17  H3  UNL     1      33.429  47.214  36.561  1.00  0.00     0.190 HD
HETATM   18  N5  UNL     1      35.782  45.681  34.805  1.00  0.00    -0.046 N 
ATOM     19  H4  UNL     1      35.731  47.372  36.017  1.00  0.00     0.209 HD
HETATM   20  C8  UNL     1      34.956  44.609  34.277  1.00  0.00     0.708 A 
HETATM   21  N6  UNL     1      35.532  43.723  33.555  1.00  0.00    -0.232 N 
ATOM     22  H62 UNL     1      36.517  43.736  33.289  1.00  0.00     0.174 HD
ATOM     23  H61 UNL     1      34.952  42.971  33.184  1.00  0.00     0.174 HD
BRANCH  14  24
HETATM   24  C5  UNL     1      31.595  45.583  35.932  1.00  0.00     0.234 C 
BRANCH  24  25
HETATM   25  N2  UNL     1      30.897  46.342  34.878  1.00  0.00    -0.262 N 
HETATM   26  O3  UNL     1      29.573  46.245  34.767  1.00  0.00    -0.269 OA
HETATM   27  C4  UNL     1      29.168  46.723  33.527  1.00  0.00     0.197 C 
HETATM   28  C25 UNL     1      29.617  48.141  33.418  1.00  0.00     0.153 C 
HETATM   29  C20 UNL     1      31.114  48.035  33.259  1.00  0.00    -0.019 C 
HETATM   30  N14 UNL     1      29.081  48.894  32.304  1.00  0.00    -0.336 N 
HETATM   31  C19 UNL     1      31.714  47.154  33.985  1.00  0.00     0.124 C 
HETATM   32  C21 UNL     1      31.822  48.915  32.306  1.00  0.00     0.160 C 
HETATM   33  N12 UNL     1      31.057  49.031  31.064  1.00  0.00    -0.360 N 
HETATM   34  C22 UNL     1      29.748  49.025  31.092  1.00  0.00     0.188 C 
ATOM     35  H12 UNL     1      31.545  49.118  30.172  1.00  0.00     0.162 HD
HETATM   36  N13 UNL     1      29.063  49.140  29.868  1.00  0.00    -0.064 NA
BRANCH  27  37
HETATM   37  C3  UNL     1      27.748  46.438  33.225  1.00  0.00     0.161 C 
BRANCH  37  38
HETATM   38  N1  UNL     1      27.569  44.999  33.219  1.00  0.00    -0.334 N 
HETATM   39  C2  UNL     1      26.441  44.341  33.725  1.00  0.00     0.360 C 
HETATM   40  O2  UNL     1      25.440  44.888  34.250  1.00  0.00    -0.239 OA
ATOM     41  H1  UNL     1      28.314  44.428  32.820  1.00  0.00     0.164 HD
BRANCH  39  42
HETATM   42  O1  UNL     1      26.395  42.937  33.663  1.00  0.00    -0.309 OA
HETATM   43  C1  UNL     1      25.760  42.336  32.549  1.00  0.00     0.215 C 
ENDBRANCH  39  42
ENDBRANCH  37  38
ENDBRANCH  27  37
BRANCH  30  44
HETATM   44  C23 UNL     1      27.787  49.539  32.498  1.00  0.00     0.200 C 
BRANCH  44  45
HETATM   45  S1  UNL     1      27.973  51.369  32.510  1.00  0.00    -0.154 SA
HETATM   46  C24 UNL     1      27.390  52.077  30.932  1.00  0.00     0.091 C 
ENDBRANCH  44  45
ENDBRANCH  30  44
ENDBRANCH  24  25
ENDBRANCH  14  24
BRANCH  18  47
HETATM   47  C7  UNL     1      37.157  45.728  34.456  1.00  0.00     0.395 C 
HETATM   48  O4  UNL     1      37.983  44.958  35.057  1.00  0.00    -0.281 OA
ENDBRANCH  18  47
ENDBRANCH   7  13
BRANCH   9  49
HETATM   49  N8  UNL     1      29.181  40.520  34.838  1.00  0.00    -0.372 NA
BRANCH  49  50
HETATM   50  C13 UNL     1      28.067  39.988  34.578  1.00  0.00     0.187 C 
HETATM   51  C14 UNL     1      27.933  38.828  33.564  1.00  0.00     0.114 C 
BRANCH  50  52
HETATM   52  O5  UNL     1      26.880  40.254  35.057  1.00  0.00    -0.339 OA
ATOM     53  H5  UNL     1      26.421  39.866  35.792  1.00  0.00     0.220 HD
ENDBRANCH  50  52
ENDBRANCH  49  50
ENDBRANCH   9  49
BRANCH  11  54
HETATM   54  C16 UNL     1      32.325  41.131  38.229  1.00  0.00     0.199 C 
HETATM   55  O6  UNL     1      33.415  41.476  38.747  1.00  0.00    -0.646 OA
HETATM   56  O7  UNL     1      31.546  40.173  38.827  1.00  0.00    -0.646 OA
ENDBRANCH  11  54
ENDBRANCH   1   5
TORSDOF 14
ENDMDL
