MODEL 1
REMARK VINA RESULT: -7.911495367      0.000      0.000
REMARK  20 active torsions:
REMARK  status: ('A' for Active; 'I' for Inactive)
REMARK    1  A    between atoms: O1_2  and  C2_3 
REMARK    2  A    between atoms: C2_3  and  O2_4 
REMARK    3  A    between atoms: O2_4  and  C3_5 
REMARK    4  A    between atoms: C4_7  and  N1_8 
REMARK    5  A    between atoms: C5_11  and  O6_12 
REMARK    6  A    between atoms: C5_11  and  O7_14 
REMARK    7  A    between atoms: O7_14  and  C6_15 
REMARK    8  A    between atoms: C7_16  and  C8_17 
REMARK    9  A    between atoms: C10_23  and  N3_24 
REMARK   10  A    between atoms: N3_24  and  C11_26 
REMARK   11  A    between atoms: C11_26  and  O11_27 
REMARK   12  A    between atoms: C11_26  and  C12_29 
REMARK   13  A    between atoms: C12_29  and  N4_30 
REMARK   14  A    between atoms: C12_29  and  C17_37 
REMARK   15  A    between atoms: N4_30  and  O12_32 
REMARK   16  A    between atoms: O12_32  and  C13_33 
REMARK   17  A    between atoms: C19_40  and  N5_41 
REMARK   18  A    between atoms: C22_49  and  O13_50 
REMARK   19  A    between atoms: C22_49  and  C23_52 
REMARK   20  A    between atoms: C23_52  and  O14_53 
ROOT
HETATM    1  C6  UNL     1      30.925  49.292  33.473  1.00  0.00     0.093 C 
HETATM    2  C7  UNL     1      30.632  49.876  32.274  1.00  0.00     0.146 C 
HETATM    3  N2  UNL     1      31.629  50.576  31.530  1.00  0.00    -0.291 N 
HETATM    4  C9  UNL     1      31.920  51.844  30.928  1.00  0.00     0.251 C 
HETATM    5  O10 UNL     1      31.369  52.894  30.547  1.00  0.00    -0.271 OA
HETATM    6  C10 UNL     1      33.359  51.392  30.916  1.00  0.00     0.210 C 
HETATM    7  C20 UNL     1      32.918  49.985  31.129  1.00  0.00     0.187 C 
HETATM    8  S2  UNL     1      33.528  49.115  32.571  1.00  0.00    -0.134 SA
HETATM    9  C21 UNL     1      32.319  49.484  33.908  1.00  0.00     0.143 C 
ENDROOT
BRANCH   6  10
HETATM   10  N3  UNL     1      34.044  51.667  29.655  1.00  0.00    -0.353 N 
ATOM     11  H3  UNL     1      33.966  50.985  28.899  1.00  0.00     0.162 HD
BRANCH  10  12
HETATM   12  C11 UNL     1      34.803  52.824  29.436  1.00  0.00     0.168 C 
BRANCH  12  13
HETATM   13  O11 UNL     1      34.059  53.819  29.006  1.00  0.00    -0.344 OA
ATOM     14  H11 UNL     1      33.839  53.722  28.087  1.00  0.00     0.219 HD
ENDBRANCH  12  13
BRANCH  12  15
HETATM   15  C12 UNL     1      36.171  53.128  29.585  1.00  0.00     0.132 C 
BRANCH  15  16
HETATM   16  N4  UNL     1      36.985  52.095  29.746  1.00  0.00    -0.259 N 
ATOM     17  H4  UNL     1      37.904  52.167  29.309  1.00  0.00     0.194 HD
BRANCH  16  18
HETATM   18  O12 UNL     1      36.730  50.973  30.417  1.00  0.00    -0.270 OA
BRANCH  18  19
HETATM   19  C13 UNL     1      37.584  50.357  31.362  1.00  0.00     0.078 C 
HETATM   20  C14 UNL     1      39.028  50.365  30.931  1.00  0.00     0.048 C 
HETATM   21  C15 UNL     1      37.203  48.897  31.593  1.00  0.00     0.048 C 
HETATM   22  C16 UNL     1      37.506  51.049  32.706  1.00  0.00     0.048 C 
ENDBRANCH  18  19
ENDBRANCH  16  18
ENDBRANCH  15  16
BRANCH  15  23
HETATM   23  C17 UNL     1      36.818  54.480  29.618  1.00  0.00     0.074 A 
HETATM   24  C18 UNL     1      37.948  54.737  30.332  1.00  0.00     0.085 A 
HETATM   25  S1  UNL     1      38.284  56.384  29.927  1.00  0.00    -0.064 SA
HETATM   26  C19 UNL     1      36.979  56.638  28.888  1.00  0.00     0.142 A 
HETATM   27  N6  UNL     1      36.339  55.477  28.883  1.00  0.00    -0.335 N 
ATOM     28  H6  UNL     1      35.495  55.352  28.325  1.00  0.00     0.168 HD
BRANCH  26  29
HETATM   29  N5  UNL     1      36.633  57.727  28.210  1.00  0.00    -0.380 N 
ATOM     30  H52 UNL     1      37.270  58.389  27.767  1.00  0.00     0.158 HD
ATOM     31  H51 UNL     1      35.706  58.102  28.009  1.00  0.00     0.158 HD
ENDBRANCH  26  29
ENDBRANCH  15  23
ENDBRANCH  12  15
ENDBRANCH  10  12
ENDBRANCH   6  10
BRANCH   2  32
HETATM   32  C8  UNL     1      29.304  49.796  31.696  1.00  0.00     0.229 C 
HETATM   33  O8  UNL     1      28.409  50.642  31.932  1.00  0.00    -0.643 OA
HETATM   34  O9  UNL     1      28.975  48.772  30.849  1.00  0.00    -0.643 OA
ENDBRANCH   2  32
BRANCH   1  35
HETATM   35  O7  UNL     1      29.939  48.625  34.117  1.00  0.00    -0.307 OA
BRANCH  35  36
HETATM   36  C5  UNL     1      29.505  47.315  34.112  1.00  0.00     0.257 C 
HETATM   37  C4  UNL     1      29.704  46.713  35.498  1.00  0.00     0.360 C 
HETATM   38  O3  UNL     1      28.683  45.825  35.752  1.00  0.00    -0.322 OA
HETATM   39  C3  UNL     1      27.917  45.705  34.632  1.00  0.00     0.307 C 
HETATM   40  C22 UNL     1      28.026  47.079  33.937  1.00  0.00     0.190 C 
BRANCH  37  41
HETATM   41  N1  UNL     1      30.929  45.936  35.589  1.00  0.00    -0.118 N 
HETATM   42  O4  UNL     1      32.020  46.519  35.593  1.00  0.00    -0.534 OA
HETATM   43  O5  UNL     1      30.899  44.574  35.686  1.00  0.00    -0.534 OA
ENDBRANCH  37  41
BRANCH  39  44
HETATM   44  O2  UNL     1      28.463  44.774  33.771  1.00  0.00    -0.334 OA
BRANCH  44  45
HETATM   45  C2  UNL     1      27.692  43.616  33.692  1.00  0.00     0.340 C 
BRANCH  45  46
HETATM   46  O1  UNL     1      26.554  43.875  32.960  1.00  0.00    -0.372 OA
HETATM   47  C1  UNL     1      25.764  42.735  32.922  1.00  0.00     0.204 C 
ENDBRANCH  45  46
ENDBRANCH  44  45
ENDBRANCH  39  44
BRANCH  40  48
HETATM   48  O13 UNL     1      27.614  46.858  32.647  1.00  0.00    -0.378 OA
ATOM     49  H13 UNL     1      28.394  46.573  32.186  1.00  0.00     0.211 HD
ENDBRANCH  40  48
BRANCH  40  50
HETATM   50  C23 UNL     1      27.185  48.007  34.751  1.00  0.00     0.213 C 
BRANCH  50  51
HETATM   51  O14 UNL     1      26.848  49.157  34.038  1.00  0.00    -0.398 OA
ATOM     52  H14 UNL     1      25.931  49.381  34.147  1.00  0.00     0.209 HD
ENDBRANCH  50  51
ENDBRANCH  40  50
BRANCH  36  53
HETATM   53  O6  UNL     1      30.235  46.508  33.222  1.00  0.00    -0.359 OA
ATOM     54  H6  UNL     1      31.140  46.788  33.289  1.00  0.00     0.213 HD
ENDBRANCH  36  53
ENDBRANCH  35  36
ENDBRANCH   1  35
TORSDOF 20
ENDMDL
MODEL 2
REMARK VINA RESULT: -7.752306252      0.844      1.187
REMARK  20 active torsions:
REMARK  status: ('A' for Active; 'I' for Inactive)
REMARK    1  A    between atoms: O1_2  and  C2_3 
REMARK    2  A    between atoms: C2_3  and  O2_4 
REMARK    3  A    between atoms: O2_4  and  C3_5 
REMARK    4  A    between atoms: C4_7  and  N1_8 
REMARK    5  A    between atoms: C5_11  and  O6_12 
REMARK    6  A    between atoms: C5_11  and  O7_14 
REMARK    7  A    between atoms: O7_14  and  C6_15 
REMARK    8  A    between atoms: C7_16  and  C8_17 
REMARK    9  A    between atoms: C10_23  and  N3_24 
REMARK   10  A    between atoms: N3_24  and  C11_26 
REMARK   11  A    between atoms: C11_26  and  O11_27 
REMARK   12  A    between atoms: C11_26  and  C12_29 
REMARK   13  A    between atoms: C12_29  and  N4_30 
REMARK   14  A    between atoms: C12_29  and  C17_37 
REMARK   15  A    between atoms: N4_30  and  O12_32 
REMARK   16  A    between atoms: O12_32  and  C13_33 
REMARK   17  A    between atoms: C19_40  and  N5_41 
REMARK   18  A    between atoms: C22_49  and  O13_50 
REMARK   19  A    between atoms: C22_49  and  C23_52 
REMARK   20  A    between atoms: C23_52  and  O14_53 
ROOT
HETATM    1  C6  UNL     1      30.878  49.068  33.471  1.00  0.00     0.093 C 
HETATM    2  C7  UNL     1      30.561  49.675  32.289  1.00  0.00     0.146 C 
HETATM    3  N2  UNL     1      31.536  50.407  31.549  1.00  0.00    -0.291 N 
HETATM    4  C9  UNL     1      31.800  51.693  30.973  1.00  0.00     0.251 C 
HETATM    5  O10 UNL     1      31.229  52.743  30.624  1.00  0.00    -0.271 OA
HETATM    6  C10 UNL     1      33.246  51.263  30.931  1.00  0.00     0.210 C 
HETATM    7  C20 UNL     1      32.829  49.845  31.118  1.00  0.00     0.187 C 
HETATM    8  S2  UNL     1      33.471  48.952  32.531  1.00  0.00    -0.134 SA
HETATM    9  C21 UNL     1      32.275  49.271  33.891  1.00  0.00     0.143 C 
ENDROOT
BRANCH   6  10
HETATM   10  N3  UNL     1      33.910  51.578  29.668  1.00  0.00    -0.353 N 
ATOM     11  H3  UNL     1      33.801  50.931  28.886  1.00  0.00     0.162 HD
BRANCH  10  12
HETATM   12  C11 UNL     1      34.690  52.726  29.482  1.00  0.00     0.168 C 
BRANCH  12  13
HETATM   13  O11 UNL     1      33.948  53.781  29.224  1.00  0.00    -0.344 OA
ATOM     14  H11 UNL     1      34.400  54.589  29.438  1.00  0.00     0.219 HD
ENDBRANCH  12  13
BRANCH  12  15
HETATM   15  C12 UNL     1      36.077  52.973  29.520  1.00  0.00     0.132 C 
BRANCH  15  16
HETATM   16  N4  UNL     1      36.851  51.921  29.744  1.00  0.00    -0.259 N 
ATOM     17  H4  UNL     1      37.738  51.893  29.241  1.00  0.00     0.194 HD
BRANCH  16  18
HETATM   18  O12 UNL     1      36.594  50.896  30.555  1.00  0.00    -0.270 OA
BRANCH  18  19
HETATM   19  C13 UNL     1      37.506  50.300  31.457  1.00  0.00     0.078 C 
HETATM   20  C14 UNL     1      37.504  50.966  32.809  1.00  0.00     0.048 C 
HETATM   21  C15 UNL     1      38.938  50.372  30.934  1.00  0.00     0.048 C 
HETATM   22  C16 UNL     1      37.190  48.836  31.670  1.00  0.00     0.048 C 
ENDBRANCH  18  19
ENDBRANCH  16  18
ENDBRANCH  15  16
BRANCH  15  23
HETATM   23  C17 UNL     1      36.786  54.285  29.373  1.00  0.00     0.074 A 
HETATM   24  C18 UNL     1      37.024  54.862  28.164  1.00  0.00     0.085 A 
HETATM   25  S1  UNL     1      37.760  56.364  28.599  1.00  0.00    -0.064 SA
HETATM   26  C19 UNL     1      37.722  56.164  30.275  1.00  0.00     0.142 A 
HETATM   27  N6  UNL     1      37.157  54.977  30.445  1.00  0.00    -0.335 N 
ATOM     28  H6  UNL     1      37.010  54.602  31.382  1.00  0.00     0.168 HD
BRANCH  26  29
HETATM   29  N5  UNL     1      38.145  56.976  31.237  1.00  0.00    -0.380 N 
ATOM     30  H52 UNL     1      39.115  57.137  31.506  1.00  0.00     0.158 HD
ATOM     31  H51 UNL     1      37.610  57.573  31.867  1.00  0.00     0.158 HD
ENDBRANCH  26  29
ENDBRANCH  15  23
ENDBRANCH  12  15
ENDBRANCH  10  12
ENDBRANCH   6  10
BRANCH   2  32
HETATM   32  C8  UNL     1      29.226  49.588  31.727  1.00  0.00     0.229 C 
HETATM   33  O8  UNL     1      28.889  48.696  30.912  1.00  0.00    -0.643 OA
HETATM   34  O9  UNL     1      28.265  50.497  32.076  1.00  0.00    -0.643 OA
ENDBRANCH   2  32
BRANCH   1  35
HETATM   35  O7  UNL     1      29.910  48.371  34.111  1.00  0.00    -0.307 OA
BRANCH  35  36
HETATM   36  C5  UNL     1      29.481  47.061  34.064  1.00  0.00     0.257 C 
HETATM   37  C4  UNL     1      29.774  46.385  35.398  1.00  0.00     0.360 C 
HETATM   38  O3  UNL     1      28.775  45.478  35.672  1.00  0.00    -0.322 OA
HETATM   39  C3  UNL     1      27.935  45.415  34.601  1.00  0.00     0.307 C 
HETATM   40  C22 UNL     1      27.994  46.826  33.976  1.00  0.00     0.190 C 
BRANCH  37  41
HETATM   41  N1  UNL     1      31.004  45.612  35.365  1.00  0.00    -0.118 N 
HETATM   42  O4  UNL     1      32.092  46.200  35.365  1.00  0.00    -0.534 OA
HETATM   43  O5  UNL     1      30.983  44.247  35.348  1.00  0.00    -0.534 OA
ENDBRANCH  37  41
BRANCH  39  44
HETATM   44  O2  UNL     1      28.425  44.535  33.655  1.00  0.00    -0.334 OA
BRANCH  44  45
HETATM   45  C2  UNL     1      27.652  43.380  33.563  1.00  0.00     0.340 C 
BRANCH  45  46
HETATM   46  O1  UNL     1      26.479  43.668  32.899  1.00  0.00    -0.372 OA
HETATM   47  C1  UNL     1      25.952  42.498  32.371  1.00  0.00     0.204 C 
ENDBRANCH  45  46
ENDBRANCH  44  45
ENDBRANCH  39  44
BRANCH  40  48
HETATM   48  O13 UNL     1      27.497  46.672  32.706  1.00  0.00    -0.378 OA
ATOM     49  H13 UNL     1      26.620  46.326  32.826  1.00  0.00     0.211 HD
ENDBRANCH  40  48
BRANCH  40  50
HETATM   50  C23 UNL     1      27.208  47.702  34.894  1.00  0.00     0.213 C 
BRANCH  50  51
HETATM   51  O14 UNL     1      26.119  47.026  35.445  1.00  0.00    -0.398 OA
ATOM     52  H14 UNL     1      26.329  46.658  36.295  1.00  0.00     0.209 HD
ENDBRANCH  50  51
ENDBRANCH  40  50
BRANCH  36  53
HETATM   53  O6  UNL     1      30.151  46.308  33.084  1.00  0.00    -0.359 OA
ATOM     54  H6  UNL     1      29.481  45.832  32.608  1.00  0.00     0.213 HD
ENDBRANCH  36  53
ENDBRANCH  35  36
ENDBRANCH   1  35
TORSDOF 20
ENDMDL
MODEL 3
REMARK VINA RESULT: -7.680937276      1.578      3.009
REMARK  20 active torsions:
REMARK  status: ('A' for Active; 'I' for Inactive)
REMARK    1  A    between atoms: O1_2  and  C2_3 
REMARK    2  A    between atoms: C2_3  and  O2_4 
REMARK    3  A    between atoms: O2_4  and  C3_5 
REMARK    4  A    between atoms: C4_7  and  N1_8 
REMARK    5  A    between atoms: C5_11  and  O6_12 
REMARK    6  A    between atoms: C5_11  and  O7_14 
REMARK    7  A    between atoms: O7_14  and  C6_15 
REMARK    8  A    between atoms: C7_16  and  C8_17 
REMARK    9  A    between atoms: C10_23  and  N3_24 
REMARK   10  A    between atoms: N3_24  and  C11_26 
REMARK   11  A    between atoms: C11_26  and  O11_27 
REMARK   12  A    between atoms: C11_26  and  C12_29 
REMARK   13  A    between atoms: C12_29  and  N4_30 
REMARK   14  A    between atoms: C12_29  and  C17_37 
REMARK   15  A    between atoms: N4_30  and  O12_32 
REMARK   16  A    between atoms: O12_32  and  C13_33 
REMARK   17  A    between atoms: C19_40  and  N5_41 
REMARK   18  A    between atoms: C22_49  and  O13_50 
REMARK   19  A    between atoms: C22_49  and  C23_52 
REMARK   20  A    between atoms: C23_52  and  O14_53 
ROOT
HETATM    1  C6  UNL     1      30.968  49.524  33.383  1.00  0.00     0.093 C 
HETATM    2  C7  UNL     1      30.646  50.269  32.285  1.00  0.00     0.146 C 
HETATM    3  N2  UNL     1      31.647  50.968  31.547  1.00  0.00    -0.291 N 
HETATM    4  C9  UNL     1      32.009  52.271  31.070  1.00  0.00     0.251 C 
HETATM    5  O10 UNL     1      31.531  53.400  30.856  1.00  0.00    -0.271 OA
HETATM    6  C10 UNL     1      33.397  51.706  30.890  1.00  0.00     0.210 C 
HETATM    7  C20 UNL     1      32.845  50.325  30.979  1.00  0.00     0.187 C 
HETATM    8  S2  UNL     1      33.474  49.242  32.259  1.00  0.00    -0.134 SA
HETATM    9  C21 UNL     1      32.401  49.547  33.722  1.00  0.00     0.143 C 
ENDROOT
BRANCH   6  10
HETATM   10  N3  UNL     1      34.013  52.072  29.617  1.00  0.00    -0.353 N 
ATOM     11  H3  UNL     1      33.481  51.925  28.758  1.00  0.00     0.162 HD
BRANCH  10  12
HETATM   12  C11 UNL     1      35.301  52.615  29.521  1.00  0.00     0.168 C 
BRANCH  12  13
HETATM   13  O11 UNL     1      35.496  53.202  28.360  1.00  0.00    -0.344 OA
ATOM     14  H11 UNL     1      35.521  52.572  27.649  1.00  0.00     0.219 HD
ENDBRANCH  12  13
BRANCH  12  15
HETATM   15  C12 UNL     1      36.401  52.662  30.401  1.00  0.00     0.132 C 
BRANCH  15  16
HETATM   16  N4  UNL     1      36.633  53.830  30.982  1.00  0.00    -0.259 N 
ATOM     17  H4  UNL     1      35.830  54.298  31.402  1.00  0.00     0.194 HD
BRANCH  16  18
HETATM   18  O12 UNL     1      37.804  54.458  31.077  1.00  0.00    -0.270 OA
BRANCH  18  19
HETATM   19  C13 UNL     1      38.258  55.504  30.241  1.00  0.00     0.078 C 
HETATM   20  C14 UNL     1      37.130  56.223  29.548  1.00  0.00     0.048 C 
HETATM   21  C15 UNL     1      39.185  54.983  29.145  1.00  0.00     0.048 C 
HETATM   22  C16 UNL     1      39.041  56.534  31.025  1.00  0.00     0.048 C 
ENDBRANCH  18  19
ENDBRANCH  16  18
ENDBRANCH  15  16
BRANCH  15  23
HETATM   23  C17 UNL     1      37.364  51.564  30.735  1.00  0.00     0.074 A 
HETATM   24  C18 UNL     1      36.991  50.434  31.397  1.00  0.00     0.085 A 
HETATM   25  S1  UNL     1      38.450  49.507  31.413  1.00  0.00    -0.064 SA
HETATM   26  C19 UNL     1      39.432  50.605  30.588  1.00  0.00     0.142 A 
HETATM   27  N6  UNL     1      38.627  51.626  30.331  1.00  0.00    -0.335 N 
ATOM     28  H6  UNL     1      38.973  52.445  29.830  1.00  0.00     0.168 HD
BRANCH  26  29
HETATM   29  N5  UNL     1      40.713  50.510  30.252  1.00  0.00    -0.380 N 
ATOM     30  H52 UNL     1      41.242  49.647  30.128  1.00  0.00     0.158 HD
ATOM     31  H51 UNL     1      41.392  51.247  30.060  1.00  0.00     0.158 HD
ENDBRANCH  26  29
ENDBRANCH  15  23
ENDBRANCH  12  15
ENDBRANCH  10  12
ENDBRANCH   6  10
BRANCH   2  32
HETATM   32  C8  UNL     1      29.279  50.369  31.811  1.00  0.00     0.229 C 
HETATM   33  O8  UNL     1      28.730  49.473  31.126  1.00  0.00    -0.643 OA
HETATM   34  O9  UNL     1      28.520  51.470  32.105  1.00  0.00    -0.643 OA
ENDBRANCH   2  32
BRANCH   1  35
HETATM   35  O7  UNL     1      29.973  48.868  34.025  1.00  0.00    -0.307 OA
BRANCH  35  36
HETATM   36  C5  UNL     1      29.550  47.556  34.052  1.00  0.00     0.257 C 
HETATM   37  C4  UNL     1      29.714  47.001  35.461  1.00  0.00     0.360 C 
HETATM   38  O3  UNL     1      28.692  46.113  35.715  1.00  0.00    -0.322 OA
HETATM   39  C3  UNL     1      27.959  45.950  34.578  1.00  0.00     0.307 C 
HETATM   40  C22 UNL     1      28.078  47.302  33.842  1.00  0.00     0.190 C 
BRANCH  37  41
HETATM   41  N1  UNL     1      30.941  46.237  35.612  1.00  0.00    -0.118 N 
HETATM   42  O4  UNL     1      32.025  46.831  35.648  1.00  0.00    -0.534 OA
HETATM   43  O5  UNL     1      30.919  44.877  35.731  1.00  0.00    -0.534 OA
ENDBRANCH  37  41
BRANCH  39  44
HETATM   44  O2  UNL     1      28.537  44.996  33.763  1.00  0.00    -0.334 OA
BRANCH  44  45
HETATM   45  C2  UNL     1      27.785  43.825  33.712  1.00  0.00     0.340 C 
BRANCH  45  46
HETATM   46  O1  UNL     1      26.595  44.075  33.064  1.00  0.00    -0.372 OA
HETATM   47  C1  UNL     1      25.842  42.911  33.022  1.00  0.00     0.204 C 
ENDBRANCH  45  46
ENDBRANCH  44  45
ENDBRANCH  39  44
BRANCH  40  48
HETATM   48  O13 UNL     1      27.705  47.036  32.549  1.00  0.00    -0.378 OA
ATOM     49  H13 UNL     1      26.844  46.640  32.619  1.00  0.00     0.211 HD
ENDBRANCH  40  48
BRANCH  40  50
HETATM   50  C23 UNL     1      27.208  48.249  34.601  1.00  0.00     0.213 C 
BRANCH  50  51
HETATM   51  O14 UNL     1      26.931  49.399  33.863  1.00  0.00    -0.398 OA
ATOM     52  H14 UNL     1      26.387  50.007  34.351  1.00  0.00     0.209 HD
ENDBRANCH  50  51
ENDBRANCH  40  50
BRANCH  36  53
HETATM   53  O6  UNL     1      30.311  46.727  33.209  1.00  0.00    -0.359 OA
ATOM     54  H6  UNL     1      29.912  46.782  32.349  1.00  0.00     0.213 HD
ENDBRANCH  36  53
ENDBRANCH  35  36
ENDBRANCH   1  35
TORSDOF 20
ENDMDL
MODEL 4
REMARK VINA RESULT: -7.658809660      1.564      3.393
REMARK  20 active torsions:
REMARK  status: ('A' for Active; 'I' for Inactive)
REMARK    1  A    between atoms: O1_2  and  C2_3 
REMARK    2  A    between atoms: C2_3  and  O2_4 
REMARK    3  A    between atoms: O2_4  and  C3_5 
REMARK    4  A    between atoms: C4_7  and  N1_8 
REMARK    5  A    between atoms: C5_11  and  O6_12 
REMARK    6  A    between atoms: C5_11  and  O7_14 
REMARK    7  A    between atoms: O7_14  and  C6_15 
REMARK    8  A    between atoms: C7_16  and  C8_17 
REMARK    9  A    between atoms: C10_23  and  N3_24 
REMARK   10  A    between atoms: N3_24  and  C11_26 
REMARK   11  A    between atoms: C11_26  and  O11_27 
REMARK   12  A    between atoms: C11_26  and  C12_29 
REMARK   13  A    between atoms: C12_29  and  N4_30 
REMARK   14  A    between atoms: C12_29  and  C17_37 
REMARK   15  A    between atoms: N4_30  and  O12_32 
REMARK   16  A    between atoms: O12_32  and  C13_33 
REMARK   17  A    between atoms: C19_40  and  N5_41 
REMARK   18  A    between atoms: C22_49  and  O13_50 
REMARK   19  A    between atoms: C22_49  and  C23_52 
REMARK   20  A    between atoms: C23_52  and  O14_53 
ROOT
HETATM    1  C6  UNL     1      30.941  48.592  33.480  1.00  0.00     0.093 C 
HETATM    2  C7  UNL     1      30.561  49.334  32.398  1.00  0.00     0.146 C 
HETATM    3  N2  UNL     1      31.507  50.112  31.666  1.00  0.00    -0.291 N 
HETATM    4  C9  UNL     1      31.779  51.444  31.211  1.00  0.00     0.251 C 
HETATM    5  O10 UNL     1      31.224  52.543  31.022  1.00  0.00    -0.271 OA
HETATM    6  C10 UNL     1      33.200  50.977  31.012  1.00  0.00     0.210 C 
HETATM    7  C20 UNL     1      32.741  49.560  31.078  1.00  0.00     0.187 C 
HETATM    8  S2  UNL     1      33.451  48.498  32.334  1.00  0.00    -0.134 SA
HETATM    9  C21 UNL     1      32.372  48.705  33.810  1.00  0.00     0.143 C 
ENDROOT
BRANCH   6  10
HETATM   10  N3  UNL     1      33.780  51.406  29.742  1.00  0.00    -0.353 N 
ATOM     11  H3  UNL     1      33.600  50.844  28.909  1.00  0.00     0.162 HD
BRANCH  10  12
HETATM   12  C11 UNL     1      34.572  52.555  29.615  1.00  0.00     0.168 C 
BRANCH  12  13
HETATM   13  O11 UNL     1      33.862  53.595  29.237  1.00  0.00    -0.344 OA
ATOM     14  H11 UNL     1      34.395  54.236  28.781  1.00  0.00     0.219 HD
ENDBRANCH  12  13
BRANCH  12  15
HETATM   15  C12 UNL     1      35.943  52.813  29.812  1.00  0.00     0.132 C 
BRANCH  15  16
HETATM   16  N4  UNL     1      36.346  54.051  29.562  1.00  0.00    -0.259 N 
ATOM     17  H4  UNL     1      36.702  54.583  30.356  1.00  0.00     0.194 HD
BRANCH  16  18
HETATM   18  O12 UNL     1      36.335  54.673  28.384  1.00  0.00    -0.270 OA
BRANCH  18  19
HETATM   19  C13 UNL     1      36.506  56.061  28.175  1.00  0.00     0.078 C 
HETATM   20  C14 UNL     1      35.203  56.818  28.216  1.00  0.00     0.048 C 
HETATM   21  C15 UNL     1      37.138  56.350  26.816  1.00  0.00     0.048 C 
HETATM   22  C16 UNL     1      37.418  56.667  29.220  1.00  0.00     0.048 C 
ENDBRANCH  18  19
ENDBRANCH  16  18
ENDBRANCH  15  16
BRANCH  15  23
HETATM   23  C17 UNL     1      37.013  51.853  30.236  1.00  0.00     0.074 A 
HETATM   24  C18 UNL     1      38.287  51.912  29.761  1.00  0.00     0.085 A 
HETATM   25  S1  UNL     1      39.081  50.661  30.650  1.00  0.00    -0.064 SA
HETATM   26  C19 UNL     1      37.756  50.145  31.560  1.00  0.00     0.142 A 
HETATM   27  N6  UNL     1      36.766  50.932  31.162  1.00  0.00    -0.335 N 
ATOM     28  H6  UNL     1      35.832  50.833  31.560  1.00  0.00     0.168 HD
BRANCH  26  29
HETATM   29  N5  UNL     1      37.675  49.183  32.471  1.00  0.00    -0.380 N 
ATOM     30  H52 UNL     1      36.930  48.491  32.554  1.00  0.00     0.158 HD
ATOM     31  H51 UNL     1      38.312  48.954  33.235  1.00  0.00     0.158 HD
ENDBRANCH  26  29
ENDBRANCH  15  23
ENDBRANCH  12  15
ENDBRANCH  10  12
ENDBRANCH   6  10
BRANCH   2  32
HETATM   32  C8  UNL     1      29.187  49.351  31.935  1.00  0.00     0.229 C 
HETATM   33  O8  UNL     1      28.740  48.525  31.103  1.00  0.00    -0.643 OA
HETATM   34  O9  UNL     1      28.307  50.290  32.403  1.00  0.00    -0.643 OA
ENDBRANCH   2  32
BRANCH   1  35
HETATM   35  O7  UNL     1      29.997  47.860  34.115  1.00  0.00    -0.307 OA
BRANCH  35  36
HETATM   36  C5  UNL     1      29.566  46.553  34.014  1.00  0.00     0.257 C 
HETATM   37  C4  UNL     1      29.990  45.784  35.258  1.00  0.00     0.360 C 
HETATM   38  O3  UNL     1      29.024  44.850  35.560  1.00  0.00    -0.322 OA
HETATM   39  C3  UNL     1      28.082  44.859  34.575  1.00  0.00     0.307 C 
HETATM   40  C22 UNL     1      28.077  46.313  34.055  1.00  0.00     0.190 C 
BRANCH  37  41
HETATM   41  N1  UNL     1      31.212  45.025  35.046  1.00  0.00    -0.118 N 
HETATM   42  O4  UNL     1      31.159  43.791  34.993  1.00  0.00    -0.534 OA
HETATM   43  O5  UNL     1      32.415  45.650  34.887  1.00  0.00    -0.534 OA
ENDBRANCH  37  41
BRANCH  39  44
HETATM   44  O2  UNL     1      28.477  44.057  33.523  1.00  0.00    -0.334 OA
BRANCH  44  45
HETATM   45  C2  UNL     1      27.632  42.963  33.353  1.00  0.00     0.340 C 
BRANCH  45  46
HETATM   46  O1  UNL     1      26.522  43.350  32.634  1.00  0.00    -0.372 OA
HETATM   47  C1  UNL     1      25.704  42.249  32.424  1.00  0.00     0.204 C 
ENDBRANCH  45  46
ENDBRANCH  44  45
ENDBRANCH  39  44
BRANCH  40  48
HETATM   48  O13 UNL     1      27.457  46.250  32.833  1.00  0.00    -0.378 OA
ATOM     49  H13 UNL     1      26.767  45.606  32.941  1.00  0.00     0.211 HD
ENDBRANCH  40  48
BRANCH  40  50
HETATM   50  C23 UNL     1      27.385  47.113  35.109  1.00  0.00     0.213 C 
BRANCH  50  51
HETATM   51  O14 UNL     1      26.565  46.315  35.905  1.00  0.00    -0.398 OA
ATOM     52  H14 UNL     1      26.119  46.825  36.572  1.00  0.00     0.209 HD
ENDBRANCH  50  51
ENDBRANCH  40  50
BRANCH  36  53
HETATM   53  O6  UNL     1      30.136  45.881  32.919  1.00  0.00    -0.359 OA
ATOM     54  H6  UNL     1      29.698  45.040  32.863  1.00  0.00     0.213 HD
ENDBRANCH  36  53
ENDBRANCH  35  36
ENDBRANCH   1  35
TORSDOF 20
ENDMDL
MODEL 5
REMARK VINA RESULT: -7.310017680      3.306      6.196
REMARK  20 active torsions:
REMARK  status: ('A' for Active; 'I' for Inactive)
REMARK    1  A    between atoms: O1_2  and  C2_3 
REMARK    2  A    between atoms: C2_3  and  O2_4 
REMARK    3  A    between atoms: O2_4  and  C3_5 
REMARK    4  A    between atoms: C4_7  and  N1_8 
REMARK    5  A    between atoms: C5_11  and  O6_12 
REMARK    6  A    between atoms: C5_11  and  O7_14 
REMARK    7  A    between atoms: O7_14  and  C6_15 
REMARK    8  A    between atoms: C7_16  and  C8_17 
REMARK    9  A    between atoms: C10_23  and  N3_24 
REMARK   10  A    between atoms: N3_24  and  C11_26 
REMARK   11  A    between atoms: C11_26  and  O11_27 
REMARK   12  A    between atoms: C11_26  and  C12_29 
REMARK   13  A    between atoms: C12_29  and  N4_30 
REMARK   14  A    between atoms: C12_29  and  C17_37 
REMARK   15  A    between atoms: N4_30  and  O12_32 
REMARK   16  A    between atoms: O12_32  and  C13_33 
REMARK   17  A    between atoms: C19_40  and  N5_41 
REMARK   18  A    between atoms: C22_49  and  O13_50 
REMARK   19  A    between atoms: C22_49  and  C23_52 
REMARK   20  A    between atoms: C23_52  and  O14_53 
ROOT
HETATM    1  C6  UNL     1      29.390  44.078  34.692  1.00  0.00     0.093 C 
HETATM    2  C7  UNL     1      28.820  45.312  34.568  1.00  0.00     0.146 C 
HETATM    3  N2  UNL     1      29.579  46.501  34.780  1.00  0.00    -0.291 N 
HETATM    4  C9  UNL     1      29.613  47.710  35.551  1.00  0.00     0.251 C 
HETATM    5  O10 UNL     1      28.888  48.443  36.250  1.00  0.00    -0.271 OA
HETATM    6  C10 UNL     1      31.067  47.799  35.159  1.00  0.00     0.210 C 
HETATM    7  C20 UNL     1      30.831  46.812  34.067  1.00  0.00     0.187 C 
HETATM    8  S2  UNL     1      31.788  45.298  34.073  1.00  0.00    -0.134 SA
HETATM    9  C21 UNL     1      30.809  44.110  35.082  1.00  0.00     0.143 C 
ENDROOT
BRANCH   6  10
HETATM   10  N3  UNL     1      31.475  49.137  34.738  1.00  0.00    -0.353 N 
ATOM     11  H3  UNL     1      30.867  49.925  34.964  1.00  0.00     0.162 HD
BRANCH  10  12
HETATM   12  C11 UNL     1      32.663  49.387  34.040  1.00  0.00     0.168 C 
BRANCH  12  13
HETATM   13  O11 UNL     1      33.698  48.820  34.621  1.00  0.00    -0.344 OA
ATOM     14  H11 UNL     1      34.508  49.268  34.409  1.00  0.00     0.219 HD
ENDBRANCH  12  13
BRANCH  12  15
HETATM   15  C12 UNL     1      32.964  50.104  32.864  1.00  0.00     0.132 C 
BRANCH  15  16
HETATM   16  N4  UNL     1      31.973  50.241  31.995  1.00  0.00    -0.259 N 
ATOM     17  H4  UNL     1      31.969  51.097  31.440  1.00  0.00     0.194 HD
BRANCH  16  18
HETATM   18  O12 UNL     1      30.982  49.380  31.768  1.00  0.00    -0.270 OA
BRANCH  18  19
HETATM   19  C13 UNL     1      29.654  49.714  31.414  1.00  0.00     0.078 C 
HETATM   20  C14 UNL     1      28.644  48.745  31.973  1.00  0.00     0.048 C 
HETATM   21  C15 UNL     1      29.463  49.721  29.900  1.00  0.00     0.048 C 
HETATM   22  C16 UNL     1      29.284  51.095  31.909  1.00  0.00     0.048 C 
ENDBRANCH  18  19
ENDBRANCH  16  18
ENDBRANCH  15  16
BRANCH  15  23
HETATM   23  C17 UNL     1      34.276  50.703  32.457  1.00  0.00     0.074 A 
HETATM   24  C18 UNL     1      34.369  51.869  31.762  1.00  0.00     0.085 A 
HETATM   25  S1  UNL     1      36.077  52.117  31.665  1.00  0.00    -0.064 SA
HETATM   26  C19 UNL     1      36.560  50.734  32.504  1.00  0.00     0.142 A 
HETATM   27  N6  UNL     1      35.420  50.139  32.826  1.00  0.00    -0.335 N 
ATOM     28  H6  UNL     1      35.423  49.262  33.349  1.00  0.00     0.168 HD
BRANCH  26  29
HETATM   29  N5  UNL     1      37.781  50.304  32.798  1.00  0.00    -0.380 N 
ATOM     30  H52 UNL     1      38.078  49.330  32.860  1.00  0.00     0.158 HD
ATOM     31  H51 UNL     1      38.625  50.835  33.012  1.00  0.00     0.158 HD
ENDBRANCH  26  29
ENDBRANCH  15  23
ENDBRANCH  12  15
ENDBRANCH  10  12
ENDBRANCH   6  10
BRANCH   2  32
HETATM   32  C8  UNL     1      27.426  45.470  34.200  1.00  0.00     0.229 C 
HETATM   33  O8  UNL     1      27.019  45.365  33.018  1.00  0.00    -0.643 OA
HETATM   34  O9  UNL     1      26.482  45.744  35.153  1.00  0.00    -0.643 OA
ENDBRANCH   2  32
BRANCH   1  35
HETATM   35  O7  UNL     1      28.618  42.991  34.456  1.00  0.00    -0.307 OA
BRANCH  35  36
HETATM   36  C5  UNL     1      28.508  42.101  33.408  1.00  0.00     0.257 C 
HETATM   37  C4  UNL     1      28.757  40.687  33.918  1.00  0.00     0.360 C 
HETATM   38  O3  UNL     1      27.962  39.810  33.215  1.00  0.00    -0.322 OA
HETATM   39  C3  UNL     1      27.318  40.495  32.229  1.00  0.00     0.307 C 
HETATM   40  C22 UNL     1      27.142  41.920  32.797  1.00  0.00     0.190 C 
BRANCH  37  41
HETATM   41  N1  UNL     1      30.124  40.250  33.683  1.00  0.00    -0.118 N 
HETATM   42  O4  UNL     1      30.336  39.313  32.904  1.00  0.00    -0.534 OA
HETATM   43  O5  UNL     1      31.179  40.865  34.292  1.00  0.00    -0.534 OA
ENDBRANCH  37  41
BRANCH  39  44
HETATM   44  O2  UNL     1      28.123  40.604  31.112  1.00  0.00    -0.334 OA
BRANCH  44  45
HETATM   45  C2  UNL     1      27.590  39.932  30.014  1.00  0.00     0.340 C 
BRANCH  45  46
HETATM   46  O1  UNL     1      26.448  40.578  29.594  1.00  0.00    -0.372 OA
HETATM   47  C1  UNL     1      25.868  39.858  28.560  1.00  0.00     0.204 C 
ENDBRANCH  45  46
ENDBRANCH  44  45
ENDBRANCH  39  44
BRANCH  40  48
HETATM   48  O13 UNL     1      26.876  42.707  31.705  1.00  0.00    -0.378 OA
ATOM     49  H13 UNL     1      25.932  42.815  31.705  1.00  0.00     0.211 HD
ENDBRANCH  40  48
BRANCH  40  50
HETATM   50  C23 UNL     1      26.056  41.812  33.816  1.00  0.00     0.213 C 
BRANCH  50  51
HETATM   51  O14 UNL     1      25.535  43.062  34.150  1.00  0.00    -0.398 OA
ATOM     52  H14 UNL     1      25.602  43.233  35.082  1.00  0.00     0.209 HD
ENDBRANCH  50  51
ENDBRANCH  40  50
BRANCH  36  53
HETATM   53  O6  UNL     1      29.463  42.332  32.402  1.00  0.00    -0.359 OA
ATOM     54  H6  UNL     1      29.152  43.079  31.905  1.00  0.00     0.213 HD
ENDBRANCH  36  53
ENDBRANCH  35  36
ENDBRANCH   1  35
TORSDOF 20
ENDMDL
