MODEL 1
REMARK VINA RESULT: -6.890659208      0.000      0.000
REMARK  8 active torsions:
REMARK  status: ('A' for Active; 'I' for Inactive)
REMARK    1  A    between atoms: C3_3  and  C4_4 
REMARK    2  A    between atoms: C5_5  and  C6_6 
REMARK    3  A    between atoms: C6_6  and  C7_7 
REMARK    4  A    between atoms: C7_7  and  C8_8 
REMARK    5  A    between atoms: C8_8  and  C9_9 
REMARK    6  A    between atoms: C9_9  and  C10_10 
REMARK    7  A    between atoms: C11_13  and  N2_14 
REMARK    8  A    between atoms: C12_19  and  N4_20 
ROOT
HETATM    1  C1  UNL     1       9.011  10.930   2.842  1.00  0.00     0.113 C 
HETATM    2  C2  UNL     1       8.297  10.304   1.727  1.00  0.00    -0.097 C 
HETATM    3  C3  UNL     1       7.691   9.799   0.803  1.00  0.00    -0.015 C 
ENDROOT
BRANCH   3   4
HETATM    4  C4  UNL     1       6.974   9.230  -0.283  1.00  0.00    -0.015 C 
HETATM    5  C5  UNL     1       6.353   8.765  -1.209  1.00  0.00    -0.092 C 
BRANCH   5   6
HETATM    6  C6  UNL     1       5.576   8.212  -2.337  1.00  0.00     0.095 C 
BRANCH   6   7
HETATM    7  C7  UNL     1       4.133   8.614  -2.142  1.00  0.00     0.012 C 
BRANCH   7   8
HETATM    8  C8  UNL     1       3.921   9.977  -2.752  1.00  0.00     0.008 C 
BRANCH   8   9
HETATM    9  C9  UNL     1       2.505  10.130  -3.261  1.00  0.00     0.077 C 
BRANCH   9  10
HETATM   10  C10 UNL     1       2.380   9.434  -4.561  1.00  0.00     0.113 A 
HETATM   11  N1  UNL     1       1.726   8.271  -4.719  1.00  0.00    -0.180 N 
HETATM   12  C11 UNL     1       1.622   7.656  -5.897  1.00  0.00     0.691 A 
ATOM     13  H1  UNL     1       1.290   7.840  -3.903  1.00  0.00     0.185 HD
HETATM   14  N3  UNL     1       2.180   8.197  -6.972  1.00  0.00    -0.023 N 
HETATM   15  C12 UNL     1       2.837   9.355  -6.845  1.00  0.00     0.691 A 
ATOM     16  H3  UNL     1       2.108   7.739  -7.880  1.00  0.00     0.203 HD
HETATM   17  N5  UNL     1       2.940   9.975  -5.655  1.00  0.00    -0.180 N 
ATOM     18  H5  UNL     1       3.446  10.858  -5.584  1.00  0.00     0.185 HD
BRANCH  12  19
HETATM   19  N2  UNL     1       0.970   6.525  -5.978  1.00  0.00    -0.234 N 
ATOM     20  H22 UNL     1      -0.042   6.514  -6.097  1.00  0.00     0.174 HD
ATOM     21  H21 UNL     1       1.482   5.645  -5.922  1.00  0.00     0.174 HD
ENDBRANCH  12  19
BRANCH  15  22
HETATM   22  N4  UNL     1       3.378   9.875  -7.899  1.00  0.00    -0.234 N 
ATOM     23  H42 UNL     1       3.488   9.319  -8.747  1.00  0.00     0.174 HD
ATOM     24  H41 UNL     1       3.687  10.846  -7.857  1.00  0.00     0.174 HD
ENDBRANCH  15  22
ENDBRANCH   9  10
ENDBRANCH   8   9
ENDBRANCH   7   8
ENDBRANCH   6   7
ENDBRANCH   5   6
ENDBRANCH   3   4
TORSDOF 8
ENDMDL
MODEL 2
REMARK VINA RESULT: -6.865040012      0.046      1.917
REMARK  8 active torsions:
REMARK  status: ('A' for Active; 'I' for Inactive)
REMARK    1  A    between atoms: C3_3  and  C4_4 
REMARK    2  A    between atoms: C5_5  and  C6_6 
REMARK    3  A    between atoms: C6_6  and  C7_7 
REMARK    4  A    between atoms: C7_7  and  C8_8 
REMARK    5  A    between atoms: C8_8  and  C9_9 
REMARK    6  A    between atoms: C9_9  and  C10_10 
REMARK    7  A    between atoms: C11_13  and  N2_14 
REMARK    8  A    between atoms: C12_19  and  N4_20 
ROOT
HETATM    1  C1  UNL     1       9.019  10.935   2.835  1.00  0.00     0.113 C 
HETATM    2  C2  UNL     1       8.307  10.314   1.717  1.00  0.00    -0.097 C 
HETATM    3  C3  UNL     1       7.701   9.811   0.792  1.00  0.00    -0.015 C 
ENDROOT
BRANCH   3   4
HETATM    4  C4  UNL     1       6.980   9.245  -0.293  1.00  0.00    -0.015 C 
HETATM    5  C5  UNL     1       6.361   8.782  -1.222  1.00  0.00    -0.092 C 
BRANCH   5   6
HETATM    6  C6  UNL     1       5.588   8.236  -2.356  1.00  0.00     0.095 C 
BRANCH   6   7
HETATM    7  C7  UNL     1       4.140   8.614  -2.150  1.00  0.00     0.012 C 
BRANCH   7   8
HETATM    8  C8  UNL     1       3.904   9.978  -2.751  1.00  0.00     0.008 C 
BRANCH   8   9
HETATM    9  C9  UNL     1       2.486  10.107  -3.264  1.00  0.00     0.077 C 
BRANCH   9  10
HETATM   10  C10 UNL     1       2.385   9.438  -4.580  1.00  0.00     0.113 A 
HETATM   11  N1  UNL     1       2.895   9.950  -5.713  1.00  0.00    -0.180 N 
HETATM   12  C11 UNL     1       2.795   9.334  -6.891  1.00  0.00     0.691 A 
ATOM     13  H1  UNL     1       3.380  10.846  -5.669  1.00  0.00     0.185 HD
HETATM   14  N3  UNL     1       2.169   8.167  -6.971  1.00  0.00    -0.023 N 
HETATM   15  C12 UNL     1       1.651   7.634  -5.859  1.00  0.00     0.691 A 
ATOM     16  H3  UNL     1       2.085   7.684  -7.866  1.00  0.00     0.203 HD
HETATM   17  N5  UNL     1       1.754   8.256  -4.671  1.00  0.00    -0.180 N 
ATOM     18  H5  UNL     1       1.352   7.828  -3.836  1.00  0.00     0.185 HD
BRANCH  12  19
HETATM   19  N2  UNL     1       3.315   9.889  -7.954  1.00  0.00    -0.234 N 
ATOM     20  H22 UNL     1       3.755   9.321  -8.677  1.00  0.00     0.174 HD
ATOM     21  H21 UNL     1       3.281  10.903  -8.059  1.00  0.00     0.174 HD
ENDBRANCH  12  19
BRANCH  15  22
HETATM   22  N4  UNL     1       1.043   6.495  -5.948  1.00  0.00    -0.234 N 
ATOM     23  H42 UNL     1       1.456   5.732  -6.484  1.00  0.00     0.174 HD
ATOM     24  H41 UNL     1       0.148   6.385  -5.472  1.00  0.00     0.174 HD
ENDBRANCH  15  22
ENDBRANCH   9  10
ENDBRANCH   8   9
ENDBRANCH   7   8
ENDBRANCH   6   7
ENDBRANCH   5   6
ENDBRANCH   3   4
TORSDOF 8
ENDMDL
MODEL 3
REMARK VINA RESULT: -6.636626555      4.370      7.888
REMARK  8 active torsions:
REMARK  status: ('A' for Active; 'I' for Inactive)
REMARK    1  A    between atoms: C3_3  and  C4_4 
REMARK    2  A    between atoms: C5_5  and  C6_6 
REMARK    3  A    between atoms: C6_6  and  C7_7 
REMARK    4  A    between atoms: C7_7  and  C8_8 
REMARK    5  A    between atoms: C8_8  and  C9_9 
REMARK    6  A    between atoms: C9_9  and  C10_10 
REMARK    7  A    between atoms: C11_13  and  N2_14 
REMARK    8  A    between atoms: C12_19  and  N4_20 
ROOT
HETATM    1  C1  UNL     1       2.905   9.963  -9.052  1.00  0.00     0.113 C 
HETATM    2  C2  UNL     1       2.938   9.949  -7.588  1.00  0.00    -0.097 C 
HETATM    3  C3  UNL     1       2.946   9.934  -6.373  1.00  0.00    -0.015 C 
ENDROOT
BRANCH   3   4
HETATM    4  C4  UNL     1       2.936   9.901  -4.953  1.00  0.00    -0.015 C 
HETATM    5  C5  UNL     1       2.947   9.866  -3.746  1.00  0.00    -0.092 C 
BRANCH   5   6
HETATM    6  C6  UNL     1       2.979   9.806  -2.270  1.00  0.00     0.095 C 
BRANCH   6   7
HETATM    7  C7  UNL     1       3.872   8.653  -1.876  1.00  0.00     0.012 C 
BRANCH   7   8
HETATM    8  C8  UNL     1       5.203   8.810  -2.567  1.00  0.00     0.008 C 
BRANCH   8   9
HETATM    9  C9  UNL     1       6.299   8.098  -1.804  1.00  0.00     0.077 C 
BRANCH   9  10
HETATM   10  C10 UNL     1       7.108   9.099  -1.074  1.00  0.00     0.113 A 
HETATM   11  N1  UNL     1       6.815   9.527   0.166  1.00  0.00    -0.180 N 
HETATM   12  C11 UNL     1       7.553  10.429   0.812  1.00  0.00     0.691 A 
ATOM     13  H1  UNL     1       5.993   9.144   0.633  1.00  0.00     0.185 HD
HETATM   14  N3  UNL     1       8.629  10.940   0.224  1.00  0.00    -0.023 N 
HETATM   15  C12 UNL     1       8.944  10.532  -1.011  1.00  0.00     0.691 A 
ATOM     16  H3  UNL     1       9.204  11.630   0.705  1.00  0.00     0.203 HD
HETATM   17  N5  UNL     1       8.198   9.621  -1.660  1.00  0.00    -0.180 N 
ATOM     18  H5  UNL     1       8.461   9.325  -2.600  1.00  0.00     0.185 HD
BRANCH  12  19
HETATM   19  N2  UNL     1       7.210  10.800   2.017  1.00  0.00    -0.234 N 
ATOM     20  H22 UNL     1       7.821  10.619   2.813  1.00  0.00     0.174 HD
ATOM     21  H21 UNL     1       6.320  11.276   2.162  1.00  0.00     0.174 HD
ENDBRANCH  12  19
BRANCH  15  22
HETATM   22  N4  UNL     1       9.994  11.036  -1.575  1.00  0.00    -0.234 N 
ATOM     23  H42 UNL     1      10.224  12.021  -1.445  1.00  0.00     0.174 HD
ATOM     24  H41 UNL     1      10.577  10.426  -2.147  1.00  0.00     0.174 HD
ENDBRANCH  15  22
ENDBRANCH   9  10
ENDBRANCH   8   9
ENDBRANCH   7   8
ENDBRANCH   6   7
ENDBRANCH   5   6
ENDBRANCH   3   4
TORSDOF 8
ENDMDL
MODEL 4
REMARK VINA RESULT: -6.596857892      4.384      8.073
REMARK  8 active torsions:
REMARK  status: ('A' for Active; 'I' for Inactive)
REMARK    1  A    between atoms: C3_3  and  C4_4 
REMARK    2  A    between atoms: C5_5  and  C6_6 
REMARK    3  A    between atoms: C6_6  and  C7_7 
REMARK    4  A    between atoms: C7_7  and  C8_8 
REMARK    5  A    between atoms: C8_8  and  C9_9 
REMARK    6  A    between atoms: C9_9  and  C10_10 
REMARK    7  A    between atoms: C11_13  and  N2_14 
REMARK    8  A    between atoms: C12_19  and  N4_20 
ROOT
HETATM    1  C1  UNL     1       2.925   9.885  -9.118  1.00  0.00     0.113 C 
HETATM    2  C2  UNL     1       2.965   9.895  -7.655  1.00  0.00    -0.097 C 
HETATM    3  C3  UNL     1       2.978   9.906  -6.440  1.00  0.00    -0.015 C 
ENDROOT
BRANCH   3   4
HETATM    4  C4  UNL     1       2.971   9.910  -5.019  1.00  0.00    -0.015 C 
HETATM    5  C5  UNL     1       2.970   9.893  -3.811  1.00  0.00    -0.092 C 
BRANCH   5   6
HETATM    6  C6  UNL     1       2.962   9.847  -2.335  1.00  0.00     0.095 C 
BRANCH   6   7
HETATM    7  C7  UNL     1       3.857   8.708  -1.905  1.00  0.00     0.012 C 
BRANCH   7   8
HETATM    8  C8  UNL     1       5.201   8.870  -2.570  1.00  0.00     0.008 C 
BRANCH   8   9
HETATM    9  C9  UNL     1       6.278   8.136  -1.801  1.00  0.00     0.077 C 
BRANCH   9  10
HETATM   10  C10 UNL     1       7.114   9.122  -1.079  1.00  0.00     0.113 A 
HETATM   11  N1  UNL     1       8.224   9.674  -1.600  1.00  0.00    -0.180 N 
HETATM   12  C11 UNL     1       8.967  10.560  -0.937  1.00  0.00     0.691 A 
ATOM     13  H1  UNL     1       8.509   9.404  -2.541  1.00  0.00     0.185 HD
HETATM   14  N3  UNL     1       8.615  10.928   0.289  1.00  0.00    -0.023 N 
HETATM   15  C12 UNL     1       7.515  10.393   0.832  1.00  0.00     0.691 A 
ATOM     16  H3  UNL     1       9.173  11.605   0.807  1.00  0.00     0.203 HD
HETATM   17  N5  UNL     1       6.766   9.500   0.161  1.00  0.00    -0.180 N 
ATOM     18  H5  UNL     1       5.930   9.108   0.597  1.00  0.00     0.185 HD
BRANCH  12  19
HETATM   19  N2  UNL     1      10.034  11.059  -1.504  1.00  0.00    -0.234 N 
ATOM     20  H22 UNL     1      10.157  12.067  -1.591  1.00  0.00     0.174 HD
ATOM     21  H21 UNL     1      10.752  10.429  -1.865  1.00  0.00     0.174 HD
ENDBRANCH  12  19
BRANCH  15  22
HETATM   22  N4  UNL     1       7.180  10.758   2.027  1.00  0.00    -0.234 N 
ATOM     23  H42 UNL     1       7.898  10.939   2.729  1.00  0.00     0.174 HD
ATOM     24  H41 UNL     1       6.189  10.856   2.244  1.00  0.00     0.174 HD
ENDBRANCH  15  22
ENDBRANCH   9  10
ENDBRANCH   8   9
ENDBRANCH   7   8
ENDBRANCH   6   7
ENDBRANCH   5   6
ENDBRANCH   3   4
TORSDOF 8
ENDMDL
MODEL 5
REMARK VINA RESULT: -6.543131605      4.587      8.298
REMARK  8 active torsions:
REMARK  status: ('A' for Active; 'I' for Inactive)
REMARK    1  A    between atoms: C3_3  and  C4_4 
REMARK    2  A    between atoms: C5_5  and  C6_6 
REMARK    3  A    between atoms: C6_6  and  C7_7 
REMARK    4  A    between atoms: C7_7  and  C8_8 
REMARK    5  A    between atoms: C8_8  and  C9_9 
REMARK    6  A    between atoms: C9_9  and  C10_10 
REMARK    7  A    between atoms: C11_13  and  N2_14 
REMARK    8  A    between atoms: C12_19  and  N4_20 
ROOT
HETATM    1  C1  UNL     1       2.747  10.021  -9.025  1.00  0.00     0.113 C 
HETATM    2  C2  UNL     1       2.971   9.988  -7.578  1.00  0.00    -0.097 C 
HETATM    3  C3  UNL     1       3.140   9.970  -6.375  1.00  0.00    -0.015 C 
ENDROOT
BRANCH   3   4
HETATM    4  C4  UNL     1       3.312   9.950  -4.965  1.00  0.00    -0.015 C 
HETATM    5  C5  UNL     1       3.439   9.928  -3.764  1.00  0.00    -0.092 C 
BRANCH   5   6
HETATM    6  C6  UNL     1       3.569   9.907  -2.293  1.00  0.00     0.095 C 
BRANCH   6   7
HETATM    7  C7  UNL     1       4.297   8.639  -1.913  1.00  0.00     0.012 C 
BRANCH   7   8
HETATM    8  C8  UNL     1       5.775   8.841  -2.140  1.00  0.00     0.008 C 
BRANCH   8   9
HETATM    9  C9  UNL     1       6.575   8.396  -0.936  1.00  0.00     0.077 C 
BRANCH   9  10
HETATM   10  C10 UNL     1       7.018   9.590  -0.181  1.00  0.00     0.113 A 
HETATM   11  N1  UNL     1       6.977  10.838  -0.678  1.00  0.00    -0.180 N 
HETATM   12  C11 UNL     1       7.380  11.903   0.015  1.00  0.00     0.691 A 
ATOM     13  H1  UNL     1       6.623  10.976  -1.624  1.00  0.00     0.185 HD
HETATM   14  N3  UNL     1       7.844  11.748   1.249  1.00  0.00    -0.023 N 
HETATM   15  C12 UNL     1       7.896  10.516   1.769  1.00  0.00     0.691 A 
ATOM     16  H3  UNL     1       8.154  12.553   1.791  1.00  0.00     0.203 HD
HETATM   17  N5  UNL     1       7.488   9.442   1.068  1.00  0.00    -0.180 N 
ATOM     18  H5  UNL     1       7.536   8.513   1.488  1.00  0.00     0.185 HD
BRANCH  12  19
HETATM   19  N2  UNL     1       7.312  13.089  -0.530  1.00  0.00    -0.234 N 
ATOM     20  H22 UNL     1       7.608  13.239  -1.494  1.00  0.00     0.174 HD
ATOM     21  H21 UNL     1       6.959  13.874   0.017  1.00  0.00     0.174 HD
ENDBRANCH  12  19
BRANCH  15  22
HETATM   22  N4  UNL     1       8.350  10.375   2.972  1.00  0.00    -0.234 N 
ATOM     23  H42 UNL     1       7.778  10.647   3.772  1.00  0.00     0.174 HD
ATOM     24  H41 UNL     1       9.285   9.989   3.095  1.00  0.00     0.174 HD
ENDBRANCH  15  22
ENDBRANCH   9  10
ENDBRANCH   8   9
ENDBRANCH   7   8
ENDBRANCH   6   7
ENDBRANCH   5   6
ENDBRANCH   3   4
TORSDOF 8
ENDMDL
