MODEL 1
REMARK VINA RESULT: -5.590685726      0.000      0.000
REMARK  5 active torsions:
REMARK  status: ('A' for Active; 'I' for Inactive)
REMARK    1  A    between atoms: C4_4  and  C5_5 
REMARK    2  A    between atoms: C5_5  and  N1_6 
REMARK    3  A    between atoms: C10_17  and  N3_18 
REMARK    4  A    between atoms: N3_18  and  C11_21 
REMARK    5  A    between atoms: C11_21  and  N4_22 
ROOT
HETATM    1  C1  UNL     1      12.814  12.591   0.570  1.00  0.00     0.012 C 
HETATM    2  C2  UNL     1      12.088  11.282   0.485  1.00  0.00     0.019 C 
HETATM    3  C3  UNL     1      12.338  10.731  -0.915  1.00  0.00     0.041 C 
HETATM    4  C4  UNL     1      11.330  11.512  -1.707  1.00  0.00     0.212 C 
HETATM    5  N2  UNL     1      10.208  11.776  -0.846  1.00  0.00    -0.060 N 
ATOM      6  H21 UNL     1       9.356  11.308  -1.154  1.00  0.00     0.278 HD
ATOM      7  H22 UNL     1       9.872  12.735  -0.920  1.00  0.00     0.278 HD
HETATM    8  C6  UNL     1      10.586  11.418   0.500  1.00  0.00     0.131 C 
HETATM    9  C7  UNL     1      10.093  12.410   1.521  1.00  0.00     0.039 C 
HETATM   10  C8  UNL     1       9.918  11.670   2.826  1.00  0.00     0.004 C 
HETATM   11  C9  UNL     1       8.639  10.880   2.719  1.00  0.00     0.033 C 
HETATM   12  C10 UNL     1       8.672  10.078   1.445  1.00  0.00     0.190 C 
HETATM   13  C12 UNL     1      10.036  10.056   0.821  1.00  0.00     0.072 C 
ENDROOT
BRANCH   4  14
HETATM   14  C5  UNL     1      10.968  10.909  -3.024  1.00  0.00     0.262 C 
BRANCH  14  15
HETATM   15  N1  UNL     1      11.293  11.711  -4.167  1.00  0.00    -0.077 N 
ATOM     16  H13 UNL     1      10.748  12.573  -4.160  1.00  0.00     0.274 HD
ATOM     17  H12 UNL     1      12.233  12.094  -4.072  1.00  0.00     0.274 HD
ATOM     18  H11 UNL     1      11.194  11.239  -5.066  1.00  0.00     0.274 HD
ENDBRANCH  14  15
ENDBRANCH   4  14
BRANCH  12  19
HETATM   19  N3  UNL     1       7.619  10.424   0.524  1.00  0.00    -0.047 N 
ATOM     20  H32 UNL     1       6.854  10.908   0.993  1.00  0.00     0.279 HD
ATOM     21  H31 UNL     1       7.906  11.168  -0.112  1.00  0.00     0.279 HD
BRANCH  19  22
HETATM   22  C11 UNL     1       7.149   9.251  -0.199  1.00  0.00     0.460 C 
BRANCH  22  23
HETATM   23  N4  UNL     1       6.731   8.278   0.807  1.00  0.00    -0.055 N 
ATOM     24  H43 UNL     1       6.847   8.612   1.763  1.00  0.00     0.276 HD
ATOM     25  H42 UNL     1       5.720   8.142   0.840  1.00  0.00     0.276 HD
ATOM     26  H41 UNL     1       7.247   7.419   0.616  1.00  0.00     0.276 HD
ENDBRANCH  22  23
ENDBRANCH  19  22
ENDBRANCH  12  19
TORSDOF 5
ENDMDL
MODEL 2
REMARK VINA RESULT: -5.273694480      3.007      4.427
REMARK  5 active torsions:
REMARK  status: ('A' for Active; 'I' for Inactive)
REMARK    1  A    between atoms: C4_4  and  C5_5 
REMARK    2  A    between atoms: C5_5  and  N1_6 
REMARK    3  A    between atoms: C10_17  and  N3_18 
REMARK    4  A    between atoms: N3_18  and  C11_21 
REMARK    5  A    between atoms: C11_21  and  N4_22 
ROOT
HETATM    1  C1  UNL     1       9.170  11.652   2.890  1.00  0.00     0.012 C 
HETATM    2  C2  UNL     1       9.136  11.771   1.397  1.00  0.00     0.019 C 
HETATM    3  C3  UNL     1       9.029  13.258   1.076  1.00  0.00     0.041 C 
HETATM    4  C4  UNL     1       7.560  13.484   1.277  1.00  0.00     0.212 C 
HETATM    5  N2  UNL     1       6.880  12.264   0.931  1.00  0.00    -0.060 N 
ATOM      6  H21 UNL     1       6.281  12.365   0.112  1.00  0.00     0.278 HD
ATOM      7  H22 UNL     1       6.153  12.015   1.602  1.00  0.00     0.278 HD
HETATM    8  C6  UNL     1       7.874  11.230   0.773  1.00  0.00     0.131 C 
HETATM    9  C7  UNL     1       7.439   9.915   1.367  1.00  0.00     0.039 C 
HETATM   10  C8  UNL     1       8.142   8.817   0.605  1.00  0.00     0.004 C 
HETATM   11  C9  UNL     1       7.422   8.660  -0.710  1.00  0.00     0.033 C 
HETATM   12  C10 UNL     1       7.304  10.014  -1.360  1.00  0.00     0.190 C 
HETATM   13  C12 UNL     1       8.164  11.044  -0.690  1.00  0.00     0.072 C 
ENDROOT
BRANCH   4  14
HETATM   14  C5  UNL     1       7.018  14.702   0.606  1.00  0.00     0.262 C 
BRANCH  14  15
HETATM   15  N1  UNL     1       6.334  15.617   1.474  1.00  0.00    -0.077 N 
ATOM     16  H13 UNL     1       5.467  15.200   1.813  1.00  0.00     0.274 HD
ATOM     17  H12 UNL     1       6.841  15.713   2.354  1.00  0.00     0.274 HD
ATOM     18  H11 UNL     1       6.148  16.535   1.071  1.00  0.00     0.274 HD
ENDBRANCH  14  15
ENDBRANCH   4  14
BRANCH  12  19
HETATM   19  N3  UNL     1       5.940  10.436  -1.555  1.00  0.00    -0.047 N 
ATOM     20  H32 UNL     1       5.534  10.805  -0.696  1.00  0.00     0.279 HD
ATOM     21  H31 UNL     1       5.886  11.279  -2.128  1.00  0.00     0.279 HD
BRANCH  19  22
HETATM   22  C11 UNL     1       5.133   9.358  -2.110  1.00  0.00     0.460 C 
BRANCH  22  23
HETATM   23  N4  UNL     1       3.756   9.842  -2.150  1.00  0.00    -0.055 N 
ATOM     24  H43 UNL     1       3.301   9.836  -1.237  1.00  0.00     0.276 HD
ATOM     25  H42 UNL     1       3.687  10.845  -2.322  1.00  0.00     0.276 HD
ATOM     26  H41 UNL     1       3.267   9.279  -2.846  1.00  0.00     0.276 HD
ENDBRANCH  22  23
ENDBRANCH  19  22
ENDBRANCH  12  19
TORSDOF 5
ENDMDL
MODEL 3
REMARK VINA RESULT: -5.238058457      2.213      4.108
REMARK  5 active torsions:
REMARK  status: ('A' for Active; 'I' for Inactive)
REMARK    1  A    between atoms: C4_4  and  C5_5 
REMARK    2  A    between atoms: C5_5  and  N1_6 
REMARK    3  A    between atoms: C10_17  and  N3_18 
REMARK    4  A    between atoms: N3_18  and  C11_21 
REMARK    5  A    between atoms: C11_21  and  N4_22 
ROOT
HETATM    1  C1  UNL     1      11.503  10.288   0.182  1.00  0.00     0.012 C 
HETATM    2  C2  UNL     1      10.518  10.382   1.307  1.00  0.00     0.019 C 
HETATM    3  C3  UNL     1       9.450   9.324   1.047  1.00  0.00     0.041 C 
HETATM    4  C4  UNL     1       8.593  10.033   0.040  1.00  0.00     0.212 C 
HETATM    5  N2  UNL     1       8.655  11.441   0.329  1.00  0.00    -0.060 N 
ATOM      6  H21 UNL     1       7.759  11.822   0.628  1.00  0.00     0.278 HD
ATOM      7  H22 UNL     1       8.773  12.010  -0.509  1.00  0.00     0.278 HD
HETATM    8  C6  UNL     1       9.703  11.651   1.298  1.00  0.00     0.131 C 
HETATM    9  C7  UNL     1      10.526  12.878   1.003  1.00  0.00     0.039 C 
HETATM   10  C8  UNL     1      11.076  13.383   2.315  1.00  0.00     0.004 C 
HETATM   11  C9  UNL     1       9.951  14.095   3.022  1.00  0.00     0.033 C 
HETATM   12  C10 UNL     1       8.751  13.185   3.056  1.00  0.00     0.190 C 
HETATM   13  C12 UNL     1       9.092  11.778   2.666  1.00  0.00     0.072 C 
ENDROOT
BRANCH   4  14
HETATM   14  C5  UNL     1       7.208   9.492  -0.092  1.00  0.00     0.262 C 
BRANCH  14  15
HETATM   15  N1  UNL     1       6.888   8.421   0.806  1.00  0.00    -0.077 N 
ATOM     16  H13 UNL     1       7.731   8.091   1.277  1.00  0.00     0.274 HD
ATOM     17  H12 UNL     1       6.366   8.777   1.607  1.00  0.00     0.274 HD
ATOM     18  H11 UNL     1       6.393   7.637   0.382  1.00  0.00     0.274 HD
ENDBRANCH  14  15
ENDBRANCH   4  14
BRANCH  12  19
HETATM   19  N3  UNL     1       7.609  13.719   2.359  1.00  0.00    -0.047 N 
ATOM     20  H32 UNL     1       7.307  13.104   1.604  1.00  0.00     0.279 HD
ATOM     21  H31 UNL     1       6.767  13.685   2.934  1.00  0.00     0.279 HD
BRANCH  19  22
HETATM   22  C11 UNL     1       7.875  15.068   1.877  1.00  0.00     0.460 C 
BRANCH  22  23
HETATM   23  N4  UNL     1       6.591  15.763   1.847  1.00  0.00    -0.055 N 
ATOM     24  H43 UNL     1       5.791  15.131   1.829  1.00  0.00     0.276 HD
ATOM     25  H42 UNL     1       6.366  16.231   2.725  1.00  0.00     0.276 HD
ATOM     26  H41 UNL     1       6.620  16.398   1.049  1.00  0.00     0.276 HD
ENDBRANCH  22  23
ENDBRANCH  19  22
ENDBRANCH  12  19
TORSDOF 5
ENDMDL
MODEL 4
REMARK VINA RESULT: -5.158242968      3.014      5.036
REMARK  5 active torsions:
REMARK  status: ('A' for Active; 'I' for Inactive)
REMARK    1  A    between atoms: C4_4  and  C5_5 
REMARK    2  A    between atoms: C5_5  and  N1_6 
REMARK    3  A    between atoms: C10_17  and  N3_18 
REMARK    4  A    between atoms: N3_18  and  C11_21 
REMARK    5  A    between atoms: C11_21  and  N4_22 
ROOT
HETATM    1  C1  UNL     1       9.375   9.530   0.960  1.00  0.00     0.012 C 
HETATM    2  C2  UNL     1       8.896  10.278  -0.246  1.00  0.00     0.019 C 
HETATM    3  C3  UNL     1       9.024  11.763   0.078  1.00  0.00     0.041 C 
HETATM    4  C4  UNL     1       7.781  11.981   0.890  1.00  0.00     0.212 C 
HETATM    5  N2  UNL     1       6.776  11.076   0.400  1.00  0.00    -0.060 N 
ATOM      6  H21 UNL     1       5.986  11.558  -0.029  1.00  0.00     0.278 HD
ATOM      7  H22 UNL     1       6.263  10.613   1.150  1.00  0.00     0.278 HD
HETATM    8  C6  UNL     1       7.415  10.144  -0.498  1.00  0.00     0.131 C 
HETATM    9  C7  UNL     1       6.913   8.735  -0.321  1.00  0.00     0.039 C 
HETATM   10  C8  UNL     1       7.079   8.024  -1.643  1.00  0.00     0.004 C 
HETATM   11  C9  UNL     1       5.964   8.495  -2.542  1.00  0.00     0.033 C 
HETATM   12  C10 UNL     1       5.947  10.001  -2.541  1.00  0.00     0.190 C 
HETATM   13  C12 UNL     1       7.179  10.584  -1.915  1.00  0.00     0.072 C 
ENDROOT
BRANCH   4  14
HETATM   14  C5  UNL     1       7.337  13.402   0.984  1.00  0.00     0.262 C 
BRANCH  14  15
HETATM   15  N1  UNL     1       5.916  13.591   1.037  1.00  0.00    -0.077 N 
ATOM     16  H13 UNL     1       5.447  12.698   1.192  1.00  0.00     0.274 HD
ATOM     17  H12 UNL     1       5.657  14.079   1.894  1.00  0.00     0.274 HD
ATOM     18  H11 UNL     1       5.514  14.063   0.228  1.00  0.00     0.274 HD
ENDBRANCH  14  15
ENDBRANCH   4  14
BRANCH  12  19
HETATM   19  N3  UNL     1       4.719  10.558  -2.031  1.00  0.00    -0.047 N 
ATOM     20  H32 UNL     1       4.759  10.693  -1.022  1.00  0.00     0.279 HD
ATOM     21  H31 UNL     1       4.602  11.530  -2.315  1.00  0.00     0.279 HD
BRANCH  19  22
HETATM   22  C11 UNL     1       3.575   9.744  -2.419  1.00  0.00     0.460 C 
BRANCH  22  23
HETATM   23  N4  UNL     1       3.054  10.316  -3.657  1.00  0.00    -0.055 N 
ATOM     24  H43 UNL     1       2.094  10.650  -3.573  1.00  0.00     0.276 HD
ATOM     25  H42 UNL     1       3.481  11.211  -3.898  1.00  0.00     0.276 HD
ATOM     26  H41 UNL     1       3.171   9.606  -4.380  1.00  0.00     0.276 HD
ENDBRANCH  22  23
ENDBRANCH  19  22
ENDBRANCH  12  19
TORSDOF 5
ENDMDL
MODEL 5
REMARK VINA RESULT: -5.107312445      1.502      4.667
REMARK  5 active torsions:
REMARK  status: ('A' for Active; 'I' for Inactive)
REMARK    1  A    between atoms: C4_4  and  C5_5 
REMARK    2  A    between atoms: C5_5  and  N1_6 
REMARK    3  A    between atoms: C10_17  and  N3_18 
REMARK    4  A    between atoms: N3_18  and  C11_21 
REMARK    5  A    between atoms: C11_21  and  N4_22 
ROOT
HETATM    1  C1  UNL     1       8.897  12.185   3.106  1.00  0.00     0.012 C 
HETATM    2  C2  UNL     1       9.004  12.327   1.618  1.00  0.00     0.019 C 
HETATM    3  C3  UNL     1       7.789  11.625   1.020  1.00  0.00     0.041 C 
HETATM    4  C4  UNL     1       8.241  10.195   1.065  1.00  0.00     0.212 C 
HETATM    5  N2  UNL     1       9.670  10.184   0.901  1.00  0.00    -0.060 N 
ATOM      6  H21 UNL     1       9.964   9.734   0.035  1.00  0.00     0.278 HD
ATOM      7  H22 UNL     1      10.136   9.550   1.550  1.00  0.00     0.278 HD
HETATM    8  C6  UNL     1      10.141  11.543   1.012  1.00  0.00     0.131 C 
HETATM    9  C7  UNL     1      11.418  11.649   1.805  1.00  0.00     0.039 C 
HETATM   10  C8  UNL     1      12.158  12.870   1.314  1.00  0.00     0.004 C 
HETATM   11  C9  UNL     1      12.799  12.502   0.001  1.00  0.00     0.033 C 
HETATM   12  C10 UNL     1      11.750  11.897  -0.895  1.00  0.00     0.190 C 
HETATM   13  C12 UNL     1      10.362  12.103  -0.365  1.00  0.00     0.072 C 
ENDROOT
BRANCH   4  14
HETATM   14  C5  UNL     1       7.508   9.279   0.142  1.00  0.00     0.262 C 
BRANCH  14  15
HETATM   15  N1  UNL     1       6.730   8.263   0.789  1.00  0.00    -0.077 N 
ATOM     16  H13 UNL     1       7.302   7.758   1.466  1.00  0.00     0.274 HD
ATOM     17  H12 UNL     1       6.047   8.688   1.415  1.00  0.00     0.274 HD
ATOM     18  H11 UNL     1       6.270   7.606   0.159  1.00  0.00     0.274 HD
ENDBRANCH  14  15
ENDBRANCH   4  14
BRANCH  12  19
HETATM   19  N3  UNL     1      12.033  10.534  -1.267  1.00  0.00    -0.047 N 
ATOM     20  H32 UNL     1      12.766  10.130  -0.685  1.00  0.00     0.279 HD
ATOM     21  H31 UNL     1      11.268   9.909  -1.012  1.00  0.00     0.279 HD
BRANCH  19  22
HETATM   22  C11 UNL     1      12.357  10.435  -2.684  1.00  0.00     0.460 C 
BRANCH  22  23
HETATM   23  N4  UNL     1      13.619   9.706  -2.775  1.00  0.00    -0.055 N 
ATOM     24  H43 UNL     1      13.507   8.695  -2.696  1.00  0.00     0.276 HD
ATOM     25  H42 UNL     1      14.024   9.717  -3.711  1.00  0.00     0.276 HD
ATOM     26  H41 UNL     1      14.236  10.098  -2.064  1.00  0.00     0.276 HD
ENDBRANCH  22  23
ENDBRANCH  19  22
ENDBRANCH  12  19
TORSDOF 5
ENDMDL
