MODEL 1
REMARK VINA RESULT: -7.354999404      0.000      0.000
REMARK  6 active torsions:
REMARK  status: ('A' for Active; 'I' for Inactive)
REMARK    1  A    between atoms: N1_1  and  C1_4 
REMARK    2  A    between atoms: C2_9  and  N4_10 
REMARK    3  A    between atoms: N4_10  and  C3_12 
REMARK    4  A    between atoms: C3_12  and  C4_13 
REMARK    5  A    between atoms: C4_13  and  O1_14 
REMARK    6  A    between atoms: O1_14  and  C5_15 
ROOT
HETATM    1  C1  UNL     1       8.181  10.249   1.982  1.00  0.00     0.705 A 
HETATM    2  N2  UNL     1       8.859   9.125   1.754  1.00  0.00    -0.118 N 
ATOM      3  H2  UNL     1       9.713   8.833   2.229  1.00  0.00     0.206 HD
HETATM    4  N3  UNL     1       8.223   8.451   0.794  1.00  0.00    -0.117 N 
ATOM      5  H3  UNL     1       8.517   7.550   0.414  1.00  0.00     0.206 HD
HETATM    6  C2  UNL     1       7.137   9.138   0.404  1.00  0.00     0.707 A 
HETATM    7  N5  UNL     1       7.117  10.259   1.150  1.00  0.00    -0.020 N 
ATOM      8  H5  UNL     1       6.414  10.996   1.095  1.00  0.00     0.203 HD
ENDROOT
BRANCH   6   9
HETATM    9  N4  UNL     1       6.290   8.790  -0.502  1.00  0.00    -0.222 N 
ATOM     10  H4  UNL     1       5.292   8.758  -0.296  1.00  0.00     0.177 HD
BRANCH   9  11
HETATM   11  C3  UNL     1       6.786   8.443  -1.826  1.00  0.00     0.164 C 
BRANCH  11  12
HETATM   12  C4  UNL     1       7.025   9.646  -2.676  1.00  0.00     0.188 C 
BRANCH  12  13
HETATM   13  O1  UNL     1       6.497   9.481  -3.921  1.00  0.00    -0.384 OA
BRANCH  13  14
HETATM   14  C5  UNL     1       5.148   9.450  -4.051  1.00  0.00     0.121 C 
HETATM   15  C6  UNL     1       4.662   9.711  -5.460  1.00  0.00     0.032 C 
HETATM   16  C7  UNL     1       3.390  10.491  -5.503  1.00  0.00     0.002 C 
HETATM   17  C8  UNL     1       2.378  10.095  -4.482  1.00  0.00     0.000 C 
HETATM   18  C9  UNL     1       2.968   9.929  -3.100  1.00  0.00     0.002 C 
HETATM   19  C10 UNL     1       4.418  10.430  -3.157  1.00  0.00     0.032 C 
ENDBRANCH  13  14
ENDBRANCH  12  13
ENDBRANCH  11  12
ENDBRANCH   9  11
ENDBRANCH   6   9
BRANCH   1  20
HETATM   20  N1  UNL     1       8.474  11.174   2.842  1.00  0.00    -0.233 N 
ATOM     21  H12 UNL     1       9.149  11.086   3.601  1.00  0.00     0.174 HD
ATOM     22  H11 UNL     1       8.081  12.115   2.888  1.00  0.00     0.174 HD
ENDBRANCH   1  20
TORSDOF 6
ENDMDL
MODEL 2
REMARK VINA RESULT: -7.316112079      0.878      1.097
REMARK  6 active torsions:
REMARK  status: ('A' for Active; 'I' for Inactive)
REMARK    1  A    between atoms: N1_1  and  C1_4 
REMARK    2  A    between atoms: C2_9  and  N4_10 
REMARK    3  A    between atoms: N4_10  and  C3_12 
REMARK    4  A    between atoms: C3_12  and  C4_13 
REMARK    5  A    between atoms: C4_13  and  O1_14 
REMARK    6  A    between atoms: O1_14  and  C5_15 
ROOT
HETATM    1  C1  UNL     1       8.182  10.183   1.971  1.00  0.00     0.705 A 
HETATM    2  N2  UNL     1       8.802   9.035   1.701  1.00  0.00    -0.118 N 
ATOM      3  H2  UNL     1       9.642   8.684   2.161  1.00  0.00     0.206 HD
HETATM    4  N3  UNL     1       8.130   8.427   0.721  1.00  0.00    -0.117 N 
ATOM      5  H3  UNL     1       8.376   7.527   0.309  1.00  0.00     0.206 HD
HETATM    6  C2  UNL     1       7.078   9.182   0.361  1.00  0.00     0.707 A 
HETATM    7  N5  UNL     1       7.118  10.275   1.145  1.00  0.00    -0.020 N 
ATOM      8  H5  UNL     1       6.453  11.048   1.119  1.00  0.00     0.203 HD
ENDROOT
BRANCH   6   9
HETATM    9  N4  UNL     1       6.212   8.908  -0.553  1.00  0.00    -0.222 N 
ATOM     10  H4  UNL     1       5.257   8.652  -0.304  1.00  0.00     0.177 HD
BRANCH   9  11
HETATM   11  C3  UNL     1       6.623   8.972  -1.948  1.00  0.00     0.164 C 
BRANCH  11  12
HETATM   12  C4  UNL     1       6.193  10.240  -2.608  1.00  0.00     0.188 C 
BRANCH  12  13
HETATM   13  O1  UNL     1       4.834  10.343  -2.635  1.00  0.00    -0.384 OA
BRANCH  13  14
HETATM   14  C5  UNL     1       4.164   9.770  -3.665  1.00  0.00     0.121 C 
HETATM   15  C6  UNL     1       4.810   9.992  -5.016  1.00  0.00     0.032 C 
HETATM   16  C7  UNL     1       3.816  10.168  -6.115  1.00  0.00     0.002 C 
HETATM   17  C8  UNL     1       2.642   9.252  -6.050  1.00  0.00     0.000 C 
HETATM   18  C9  UNL     1       2.039   9.163  -4.666  1.00  0.00     0.002 C 
HETATM   19  C10 UNL     1       2.726  10.226  -3.797  1.00  0.00     0.032 C 
ENDBRANCH  13  14
ENDBRANCH  12  13
ENDBRANCH  11  12
ENDBRANCH   9  11
ENDBRANCH   6   9
BRANCH   1  20
HETATM   20  N1  UNL     1       8.525  11.062   2.862  1.00  0.00    -0.233 N 
ATOM     21  H12 UNL     1       8.559  12.071   2.717  1.00  0.00     0.174 HD
ATOM     22  H11 UNL     1       8.806  10.879   3.825  1.00  0.00     0.174 HD
ENDBRANCH   1  20
TORSDOF 6
ENDMDL
MODEL 3
REMARK VINA RESULT: -7.160006874      0.644      1.367
REMARK  6 active torsions:
REMARK  status: ('A' for Active; 'I' for Inactive)
REMARK    1  A    between atoms: N1_1  and  C1_4 
REMARK    2  A    between atoms: C2_9  and  N4_10 
REMARK    3  A    between atoms: N4_10  and  C3_12 
REMARK    4  A    between atoms: C3_12  and  C4_13 
REMARK    5  A    between atoms: C4_13  and  O1_14 
REMARK    6  A    between atoms: O1_14  and  C5_15 
ROOT
HETATM    1  C1  UNL     1       8.234  10.227   2.018  1.00  0.00     0.705 A 
HETATM    2  N2  UNL     1       8.909   9.110   1.746  1.00  0.00    -0.118 N 
ATOM      3  H2  UNL     1       9.787   8.820   2.176  1.00  0.00     0.206 HD
HETATM    4  N3  UNL     1       8.232   8.439   0.812  1.00  0.00    -0.117 N 
ATOM      5  H3  UNL     1       8.513   7.545   0.410  1.00  0.00     0.206 HD
HETATM    6  C2  UNL     1       7.122   9.122   0.483  1.00  0.00     0.707 A 
HETATM    7  N5  UNL     1       7.131  10.235   1.239  1.00  0.00    -0.020 N 
ATOM      8  H5  UNL     1       6.420  10.967   1.225  1.00  0.00     0.203 HD
ENDROOT
BRANCH   6   9
HETATM    9  N4  UNL     1       6.235   8.775  -0.384  1.00  0.00    -0.222 N 
ATOM     10  H4  UNL     1       5.241   8.816  -0.156  1.00  0.00     0.177 HD
BRANCH   9  11
HETATM   11  C3  UNL     1       6.676   8.323  -1.696  1.00  0.00     0.164 C 
BRANCH  11  12
HETATM   12  C4  UNL     1       6.811   9.449  -2.667  1.00  0.00     0.188 C 
BRANCH  12  13
HETATM   13  O1  UNL     1       5.877  10.414  -2.434  1.00  0.00    -0.384 OA
BRANCH  13  14
HETATM   14  C5  UNL     1       4.847  10.538  -3.305  1.00  0.00     0.121 C 
HETATM   15  C6  UNL     1       3.526  10.033  -2.767  1.00  0.00     0.032 C 
HETATM   16  C7  UNL     1       2.683   9.380  -3.811  1.00  0.00     0.002 C 
HETATM   17  C8  UNL     1       2.676  10.072  -5.133  1.00  0.00     0.000 C 
HETATM   18  C9  UNL     1       4.058  10.469  -5.599  1.00  0.00     0.002 C 
HETATM   19  C10 UNL     1       5.068   9.838  -4.629  1.00  0.00     0.032 C 
ENDBRANCH  13  14
ENDBRANCH  12  13
ENDBRANCH  11  12
ENDBRANCH   9  11
ENDBRANCH   6   9
BRANCH   1  20
HETATM   20  N1  UNL     1       8.563  11.146   2.871  1.00  0.00    -0.233 N 
ATOM     21  H12 UNL     1       9.072  10.994   3.741  1.00  0.00     0.174 HD
ATOM     22  H11 UNL     1       8.364  12.145   2.801  1.00  0.00     0.174 HD
ENDBRANCH   1  20
TORSDOF 6
ENDMDL
MODEL 4
REMARK VINA RESULT: -7.159542844      1.157      1.361
REMARK  6 active torsions:
REMARK  status: ('A' for Active; 'I' for Inactive)
REMARK    1  A    between atoms: N1_1  and  C1_4 
REMARK    2  A    between atoms: C2_9  and  N4_10 
REMARK    3  A    between atoms: N4_10  and  C3_12 
REMARK    4  A    between atoms: C3_12  and  C4_13 
REMARK    5  A    between atoms: C4_13  and  O1_14 
REMARK    6  A    between atoms: O1_14  and  C5_15 
ROOT
HETATM    1  C1  UNL     1       8.297  10.958   2.275  1.00  0.00     0.705 A 
HETATM    2  N2  UNL     1       9.321  10.135   2.048  1.00  0.00    -0.118 N 
ATOM      3  H2  UNL     1      10.288  10.288   2.332  1.00  0.00     0.206 HD
HETATM    4  N3  UNL     1       8.855   9.077   1.381  1.00  0.00    -0.117 N 
ATOM      5  H3  UNL     1       9.415   8.283   1.072  1.00  0.00     0.206 HD
HETATM    6  C2  UNL     1       7.534   9.218   1.179  1.00  0.00     0.707 A 
HETATM    7  N5  UNL     1       7.194  10.394   1.740  1.00  0.00    -0.020 N 
ATOM      8  H5  UNL     1       6.255  10.793   1.757  1.00  0.00     0.203 HD
ENDROOT
BRANCH   6   9
HETATM    9  N4  UNL     1       6.756   8.391   0.570  1.00  0.00    -0.222 N 
ATOM     10  H4  UNL     1       6.077   7.835   1.091  1.00  0.00     0.177 HD
BRANCH   9  11
HETATM   11  C3  UNL     1       6.864   8.265  -0.876  1.00  0.00     0.164 C 
BRANCH  11  12
HETATM   12  C4  UNL     1       5.964   9.213  -1.597  1.00  0.00     0.188 C 
BRANCH  12  13
HETATM   13  O1  UNL     1       4.722   8.680  -1.764  1.00  0.00    -0.384 OA
BRANCH  13  14
HETATM   14  C5  UNL     1       4.061   8.934  -2.920  1.00  0.00     0.121 C 
HETATM   15  C6  UNL     1       4.947   9.450  -4.033  1.00  0.00     0.032 C 
HETATM   16  C7  UNL     1       4.273  10.467  -4.892  1.00  0.00     0.002 C 
HETATM   17  C8  UNL     1       2.851  10.163  -5.222  1.00  0.00     0.000 C 
HETATM   18  C9  UNL     1       2.046   9.723  -4.020  1.00  0.00     0.002 C 
HETATM   19  C10 UNL     1       2.927   9.928  -2.779  1.00  0.00     0.032 C 
ENDBRANCH  13  14
ENDBRANCH  12  13
ENDBRANCH  11  12
ENDBRANCH   9  11
ENDBRANCH   6   9
BRANCH   1  20
HETATM   20  N1  UNL     1       8.338  12.097   2.896  1.00  0.00    -0.233 N 
ATOM     21  H12 UNL     1       8.834  12.928   2.578  1.00  0.00     0.174 HD
ATOM     22  H11 UNL     1       7.885  12.327   3.781  1.00  0.00     0.174 HD
ENDBRANCH   1  20
TORSDOF 6
ENDMDL
MODEL 5
REMARK VINA RESULT: -7.122971109      1.613      2.108
REMARK  6 active torsions:
REMARK  status: ('A' for Active; 'I' for Inactive)
REMARK    1  A    between atoms: N1_1  and  C1_4 
REMARK    2  A    between atoms: C2_9  and  N4_10 
REMARK    3  A    between atoms: N4_10  and  C3_12 
REMARK    4  A    between atoms: C3_12  and  C4_13 
REMARK    5  A    between atoms: C4_13  and  O1_14 
REMARK    6  A    between atoms: O1_14  and  C5_15 
ROOT
HETATM    1  C1  UNL     1       8.981   9.624   0.691  1.00  0.00     0.705 A 
HETATM    2  N2  UNL     1       8.226   8.725   1.322  1.00  0.00    -0.118 N 
ATOM      3  H2  UNL     1       8.489   8.199   2.155  1.00  0.00     0.206 HD
HETATM    4  N3  UNL     1       7.066   8.635   0.669  1.00  0.00    -0.117 N 
ATOM      5  H3  UNL     1       6.291   8.023   0.927  1.00  0.00     0.206 HD
HETATM    6  C2  UNL     1       7.073   9.474  -0.380  1.00  0.00     0.707 A 
HETATM    7  N5  UNL     1       8.271  10.087  -0.360  1.00  0.00    -0.020 N 
ATOM      8  H5  UNL     1       8.591  10.787  -1.029  1.00  0.00     0.203 HD
ENDROOT
BRANCH   6   9
HETATM    9  N4  UNL     1       6.121   9.651  -1.231  1.00  0.00    -0.222 N 
ATOM     10  H4  UNL     1       5.862  10.589  -1.534  1.00  0.00     0.177 HD
BRANCH   9  11
HETATM   11  C3  UNL     1       5.424   8.484  -1.752  1.00  0.00     0.164 C 
BRANCH  11  12
HETATM   12  C4  UNL     1       3.944   8.673  -1.779  1.00  0.00     0.188 C 
BRANCH  12  13
HETATM   13  O1  UNL     1       3.585   9.609  -2.703  1.00  0.00    -0.384 OA
BRANCH  13  14
HETATM   14  C5  UNL     1       3.338   9.201  -3.971  1.00  0.00     0.121 C 
HETATM   15  C6  UNL     1       4.209   9.872  -5.012  1.00  0.00     0.032 C 
HETATM   16  C7  UNL     1       3.490  10.133  -6.293  1.00  0.00     0.002 C 
HETATM   17  C8  UNL     1       2.595   9.030  -6.745  1.00  0.00     0.000 C 
HETATM   18  C9  UNL     1       1.724   8.484  -5.636  1.00  0.00     0.002 C 
HETATM   19  C10 UNL     1       1.905   9.401  -4.418  1.00  0.00     0.032 C 
ENDBRANCH  13  14
ENDBRANCH  12  13
ENDBRANCH  11  12
ENDBRANCH   9  11
ENDBRANCH   6   9
BRANCH   1  20
HETATM   20  N1  UNL     1      10.181   9.996   1.014  1.00  0.00    -0.233 N 
ATOM     21  H12 UNL     1      10.674  10.804   0.634  1.00  0.00     0.174 HD
ATOM     22  H11 UNL     1      10.801   9.545   1.687  1.00  0.00     0.174 HD
ENDBRANCH   1  20
TORSDOF 6
ENDMDL
