MODEL 1
REMARK VINA RESULT: -6.989793545      0.000      0.000
REMARK  7 active torsions:
REMARK  status: ('A' for Active; 'I' for Inactive)
REMARK    1  A    between atoms: N1_1  and  C1_4 
REMARK       I    between atoms: N4_13  and  C5_14 
REMARK    2  A    between atoms: N6_16  and  C6_18 
REMARK    3  A    between atoms: C6_18  and  C7_19 
REMARK    4  A    between atoms: C7_19  and  C8_20 
REMARK    5  A    between atoms: C8_20  and  N7_21 
REMARK       I    between atoms: N7_21  and  C9_23 
REMARK    6  A    between atoms: C9_23  and  C10_25 
REMARK    7  A    between atoms: C10_25  and  N8_26 
ROOT
HETATM    1  C1  UNL     1     -12.935  66.680  19.448  1.00  0.00     0.680 A 
HETATM    2  N2  UNL     1     -13.763  67.402  18.667  1.00  0.00    -0.154 N 
ATOM      3  H2  UNL     1     -14.475  66.932  18.108  1.00  0.00     0.187 HD
HETATM    4  C2  UNL     1     -13.652  68.744  18.623  1.00  0.00     0.290 A 
HETATM    5  O1  UNL     1     -14.407  69.438  17.907  1.00  0.00    -0.265 OA
HETATM    6  C3  UNL     1     -12.675  69.333  19.399  1.00  0.00     0.148 A 
HETATM    7  N3  UNL     1     -12.321  70.618  19.569  1.00  0.00    -0.344 N 
ATOM      8  H3  UNL     1     -12.754  71.421  19.114  1.00  0.00     0.167 HD
HETATM    9  C4  UNL     1     -11.312  70.663  20.427  1.00  0.00     0.193 A 
HETATM   10  N4  UNL     1     -10.969  69.412  20.848  1.00  0.00    -0.265 N 
HETATM   11  C5  UNL     1      -9.939  69.067  21.764  1.00  0.00     0.197 C 
HETATM   12  N5  UNL     1      -8.598  69.131  21.297  1.00  0.00    -0.063 NA
HETATM   13  N6  UNL     1     -10.128  68.699  22.982  1.00  0.00    -0.364 N 
ATOM     14  H6  UNL     1      -9.315  68.472  23.555  1.00  0.00     0.162 HD
HETATM   15  C13 UNL     1     -11.824  68.589  20.203  1.00  0.00     0.163 A 
HETATM   16  N11 UNL     1     -11.986  67.267  20.199  1.00  0.00    -0.174 N 
ATOM     17  H11 UNL     1     -11.378  66.687  20.778  1.00  0.00     0.186 HD
ENDROOT
BRANCH  13  18
HETATM   18  C6  UNL     1     -11.447  68.594  23.577  1.00  0.00     0.124 C 
BRANCH  18  19
HETATM   19  C7  UNL     1     -11.819  69.858  24.324  1.00  0.00     0.039 C 
BRANCH  19  20
HETATM   20  C8  UNL     1     -10.729  70.276  25.276  1.00  0.00     0.124 C 
BRANCH  20  21
HETATM   21  N7  UNL     1     -10.164  71.536  24.870  1.00  0.00    -0.360 N 
HETATM   22  C9  UNL     1      -9.074  72.186  25.476  1.00  0.00     0.237 C 
HETATM   23  O2  UNL     1      -8.494  71.671  26.474  1.00  0.00    -0.272 OA
ATOM     24  H7  UNL     1     -10.592  71.999  24.069  1.00  0.00     0.162 HD
BRANCH  22  25
HETATM   25  C10 UNL     1      -8.557  73.502  24.972  1.00  0.00     0.252 C 
BRANCH  25  26
HETATM   26  N8  UNL     1      -7.373  73.287  24.179  1.00  0.00    -0.278 N 
HETATM   27  C11 UNL     1      -7.166  72.275  23.329  1.00  0.00     0.201 A 
HETATM   28  N9  UNL     1      -5.935  72.431  22.781  1.00  0.00    -0.346 N 
HETATM   29  C12 UNL     1      -5.389  73.541  23.299  1.00  0.00     0.198 A 
ATOM     30  H9  UNL     1      -5.500  71.813  22.096  1.00  0.00     0.167 HD
HETATM   31  N10 UNL     1      -6.303  74.037  24.152  1.00  0.00    -0.293 N 
ATOM     32  H10 UNL     1      -6.178  74.884  24.705  1.00  0.00     0.188 HD
ENDBRANCH  25  26
ENDBRANCH  22  25
ENDBRANCH  20  21
ENDBRANCH  19  20
ENDBRANCH  18  19
ENDBRANCH  13  18
BRANCH   1  33
HETATM   33  N1  UNL     1     -13.066  65.405  19.467  1.00  0.00    -0.234 N 
ATOM     34  H12 UNL     1     -12.287  64.811  19.184  1.00  0.00     0.174 HD
ATOM     35  H11 UNL     1     -13.957  65.011  19.769  1.00  0.00     0.174 HD
ENDBRANCH   1  33
TORSDOF 7
ENDMDL
MODEL 2
REMARK VINA RESULT: -6.884521020      2.804      8.006
REMARK  7 active torsions:
REMARK  status: ('A' for Active; 'I' for Inactive)
REMARK    1  A    between atoms: N1_1  and  C1_4 
REMARK       I    between atoms: N4_13  and  C5_14 
REMARK    2  A    between atoms: N6_16  and  C6_18 
REMARK    3  A    between atoms: C6_18  and  C7_19 
REMARK    4  A    between atoms: C7_19  and  C8_20 
REMARK    5  A    between atoms: C8_20  and  N7_21 
REMARK       I    between atoms: N7_21  and  C9_23 
REMARK    6  A    between atoms: C9_23  and  C10_25 
REMARK    7  A    between atoms: C10_25  and  N8_26 
ROOT
HETATM    1  C1  UNL     1     -10.415  69.306  26.930  1.00  0.00     0.680 A 
HETATM    2  N2  UNL     1      -9.543  68.579  27.656  1.00  0.00    -0.154 N 
ATOM      3  H2  UNL     1      -9.703  67.581  27.795  1.00  0.00     0.187 HD
HETATM    4  C2  UNL     1      -8.460  69.167  28.200  1.00  0.00     0.290 A 
HETATM    5  O1  UNL     1      -7.636  68.517  28.878  1.00  0.00    -0.265 OA
HETATM    6  C3  UNL     1      -8.287  70.519  27.982  1.00  0.00     0.148 A 
HETATM    7  N3  UNL     1      -7.331  71.374  28.381  1.00  0.00    -0.344 N 
ATOM      8  H3  UNL     1      -6.520  71.138  28.952  1.00  0.00     0.167 HD
HETATM    9  C4  UNL     1      -7.621  72.576  27.906  1.00  0.00     0.193 A 
HETATM   10  N4  UNL     1      -8.776  72.552  27.181  1.00  0.00    -0.265 N 
HETATM   11  C5  UNL     1      -9.400  73.646  26.523  1.00  0.00     0.197 C 
HETATM   12  N5  UNL     1     -10.084  74.594  27.330  1.00  0.00    -0.063 NA
HETATM   13  N6  UNL     1      -9.393  73.843  25.252  1.00  0.00    -0.364 N 
ATOM     14  H6  UNL     1      -9.874  74.663  24.882  1.00  0.00     0.162 HD
HETATM   15  C13 UNL     1      -9.184  71.266  27.234  1.00  0.00     0.163 A 
HETATM   16  N11 UNL     1     -10.234  70.623  26.726  1.00  0.00    -0.174 N 
ATOM     17  H11 UNL     1     -10.916  71.140  26.170  1.00  0.00     0.186 HD
ENDROOT
BRANCH  13  18
HETATM   18  C6  UNL     1      -8.729  72.949  24.320  1.00  0.00     0.124 C 
BRANCH  18  19
HETATM   19  C7  UNL     1      -9.723  72.274  23.399  1.00  0.00     0.039 C 
BRANCH  19  20
HETATM   20  C8  UNL     1      -9.097  71.114  22.668  1.00  0.00     0.124 C 
BRANCH  20  21
HETATM   21  N7  UNL     1     -10.051  70.049  22.504  1.00  0.00    -0.360 N 
HETATM   22  C9  UNL     1      -9.875  68.897  21.718  1.00  0.00     0.237 C 
HETATM   23  O2  UNL     1      -8.804  68.719  21.070  1.00  0.00    -0.272 OA
ATOM     24  H7  UNL     1     -10.935  70.139  23.003  1.00  0.00     0.162 HD
BRANCH  22  25
HETATM   25  C10 UNL     1     -10.936  67.839  21.615  1.00  0.00     0.252 C 
BRANCH  25  26
HETATM   26  N8  UNL     1     -11.536  67.879  20.304  1.00  0.00    -0.278 N 
HETATM   27  C11 UNL     1     -12.583  67.155  19.894  1.00  0.00     0.201 A 
HETATM   28  N9  UNL     1     -12.840  67.481  18.603  1.00  0.00    -0.346 N 
HETATM   29  C12 UNL     1     -11.946  68.406  18.224  1.00  0.00     0.198 A 
ATOM     30  H9  UNL     1     -13.583  67.091  18.022  1.00  0.00     0.167 HD
HETATM   31  N10 UNL     1     -11.164  68.622  19.297  1.00  0.00    -0.293 N 
ATOM     32  H10 UNL     1     -10.384  69.279  19.320  1.00  0.00     0.188 HD
ENDBRANCH  25  26
ENDBRANCH  22  25
ENDBRANCH  20  21
ENDBRANCH  19  20
ENDBRANCH  18  19
ENDBRANCH  13  18
BRANCH   1  33
HETATM   33  N1  UNL     1     -11.435  68.716  26.427  1.00  0.00    -0.234 N 
ATOM     34  H12 UNL     1     -11.489  67.697  26.436  1.00  0.00     0.174 HD
ATOM     35  H11 UNL     1     -12.179  69.286  26.024  1.00  0.00     0.174 HD
ENDBRANCH   1  33
TORSDOF 7
ENDMDL
MODEL 3
REMARK VINA RESULT: -6.801030967      2.934      4.390
REMARK  7 active torsions:
REMARK  status: ('A' for Active; 'I' for Inactive)
REMARK    1  A    between atoms: N1_1  and  C1_4 
REMARK       I    between atoms: N4_13  and  C5_14 
REMARK    2  A    between atoms: N6_16  and  C6_18 
REMARK    3  A    between atoms: C6_18  and  C7_19 
REMARK    4  A    between atoms: C7_19  and  C8_20 
REMARK    5  A    between atoms: C8_20  and  N7_21 
REMARK       I    between atoms: N7_21  and  C9_23 
REMARK    6  A    between atoms: C9_23  and  C10_25 
REMARK    7  A    between atoms: C10_25  and  N8_26 
ROOT
HETATM    1  C1  UNL     1     -12.927  66.647  19.411  1.00  0.00     0.680 A 
HETATM    2  N2  UNL     1     -13.770  67.365  18.643  1.00  0.00    -0.154 N 
ATOM      3  H2  UNL     1     -14.484  66.890  18.089  1.00  0.00     0.187 HD
HETATM    4  C2  UNL     1     -13.674  68.708  18.604  1.00  0.00     0.290 A 
HETATM    5  O1  UNL     1     -14.443  69.397  17.900  1.00  0.00    -0.265 OA
HETATM    6  C3  UNL     1     -12.694  69.303  19.372  1.00  0.00     0.148 A 
HETATM    7  N3  UNL     1     -12.351  70.590  19.544  1.00  0.00    -0.344 N 
ATOM      8  H3  UNL     1     -12.798  71.391  19.099  1.00  0.00     0.167 HD
HETATM    9  C4  UNL     1     -11.334  70.642  20.392  1.00  0.00     0.193 A 
HETATM   10  N4  UNL     1     -10.974  69.392  20.803  1.00  0.00    -0.265 N 
HETATM   11  C5  UNL     1      -9.930  69.053  21.706  1.00  0.00     0.197 C 
HETATM   12  N5  UNL     1      -8.595  69.133  21.225  1.00  0.00    -0.063 NA
HETATM   13  N6  UNL     1     -10.102  68.678  22.924  1.00  0.00    -0.364 N 
ATOM     14  H6  UNL     1      -9.280  68.456  23.487  1.00  0.00     0.162 HD
HETATM   15  C13 UNL     1     -11.827  68.564  20.163  1.00  0.00     0.163 A 
HETATM   16  N11 UNL     1     -11.976  67.240  20.154  1.00  0.00    -0.174 N 
ATOM     17  H11 UNL     1     -11.355  66.664  20.724  1.00  0.00     0.186 HD
ENDROOT
BRANCH  13  18
HETATM   18  C6  UNL     1     -11.413  68.556  23.533  1.00  0.00     0.124 C 
BRANCH  18  19
HETATM   19  C7  UNL     1     -11.863  69.867  24.143  1.00  0.00     0.039 C 
BRANCH  19  20
HETATM   20  C8  UNL     1     -12.979  69.659  25.133  1.00  0.00     0.124 C 
BRANCH  20  21
HETATM   21  N7  UNL     1     -12.718  68.503  25.950  1.00  0.00    -0.360 N 
HETATM   22  C9  UNL     1     -12.203  68.516  27.259  1.00  0.00     0.237 C 
HETATM   23  O2  UNL     1     -11.922  69.608  27.827  1.00  0.00    -0.272 OA
ATOM     24  H7  UNL     1     -12.925  67.592  25.542  1.00  0.00     0.162 HD
BRANCH  22  25
HETATM   25  C10 UNL     1     -11.969  67.248  28.029  1.00  0.00     0.252 C 
BRANCH  25  26
HETATM   26  N8  UNL     1     -10.613  67.221  28.519  1.00  0.00    -0.278 N 
HETATM   27  C11 UNL     1     -10.191  66.625  29.639  1.00  0.00     0.201 A 
HETATM   28  N9  UNL     1      -8.854  66.827  29.745  1.00  0.00    -0.346 N 
HETATM   29  C12 UNL     1      -8.460  67.550  28.687  1.00  0.00     0.198 A 
ATOM     30  H9  UNL     1      -8.254  66.488  30.498  1.00  0.00     0.167 HD
HETATM   31  N10 UNL     1      -9.569  67.771  27.959  1.00  0.00    -0.293 N 
ATOM     32  H10 UNL     1      -9.592  68.298  27.087  1.00  0.00     0.188 HD
ENDBRANCH  25  26
ENDBRANCH  22  25
ENDBRANCH  20  21
ENDBRANCH  19  20
ENDBRANCH  18  19
ENDBRANCH  13  18
BRANCH   1  33
HETATM   33  N1  UNL     1     -13.044  65.371  19.425  1.00  0.00    -0.234 N 
ATOM     34  H12 UNL     1     -13.333  64.879  18.579  1.00  0.00     0.174 HD
ATOM     35  H11 UNL     1     -12.845  64.872  20.292  1.00  0.00     0.174 HD
ENDBRANCH   1  33
TORSDOF 7
ENDMDL
MODEL 4
REMARK VINA RESULT: -6.702285406      2.917      9.418
REMARK  7 active torsions:
REMARK  status: ('A' for Active; 'I' for Inactive)
REMARK    1  A    between atoms: N1_1  and  C1_4 
REMARK       I    between atoms: N4_13  and  C5_14 
REMARK    2  A    between atoms: N6_16  and  C6_18 
REMARK    3  A    between atoms: C6_18  and  C7_19 
REMARK    4  A    between atoms: C7_19  and  C8_20 
REMARK    5  A    between atoms: C8_20  and  N7_21 
REMARK       I    between atoms: N7_21  and  C9_23 
REMARK    6  A    between atoms: C9_23  and  C10_25 
REMARK    7  A    between atoms: C10_25  and  N8_26 
ROOT
HETATM    1  C1  UNL     1      -7.398  76.843  26.153  1.00  0.00     0.680 A 
HETATM    2  N2  UNL     1      -6.972  76.985  27.424  1.00  0.00    -0.154 N 
ATOM      3  H2  UNL     1      -7.139  77.860  27.922  1.00  0.00     0.187 HD
HETATM    4  C2  UNL     1      -6.328  75.974  28.039  1.00  0.00     0.290 A 
HETATM    5  O1  UNL     1      -5.922  76.079  29.217  1.00  0.00    -0.265 OA
HETATM    6  C3  UNL     1      -6.129  74.811  27.323  1.00  0.00     0.148 A 
HETATM    7  N3  UNL     1      -5.534  73.651  27.649  1.00  0.00    -0.344 N 
ATOM      8  H3  UNL     1      -5.103  73.434  28.547  1.00  0.00     0.167 HD
HETATM    9  C4  UNL     1      -5.602  72.839  26.604  1.00  0.00     0.193 A 
HETATM   10  N4  UNL     1      -6.243  73.437  25.559  1.00  0.00    -0.265 N 
HETATM   11  C5  UNL     1      -6.503  72.878  24.279  1.00  0.00     0.197 C 
HETATM   12  N5  UNL     1      -5.412  72.772  23.375  1.00  0.00    -0.063 NA
HETATM   13  N6  UNL     1      -7.652  72.462  23.875  1.00  0.00    -0.364 N 
ATOM     14  H6  UNL     1      -7.728  72.078  22.933  1.00  0.00     0.162 HD
HETATM   15  C13 UNL     1      -6.568  74.665  26.016  1.00  0.00     0.163 A 
HETATM   16  N11 UNL     1      -7.197  75.704  25.467  1.00  0.00    -0.174 N 
ATOM     17  H11 UNL     1      -7.534  75.633  24.507  1.00  0.00     0.186 HD
ENDROOT
BRANCH  13  18
HETATM   18  C6  UNL     1      -8.843  72.515  24.702  1.00  0.00     0.124 C 
BRANCH  18  19
HETATM   19  C7  UNL     1     -10.016  71.837  24.026  1.00  0.00     0.039 C 
BRANCH  19  20
HETATM   20  C8  UNL     1      -9.592  71.130  22.764  1.00  0.00     0.124 C 
BRANCH  20  21
HETATM   21  N7  UNL     1     -10.429  69.985  22.524  1.00  0.00    -0.360 N 
HETATM   22  C9  UNL     1     -10.085  68.857  21.758  1.00  0.00     0.237 C 
HETATM   23  O2  UNL     1      -8.953  68.779  21.202  1.00  0.00    -0.272 OA
ATOM     24  H7  UNL     1     -11.356  69.992  22.948  1.00  0.00     0.162 HD
BRANCH  22  25
HETATM   25  C10 UNL     1     -11.034  67.709  21.570  1.00  0.00     0.252 C 
BRANCH  25  26
HETATM   26  N8  UNL     1     -11.579  67.742  20.235  1.00  0.00    -0.278 N 
HETATM   27  C11 UNL     1     -12.730  67.188  19.839  1.00  0.00     0.201 A 
HETATM   28  N9  UNL     1     -12.886  67.441  18.516  1.00  0.00    -0.346 N 
HETATM   29  C12 UNL     1     -11.825  68.151  18.104  1.00  0.00     0.198 A 
ATOM     30  H9  UNL     1     -13.671  67.144  17.936  1.00  0.00     0.167 HD
HETATM   31  N10 UNL     1     -11.048  68.314  19.188  1.00  0.00    -0.293 N 
ATOM     32  H10 UNL     1     -10.160  68.816  19.193  1.00  0.00     0.188 HD
ENDBRANCH  25  26
ENDBRANCH  22  25
ENDBRANCH  20  21
ENDBRANCH  19  20
ENDBRANCH  18  19
ENDBRANCH  13  18
BRANCH   1  33
HETATM   33  N1  UNL     1      -8.007  77.824  25.597  1.00  0.00    -0.234 N 
ATOM     34  H12 UNL     1      -8.723  78.335  26.114  1.00  0.00     0.174 HD
ATOM     35  H11 UNL     1      -7.759  78.073  24.640  1.00  0.00     0.174 HD
ENDBRANCH   1  33
TORSDOF 7
ENDMDL
MODEL 5
REMARK VINA RESULT: -6.671227111      2.077      2.662
REMARK  7 active torsions:
REMARK  status: ('A' for Active; 'I' for Inactive)
REMARK    1  A    between atoms: N1_1  and  C1_4 
REMARK       I    between atoms: N4_13  and  C5_14 
REMARK    2  A    between atoms: N6_16  and  C6_18 
REMARK    3  A    between atoms: C6_18  and  C7_19 
REMARK    4  A    between atoms: C7_19  and  C8_20 
REMARK    5  A    between atoms: C8_20  and  N7_21 
REMARK       I    between atoms: N7_21  and  C9_23 
REMARK    6  A    between atoms: C9_23  and  C10_25 
REMARK    7  A    between atoms: C10_25  and  N8_26 
ROOT
HETATM    1  C1  UNL     1     -12.938  66.656  19.448  1.00  0.00     0.680 A 
HETATM    2  N2  UNL     1     -13.750  67.360  18.636  1.00  0.00    -0.154 N 
ATOM      3  H2  UNL     1     -14.461  66.879  18.084  1.00  0.00     0.187 HD
HETATM    4  C2  UNL     1     -13.626  68.699  18.550  1.00  0.00     0.290 A 
HETATM    5  O1  UNL     1     -14.366  69.376  17.805  1.00  0.00    -0.265 OA
HETATM    6  C3  UNL     1     -12.651  69.303  19.318  1.00  0.00     0.148 A 
HETATM    7  N3  UNL     1     -12.287  70.589  19.450  1.00  0.00    -0.344 N 
ATOM      8  H3  UNL     1     -12.708  71.381  18.966  1.00  0.00     0.167 HD
HETATM    9  C4  UNL     1     -11.287  70.652  20.318  1.00  0.00     0.193 A 
HETATM   10  N4  UNL     1     -10.961  69.412  20.782  1.00  0.00    -0.265 N 
HETATM   11  C5  UNL     1      -9.944  69.087  21.719  1.00  0.00     0.197 C 
HETATM   12  N5  UNL     1      -8.598  69.123  21.266  1.00  0.00    -0.063 NA
HETATM   13  N6  UNL     1     -10.149  68.760  22.947  1.00  0.00    -0.364 N 
ATOM     14  H6  UNL     1      -9.344  68.543  23.535  1.00  0.00     0.162 HD
HETATM   15  C13 UNL     1     -11.816  68.578  20.154  1.00  0.00     0.163 A 
HETATM   16  N11 UNL     1     -11.991  67.257  20.190  1.00  0.00    -0.174 N 
ATOM     17  H11 UNL     1     -11.395  66.690  20.794  1.00  0.00     0.186 HD
ENDROOT
BRANCH  13  18
HETATM   18  C6  UNL     1     -11.475  68.686  23.530  1.00  0.00     0.124 C 
BRANCH  18  19
HETATM   19  C7  UNL     1     -11.915  70.028  24.076  1.00  0.00     0.039 C 
BRANCH  19  20
HETATM   20  C8  UNL     1     -10.870  70.623  24.984  1.00  0.00     0.124 C 
BRANCH  20  21
HETATM   21  N7  UNL     1     -10.769  72.043  24.772  1.00  0.00    -0.360 N 
HETATM   22  C9  UNL     1      -9.898  72.684  23.873  1.00  0.00     0.237 C 
HETATM   23  O2  UNL     1      -9.105  72.010  23.156  1.00  0.00    -0.272 OA
ATOM     24  H7  UNL     1     -11.386  72.639  25.324  1.00  0.00     0.162 HD
BRANCH  22  25
HETATM   25  C10 UNL     1      -9.873  74.178  23.725  1.00  0.00     0.252 C 
BRANCH  25  26
HETATM   26  N8  UNL     1     -10.582  74.560  22.529  1.00  0.00    -0.278 N 
HETATM   27  C11 UNL     1     -10.862  75.810  22.144  1.00  0.00     0.201 A 
HETATM   28  N9  UNL     1     -11.538  75.746  20.970  1.00  0.00    -0.346 N 
HETATM   29  C12 UNL     1     -11.673  74.454  20.640  1.00  0.00     0.198 A 
ATOM     30  H9  UNL     1     -11.884  76.542  20.433  1.00  0.00     0.167 HD
HETATM   31  N10 UNL     1     -11.074  73.759  21.622  1.00  0.00    -0.293 N 
ATOM     32  H10 UNL     1     -11.011  72.742  21.655  1.00  0.00     0.188 HD
ENDBRANCH  25  26
ENDBRANCH  22  25
ENDBRANCH  20  21
ENDBRANCH  19  20
ENDBRANCH  18  19
ENDBRANCH  13  18
BRANCH   1  33
HETATM   33  N1  UNL     1     -13.082  65.383  19.506  1.00  0.00    -0.234 N 
ATOM     34  H12 UNL     1     -12.599  64.787  18.834  1.00  0.00     0.174 HD
ATOM     35  H11 UNL     1     -13.682  64.993  20.232  1.00  0.00     0.174 HD
ENDBRANCH   1  33
TORSDOF 7
ENDMDL
