MODEL 1
REMARK VINA RESULT: -6.560632569      0.000      0.000
REMARK  11 active torsions:
REMARK  status: ('A' for Active; 'I' for Inactive)
REMARK    1  A    between atoms: C2_2  and  C3_3 
REMARK    2  A    between atoms: C3_3  and  O1_4 
REMARK    3  A    between atoms: O1_4  and  N1_5 
REMARK    4  A    between atoms: N1_5  and  C4_7 
REMARK    5  A    between atoms: C6_11  and  C7_12 
REMARK    6  A    between atoms: C7_12  and  C8_13 
REMARK    7  A    between atoms: C9_16  and  C10_17 
REMARK       I    between atoms: C10_17  and  N4_19 
REMARK    8  A    between atoms: N4_19  and  C11_21 
REMARK    9  A    between atoms: C11_21  and  C12_22 
REMARK   10  A    between atoms: C12_22  and  O3_23 
REMARK   11  A    between atoms: C15_32  and  N8_33 
ROOT
HETATM    1  C4  UNL     1      -8.753  68.887  28.360  1.00  0.00     0.718 A 
HETATM    2  N2  UNL     1      -9.833  69.194  27.635  1.00  0.00    -0.171 N 
ATOM      3  H2  UNL     1      -9.841  70.038  27.062  1.00  0.00     0.186 HD
HETATM    4  C5  UNL     1     -10.931  68.372  27.665  1.00  0.00     0.172 A 
HETATM    5  C6  UNL     1     -12.148  68.462  27.021  1.00  0.00     0.032 A 
HETATM    6  C14 UNL     1     -12.880  67.348  27.423  1.00  0.00     0.123 A 
HETATM    7  N6  UNL     1     -12.097  66.667  28.256  1.00  0.00    -0.288 N 
ATOM      8  H6  UNL     1     -12.364  65.797  28.715  1.00  0.00     0.187 HD
HETATM    9  N7  UNL     1     -10.935  67.262  28.411  1.00  0.00    -0.069 N 
HETATM   10  C15 UNL     1      -9.839  66.930  29.160  1.00  0.00     0.713 A 
HETATM   11  N9  UNL     1      -8.782  67.744  29.116  1.00  0.00    -0.019 N 
ATOM     12  H9  UNL     1      -7.959  67.506  29.671  1.00  0.00     0.203 HD
ENDROOT
BRANCH   5  13
HETATM   13  C7  UNL     1     -12.554  69.403  26.185  1.00  0.00     0.065 C 
BRANCH  13  14
HETATM   14  C8  UNL     1     -12.032  69.557  24.843  1.00  0.00     0.106 A 
HETATM   15  N3  UNL     1     -12.004  68.583  23.882  1.00  0.00    -0.337 N 
HETATM   16  C9  UNL     1     -11.472  69.069  22.751  1.00  0.00     0.117 A 
ATOM     17  H3  UNL     1     -12.338  67.627  24.008  1.00  0.00     0.167 HD
HETATM   18  C13 UNL     1     -11.162  70.388  23.034  1.00  0.00     0.125 A 
HETATM   19  N5  UNL     1     -11.502  70.677  24.295  1.00  0.00    -0.350 N 
ATOM     20  H5  UNL     1     -11.383  71.578  24.760  1.00  0.00     0.166 HD
BRANCH  16  21
HETATM   21  C10 UNL     1     -11.262  68.358  21.487  1.00  0.00     0.269 C 
HETATM   22  O2  UNL     1     -10.679  67.256  21.464  1.00  0.00    -0.266 OA
HETATM   23  N4  UNL     1     -11.719  68.907  20.257  1.00  0.00    -0.354 N 
ATOM     24  H4  UNL     1     -12.196  69.808  20.272  1.00  0.00     0.162 HD
BRANCH  23  25
HETATM   25  C11 UNL     1     -11.540  68.253  19.001  1.00  0.00     0.149 C 
BRANCH  25  26
HETATM   26  C12 UNL     1     -12.648  67.328  18.597  1.00  0.00     0.183 C 
BRANCH  26  27
HETATM   27  O3  UNL     1     -12.606  66.112  19.282  1.00  0.00    -0.399 OA
ATOM     28  H3  UNL     1     -11.731  65.742  19.315  1.00  0.00     0.209 HD
ENDBRANCH  26  27
ENDBRANCH  25  26
ENDBRANCH  23  25
ENDBRANCH  16  21
ENDBRANCH  13  14
ENDBRANCH   5  13
BRANCH   1  29
HETATM   29  N1  UNL     1      -7.671  69.578  28.419  1.00  0.00    -0.095 N 
ATOM     30  H1  UNL     1      -6.862  69.169  27.952  1.00  0.00     0.213 HD
BRANCH  29  31
HETATM   31  O1  UNL     1      -7.459  70.758  29.004  1.00  0.00    -0.263 OA
BRANCH  31  32
HETATM   32  C3  UNL     1      -7.329  71.999  28.339  1.00  0.00     0.228 C 
BRANCH  32  33
HETATM   33  C2  UNL     1      -6.909  71.821  26.924  1.00  0.00    -0.009 C 
HETATM   34  C1  UNL     1      -5.707  72.174  26.491  1.00  0.00     0.009 C 
ENDBRANCH  32  33
ENDBRANCH  31  32
ENDBRANCH  29  31
ENDBRANCH   1  29
BRANCH  10  35
HETATM   35  N8  UNL     1      -9.892  65.852  29.860  1.00  0.00    -0.232 N 
ATOM     36  H82 UNL     1      -9.931  65.832  30.879  1.00  0.00     0.174 HD
ATOM     37  H81 UNL     1      -9.896  64.961  29.364  1.00  0.00     0.174 HD
ENDBRANCH  10  35
TORSDOF 11
ENDMDL
MODEL 2
REMARK VINA RESULT: -6.280370272      2.421      4.765
REMARK  11 active torsions:
REMARK  status: ('A' for Active; 'I' for Inactive)
REMARK    1  A    between atoms: C2_2  and  C3_3 
REMARK    2  A    between atoms: C3_3  and  O1_4 
REMARK    3  A    between atoms: O1_4  and  N1_5 
REMARK    4  A    between atoms: N1_5  and  C4_7 
REMARK    5  A    between atoms: C6_11  and  C7_12 
REMARK    6  A    between atoms: C7_12  and  C8_13 
REMARK    7  A    between atoms: C9_16  and  C10_17 
REMARK       I    between atoms: C10_17  and  N4_19 
REMARK    8  A    between atoms: N4_19  and  C11_21 
REMARK    9  A    between atoms: C11_21  and  C12_22 
REMARK   10  A    between atoms: C12_22  and  O3_23 
REMARK   11  A    between atoms: C15_32  and  N8_33 
ROOT
HETATM    1  C4  UNL     1      -7.860  71.155  27.844  1.00  0.00     0.718 A 
HETATM    2  N2  UNL     1      -8.582  71.340  26.734  1.00  0.00    -0.171 N 
ATOM      3  H2  UNL     1      -9.401  70.759  26.553  1.00  0.00     0.186 HD
HETATM    4  C5  UNL     1      -8.218  72.314  25.839  1.00  0.00     0.172 A 
HETATM    5  C6  UNL     1      -8.783  72.700  24.641  1.00  0.00     0.032 A 
HETATM    6  C14 UNL     1      -7.993  73.741  24.159  1.00  0.00     0.123 A 
HETATM    7  N6  UNL     1      -7.029  73.923  25.057  1.00  0.00    -0.288 N 
ATOM      8  H6  UNL     1      -6.292  74.624  24.977  1.00  0.00     0.187 HD
HETATM    9  N7  UNL     1      -7.147  73.083  26.062  1.00  0.00    -0.069 N 
HETATM   10  C15 UNL     1      -6.395  72.909  27.192  1.00  0.00     0.713 A 
HETATM   11  N9  UNL     1      -6.767  71.956  28.049  1.00  0.00    -0.019 N 
ATOM     12  H9  UNL     1      -6.214  71.818  28.895  1.00  0.00     0.203 HD
ENDROOT
BRANCH   5  13
HETATM   13  C7  UNL     1      -9.859  72.202  24.054  1.00  0.00     0.065 C 
BRANCH  13  14
HETATM   14  C8  UNL     1      -9.817  71.103  23.113  1.00  0.00     0.106 A 
HETATM   15  N3  UNL     1     -10.884  70.331  22.739  1.00  0.00    -0.337 N 
HETATM   16  C9  UNL     1     -10.496  69.418  21.836  1.00  0.00     0.117 A 
ATOM     17  H3  UNL     1     -11.833  70.435  23.096  1.00  0.00     0.167 HD
HETATM   18  C13 UNL     1      -9.142  69.641  21.654  1.00  0.00     0.125 A 
HETATM   19  N5  UNL     1      -8.738  70.657  22.424  1.00  0.00    -0.350 N 
ATOM     20  H5  UNL     1      -7.789  71.028  22.483  1.00  0.00     0.166 HD
BRANCH  16  21
HETATM   21  C10 UNL     1     -11.326  68.402  21.182  1.00  0.00     0.269 C 
HETATM   22  O2  UNL     1     -10.914  67.233  21.048  1.00  0.00    -0.266 OA
HETATM   23  N4  UNL     1     -12.619  68.725  20.687  1.00  0.00    -0.354 N 
ATOM     24  H4  UNL     1     -12.958  69.680  20.795  1.00  0.00     0.162 HD
BRANCH  23  25
HETATM   25  C11 UNL     1     -13.465  67.771  20.044  1.00  0.00     0.149 C 
BRANCH  25  26
HETATM   26  C12 UNL     1     -13.310  67.677  18.558  1.00  0.00     0.183 C 
BRANCH  26  27
HETATM   27  O3  UNL     1     -12.302  66.786  18.179  1.00  0.00    -0.399 OA
ATOM     28  H3  UNL     1     -12.437  65.914  18.531  1.00  0.00     0.209 HD
ENDBRANCH  26  27
ENDBRANCH  25  26
ENDBRANCH  23  25
ENDBRANCH  16  21
ENDBRANCH  13  14
ENDBRANCH   5  13
BRANCH   1  29
HETATM   29  N1  UNL     1      -8.097  70.275  28.750  1.00  0.00    -0.095 N 
ATOM     30  H1  UNL     1      -8.769  70.552  29.466  1.00  0.00     0.213 HD
BRANCH  29  31
HETATM   31  O1  UNL     1      -7.587  69.050  28.885  1.00  0.00    -0.263 OA
BRANCH  31  32
HETATM   32  C3  UNL     1      -8.323  67.843  28.871  1.00  0.00     0.228 C 
BRANCH  32  33
HETATM   33  C2  UNL     1      -9.499  67.928  27.966  1.00  0.00    -0.009 C 
HETATM   34  C1  UNL     1     -10.723  67.607  28.361  1.00  0.00     0.009 C 
ENDBRANCH  32  33
ENDBRANCH  31  32
ENDBRANCH  29  31
ENDBRANCH   1  29
BRANCH  10  35
HETATM   35  N8  UNL     1      -5.376  73.675  27.360  1.00  0.00    -0.232 N 
ATOM     36  H82 UNL     1      -4.905  73.814  28.254  1.00  0.00     0.174 HD
ATOM     37  H81 UNL     1      -5.016  74.176  26.548  1.00  0.00     0.174 HD
ENDBRANCH  10  35
TORSDOF 11
ENDMDL
MODEL 3
REMARK VINA RESULT: -6.141667834      2.807      5.586
REMARK  11 active torsions:
REMARK  status: ('A' for Active; 'I' for Inactive)
REMARK    1  A    between atoms: C2_2  and  C3_3 
REMARK    2  A    between atoms: C3_3  and  O1_4 
REMARK    3  A    between atoms: O1_4  and  N1_5 
REMARK    4  A    between atoms: N1_5  and  C4_7 
REMARK    5  A    between atoms: C6_11  and  C7_12 
REMARK    6  A    between atoms: C7_12  and  C8_13 
REMARK    7  A    between atoms: C9_16  and  C10_17 
REMARK       I    between atoms: C10_17  and  N4_19 
REMARK    8  A    between atoms: N4_19  and  C11_21 
REMARK    9  A    between atoms: C11_21  and  C12_22 
REMARK   10  A    between atoms: C12_22  and  O3_23 
REMARK   11  A    between atoms: C15_32  and  N8_33 
ROOT
HETATM    1  C4  UNL     1      -7.615  71.576  27.785  1.00  0.00     0.718 A 
HETATM    2  N2  UNL     1      -7.397  71.951  26.520  1.00  0.00    -0.171 N 
ATOM      3  H2  UNL     1      -7.669  71.338  25.751  1.00  0.00     0.186 HD
HETATM    4  C5  UNL     1      -6.807  73.162  26.260  1.00  0.00     0.172 A 
HETATM    5  C6  UNL     1      -6.477  73.772  25.067  1.00  0.00     0.032 A 
HETATM    6  C14 UNL     1      -5.899  74.993  25.405  1.00  0.00     0.123 A 
HETATM    7  N6  UNL     1      -5.910  75.056  26.733  1.00  0.00    -0.288 N 
ATOM      8  H6  UNL     1      -5.549  75.841  27.275  1.00  0.00     0.187 HD
HETATM    9  N7  UNL     1      -6.445  73.975  27.258  1.00  0.00    -0.069 N 
HETATM   10  C15 UNL     1      -6.660  73.610  28.559  1.00  0.00     0.713 A 
HETATM   11  N9  UNL     1      -7.236  72.428  28.789  1.00  0.00    -0.019 N 
ATOM     12  H9  UNL     1      -7.400  72.146  29.756  1.00  0.00     0.203 HD
ENDROOT
BRANCH   5  13
HETATM   13  C7  UNL     1      -6.669  73.310  23.842  1.00  0.00     0.065 C 
BRANCH  13  14
HETATM   14  C8  UNL     1      -7.813  72.509  23.462  1.00  0.00     0.106 A 
HETATM   15  N3  UNL     1      -7.763  71.310  22.805  1.00  0.00    -0.337 N 
HETATM   16  C9  UNL     1      -9.004  70.831  22.629  1.00  0.00     0.117 A 
ATOM     17  H3  UNL     1      -6.909  70.848  22.495  1.00  0.00     0.167 HD
HETATM   18  C13 UNL     1      -9.841  71.775  23.199  1.00  0.00     0.125 A 
HETATM   19  N5  UNL     1      -9.119  72.784  23.699  1.00  0.00    -0.350 N 
ATOM     20  H5  UNL     1      -9.485  73.610  24.173  1.00  0.00     0.166 HD
BRANCH  16  21
HETATM   21  C10 UNL     1      -9.392  69.578  21.975  1.00  0.00     0.269 C 
HETATM   22  O2  UNL     1      -8.614  69.002  21.188  1.00  0.00    -0.266 OA
HETATM   23  N4  UNL     1     -10.662  68.988  22.223  1.00  0.00    -0.354 N 
ATOM     24  H4  UNL     1     -11.300  69.457  22.866  1.00  0.00     0.162 HD
BRANCH  23  25
HETATM   25  C11 UNL     1     -11.086  67.770  21.612  1.00  0.00     0.149 C 
BRANCH  25  26
HETATM   26  C12 UNL     1     -11.840  67.926  20.327  1.00  0.00     0.183 C 
BRANCH  26  27
HETATM   27  O3  UNL     1     -10.997  68.136  19.233  1.00  0.00    -0.399 OA
ATOM     28  H3  UNL     1     -11.312  67.710  18.444  1.00  0.00     0.209 HD
ENDBRANCH  26  27
ENDBRANCH  25  26
ENDBRANCH  23  25
ENDBRANCH  16  21
ENDBRANCH  13  14
ENDBRANCH   5  13
BRANCH   1  29
HETATM   29  N1  UNL     1      -8.152  70.468  28.153  1.00  0.00    -0.095 N 
ATOM     30  H1  UNL     1      -9.130  70.345  27.890  1.00  0.00     0.213 HD
BRANCH  29  31
HETATM   31  O1  UNL     1      -7.610  69.456  28.831  1.00  0.00    -0.263 OA
BRANCH  31  32
HETATM   32  C3  UNL     1      -8.093  68.127  28.859  1.00  0.00     0.228 C 
BRANCH  32  33
HETATM   33  C2  UNL     1      -9.284  67.958  27.986  1.00  0.00    -0.009 C 
HETATM   34  C1  UNL     1     -10.441  67.501  28.444  1.00  0.00     0.009 C 
ENDBRANCH  32  33
ENDBRANCH  31  32
ENDBRANCH  29  31
ENDBRANCH   1  29
BRANCH  10  35
HETATM   35  N8  UNL     1      -6.295  74.428  29.482  1.00  0.00    -0.232 N 
ATOM     36  H82 UNL     1      -5.508  75.071  29.399  1.00  0.00     0.174 HD
ATOM     37  H81 UNL     1      -6.827  74.434  30.352  1.00  0.00     0.174 HD
ENDBRANCH  10  35
TORSDOF 11
ENDMDL
MODEL 4
REMARK VINA RESULT: -6.077761267      2.846      4.944
REMARK  11 active torsions:
REMARK  status: ('A' for Active; 'I' for Inactive)
REMARK    1  A    between atoms: C2_2  and  C3_3 
REMARK    2  A    between atoms: C3_3  and  O1_4 
REMARK    3  A    between atoms: O1_4  and  N1_5 
REMARK    4  A    between atoms: N1_5  and  C4_7 
REMARK    5  A    between atoms: C6_11  and  C7_12 
REMARK    6  A    between atoms: C7_12  and  C8_13 
REMARK    7  A    between atoms: C9_16  and  C10_17 
REMARK       I    between atoms: C10_17  and  N4_19 
REMARK    8  A    between atoms: N4_19  and  C11_21 
REMARK    9  A    between atoms: C11_21  and  C12_22 
REMARK   10  A    between atoms: C12_22  and  O3_23 
REMARK   11  A    between atoms: C15_32  and  N8_33 
ROOT
HETATM    1  C4  UNL     1      -6.109  72.254  26.481  1.00  0.00     0.718 A 
HETATM    2  N2  UNL     1      -7.080  71.434  26.896  1.00  0.00    -0.171 N 
ATOM      3  H2  UNL     1      -7.329  70.615  26.341  1.00  0.00     0.186 HD
HETATM    4  C5  UNL     1      -7.741  71.699  28.068  1.00  0.00     0.172 A 
HETATM    5  C6  UNL     1      -8.762  71.024  28.705  1.00  0.00     0.032 A 
HETATM    6  C14 UNL     1      -9.041  71.748  29.861  1.00  0.00     0.123 A 
HETATM    7  N6  UNL     1      -8.206  72.782  29.864  1.00  0.00    -0.288 N 
ATOM      8  H6  UNL     1      -8.174  73.494  30.594  1.00  0.00     0.187 HD
HETATM    9  N7  UNL     1      -7.426  72.769  28.805  1.00  0.00    -0.069 N 
HETATM   10  C15 UNL     1      -6.435  73.620  28.399  1.00  0.00     0.713 A 
HETATM   11  N9  UNL     1      -5.805  73.344  27.255  1.00  0.00    -0.019 N 
ATOM     12  H9  UNL     1      -5.064  73.972  26.942  1.00  0.00     0.203 HD
ENDROOT
BRANCH   5  13
HETATM   13  C7  UNL     1      -9.363  69.911  28.316  1.00  0.00     0.065 C 
BRANCH  13  14
HETATM   14  C8  UNL     1     -10.397  69.876  27.303  1.00  0.00     0.106 A 
HETATM   15  N3  UNL     1     -10.229  69.475  26.006  1.00  0.00    -0.337 N 
HETATM   16  C9  UNL     1     -11.396  69.547  25.348  1.00  0.00     0.117 A 
ATOM     17  H3  UNL     1      -9.346  69.166  25.599  1.00  0.00     0.167 HD
HETATM   18  C13 UNL     1     -12.309  70.012  26.279  1.00  0.00     0.125 A 
HETATM   19  N5  UNL     1     -11.703  70.207  27.455  1.00  0.00    -0.350 N 
ATOM     20  H5  UNL     1     -12.144  70.545  28.311  1.00  0.00     0.166 HD
BRANCH  16  21
HETATM   21  C10 UNL     1     -11.651  69.209  23.945  1.00  0.00     0.269 C 
HETATM   22  O2  UNL     1     -12.692  69.594  23.375  1.00  0.00    -0.266 OA
HETATM   23  N4  UNL     1     -10.719  68.436  23.199  1.00  0.00    -0.354 N 
ATOM     24  H4  UNL     1      -9.867  68.120  23.662  1.00  0.00     0.162 HD
BRANCH  23  25
HETATM   25  C11 UNL     1     -10.921  68.082  21.832  1.00  0.00     0.149 C 
BRANCH  25  26
HETATM   26  C12 UNL     1     -10.108  68.859  20.842  1.00  0.00     0.183 C 
BRANCH  26  27
HETATM   27  O3  UNL     1      -8.737  68.783  21.098  1.00  0.00    -0.399 OA
ATOM     28  H3  UNL     1      -8.291  68.178  20.516  1.00  0.00     0.209 HD
ENDBRANCH  26  27
ENDBRANCH  25  26
ENDBRANCH  23  25
ENDBRANCH  16  21
ENDBRANCH  13  14
ENDBRANCH   5  13
BRANCH   1  29
HETATM   29  N1  UNL     1      -5.424  72.116  25.402  1.00  0.00    -0.095 N 
ATOM     30  H1  UNL     1      -4.436  71.899  25.534  1.00  0.00     0.213 HD
BRANCH  29  31
HETATM   31  O1  UNL     1      -5.826  72.215  24.135  1.00  0.00    -0.263 OA
BRANCH  31  32
HETATM   32  C3  UNL     1      -5.689  73.357  23.312  1.00  0.00     0.228 C 
BRANCH  32  33
HETATM   33  C2  UNL     1      -6.893  74.226  23.375  1.00  0.00    -0.009 C 
HETATM   34  C1  UNL     1      -6.985  75.251  24.209  1.00  0.00     0.009 C 
ENDBRANCH  32  33
ENDBRANCH  31  32
ENDBRANCH  29  31
ENDBRANCH   1  29
BRANCH  10  35
HETATM   35  N8  UNL     1      -6.169  74.634  29.144  1.00  0.00    -0.232 N 
ATOM     36  H82 UNL     1      -6.861  75.321  29.443  1.00  0.00     0.174 HD
ATOM     37  H81 UNL     1      -5.206  74.760  29.453  1.00  0.00     0.174 HD
ENDBRANCH  10  35
TORSDOF 11
ENDMDL
MODEL 5
REMARK VINA RESULT: -5.965692812      4.399      8.475
REMARK  11 active torsions:
REMARK  status: ('A' for Active; 'I' for Inactive)
REMARK    1  A    between atoms: C2_2  and  C3_3 
REMARK    2  A    between atoms: C3_3  and  O1_4 
REMARK    3  A    between atoms: O1_4  and  N1_5 
REMARK    4  A    between atoms: N1_5  and  C4_7 
REMARK    5  A    between atoms: C6_11  and  C7_12 
REMARK    6  A    between atoms: C7_12  and  C8_13 
REMARK    7  A    between atoms: C9_16  and  C10_17 
REMARK       I    between atoms: C10_17  and  N4_19 
REMARK    8  A    between atoms: N4_19  and  C11_21 
REMARK    9  A    between atoms: C11_21  and  C12_22 
REMARK   10  A    between atoms: C12_22  and  O3_23 
REMARK   11  A    between atoms: C15_32  and  N8_33 
ROOT
HETATM    1  C4  UNL     1     -13.444  71.346  19.035  1.00  0.00     0.718 A 
HETATM    2  N2  UNL     1     -12.588  70.489  19.600  1.00  0.00    -0.171 N 
ATOM      3  H2  UNL     1     -11.737  70.835  20.046  1.00  0.00     0.186 HD
HETATM    4  C5  UNL     1     -12.856  69.144  19.579  1.00  0.00     0.172 A 
HETATM    5  C6  UNL     1     -12.149  68.071  20.081  1.00  0.00     0.032 A 
HETATM    6  C14 UNL     1     -12.895  66.937  19.769  1.00  0.00     0.123 A 
HETATM    7  N6  UNL     1     -13.974  67.367  19.121  1.00  0.00    -0.288 N 
ATOM      8  H6  UNL     1     -14.712  66.760  18.765  1.00  0.00     0.187 HD
HETATM    9  N7  UNL     1     -13.966  68.676  18.999  1.00  0.00    -0.069 N 
HETATM   10  C15 UNL     1     -14.856  69.537  18.415  1.00  0.00     0.713 A 
HETATM   11  N9  UNL     1     -14.575  70.842  18.447  1.00  0.00    -0.019 N 
ATOM     12  H9  UNL     1     -15.231  71.493  18.015  1.00  0.00     0.203 HD
ENDROOT
BRANCH   5  13
HETATM   13  C7  UNL     1     -10.997  68.093  20.733  1.00  0.00     0.065 C 
BRANCH  13  14
HETATM   14  C8  UNL     1     -10.763  68.906  21.908  1.00  0.00     0.106 A 
HETATM   15  N3  UNL     1     -10.039  70.067  21.943  1.00  0.00    -0.337 N 
HETATM   16  C9  UNL     1     -10.041  70.572  23.186  1.00  0.00     0.117 A 
ATOM     17  H3  UNL     1      -9.568  70.486  21.141  1.00  0.00     0.167 HD
HETATM   18  C13 UNL     1     -10.792  69.684  23.937  1.00  0.00     0.125 A 
HETATM   19  N5  UNL     1     -11.225  68.683  23.163  1.00  0.00    -0.350 N 
ATOM     20  H5  UNL     1     -11.800  67.895  23.462  1.00  0.00     0.166 HD
BRANCH  16  21
HETATM   21  C10 UNL     1      -9.388  71.798  23.651  1.00  0.00     0.269 C 
HETATM   22  O2  UNL     1      -9.948  72.545  24.478  1.00  0.00    -0.266 OA
HETATM   23  N4  UNL     1      -8.100  72.166  23.172  1.00  0.00    -0.354 N 
ATOM     24  H4  UNL     1      -7.639  71.558  22.496  1.00  0.00     0.162 HD
BRANCH  23  25
HETATM   25  C11 UNL     1      -7.422  73.349  23.595  1.00  0.00     0.149 C 
BRANCH  25  26
HETATM   26  C12 UNL     1      -5.986  73.447  23.182  1.00  0.00     0.183 C 
BRANCH  26  27
HETATM   27  O3  UNL     1      -5.565  72.340  22.441  1.00  0.00    -0.399 OA
ATOM     28  H3  UNL     1      -4.645  72.386  22.208  1.00  0.00     0.209 HD
ENDBRANCH  26  27
ENDBRANCH  25  26
ENDBRANCH  23  25
ENDBRANCH  16  21
ENDBRANCH  13  14
ENDBRANCH   5  13
BRANCH   1  29
HETATM   29  N1  UNL     1     -13.300  72.623  18.986  1.00  0.00    -0.095 N 
ATOM     30  H1  UNL     1     -14.164  73.160  18.915  1.00  0.00     0.213 HD
BRANCH  29  31
HETATM   31  O1  UNL     1     -12.178  73.343  19.015  1.00  0.00    -0.263 OA
BRANCH  31  32
HETATM   32  C3  UNL     1     -11.923  74.439  19.871  1.00  0.00     0.228 C 
BRANCH  32  33
HETATM   33  C2  UNL     1     -11.534  73.993  21.234  1.00  0.00    -0.009 C 
HETATM   34  C1  UNL     1     -11.139  74.841  22.173  1.00  0.00     0.009 C 
ENDBRANCH  32  33
ENDBRANCH  31  32
ENDBRANCH  29  31
ENDBRANCH   1  29
BRANCH  10  35
HETATM   35  N8  UNL     1     -15.909  69.038  17.872  1.00  0.00    -0.232 N 
ATOM     36  H82 UNL     1     -16.820  68.989  18.327  1.00  0.00     0.174 HD
ATOM     37  H81 UNL     1     -15.827  68.666  16.926  1.00  0.00     0.174 HD
ENDBRANCH  10  35
TORSDOF 11
ENDMDL
