MODEL 1
REMARK VINA RESULT: -6.150311304      0.000      0.000
REMARK  9 active torsions:
REMARK  status: ('A' for Active; 'I' for Inactive)
REMARK    1  A    between atoms: N1_1  and  C1_5 
REMARK    2  A    between atoms: C1_5  and  C2_6 
REMARK    3  A    between atoms: C2_6  and  N2_7 
REMARK    4  A    between atoms: N2_7  and  C3_9 
REMARK    5  A    between atoms: C4_12  and  N4_13 
REMARK    6  A    between atoms: N8_29  and  C12_30 
REMARK    7  A    between atoms: C12_30  and  C13_31 
REMARK    8  A    between atoms: C13_31  and  O2_32 
REMARK    9  A    between atoms: O2_32  and  C14_33 
ROOT
HETATM    1  C3  UNL     1      -9.522  72.682  23.107  1.00  0.00     0.681 A 
HETATM    2  N3  UNL     1     -10.601  72.985  22.421  1.00  0.00    -0.174 N 
ATOM      3  H3  UNL     1     -10.887  73.962  22.369  1.00  0.00     0.186 HD
HETATM    4  C4  UNL     1     -11.371  72.032  21.763  1.00  0.00     0.150 A 
HETATM    5  C9  UNL     1     -11.003  70.735  21.827  1.00  0.00     0.128 A 
HETATM    6  C10 UNL     1      -9.862  70.430  22.550  1.00  0.00     0.156 A 
HETATM    7  N6  UNL     1      -9.165  71.394  23.161  1.00  0.00    -0.174 N 
ATOM      8  H6  UNL     1      -8.329  71.137  23.688  1.00  0.00     0.186 HD
HETATM    9  N7  UNL     1      -9.674  69.118  22.436  1.00  0.00    -0.292 N 
ATOM     10  H7  UNL     1      -8.915  68.581  22.857  1.00  0.00     0.172 HD
HETATM   11  C11 UNL     1     -10.663  68.623  21.670  1.00  0.00     0.328 A 
HETATM   12  O1  UNL     1     -10.667  67.382  21.430  1.00  0.00    -0.246 OA
HETATM   13  N8  UNL     1     -11.516  69.594  21.269  1.00  0.00    -0.291 N 
ENDROOT
BRANCH   1  14
HETATM   14  N2  UNL     1      -8.797  73.573  23.726  1.00  0.00    -0.224 N 
ATOM     15  H2  UNL     1      -9.195  74.504  23.848  1.00  0.00     0.177 HD
BRANCH  14  16
HETATM   16  C2  UNL     1      -7.493  73.342  24.244  1.00  0.00     0.165 C 
BRANCH  16  17
HETATM   17  C1  UNL     1      -6.394  73.684  23.240  1.00  0.00     0.249 C 
BRANCH  17  18
HETATM   18  N1  UNL     1      -5.789  72.451  22.733  1.00  0.00    -0.078 N 
ATOM     19  H13 UNL     1      -6.301  71.622  23.032  1.00  0.00     0.274 HD
ATOM     20  H12 UNL     1      -5.915  72.347  21.725  1.00  0.00     0.274 HD
ATOM     21  H11 UNL     1      -4.806  72.415  23.002  1.00  0.00     0.274 HD
ENDBRANCH  17  18
ENDBRANCH  16  17
ENDBRANCH  14  16
ENDBRANCH   1  14
BRANCH   4  22
HETATM   22  N4  UNL     1     -12.478  72.541  21.053  1.00  0.00    -0.362 N 
HETATM   23  C5  UNL     1     -13.790  72.608  21.583  1.00  0.00     0.152 C 
HETATM   24  C6  UNL     1     -14.253  74.049  21.540  1.00  0.00     0.252 C 
HETATM   25  N5  UNL     1     -13.797  74.746  20.376  1.00  0.00    -0.072 N 
HETATM   26  C7  UNL     1     -13.474  73.832  19.285  1.00  0.00     0.252 C 
ATOM     27  H52 UNL     1     -14.469  75.453  20.081  1.00  0.00     0.277 HD
ATOM     28  H51 UNL     1     -13.007  75.354  20.595  1.00  0.00     0.277 HD
HETATM   29  C8  UNL     1     -12.240  73.067  19.721  1.00  0.00     0.152 C 
ENDBRANCH   4  22
BRANCH  13  30
HETATM   30  C12 UNL     1     -12.694  69.396  20.498  1.00  0.00     0.161 C 
BRANCH  30  31
HETATM   31  C13 UNL     1     -12.603  69.532  19.011  1.00  0.00     0.200 C 
BRANCH  31  32
HETATM   32  O2  UNL     1     -13.003  68.448  18.223  1.00  0.00    -0.305 OA
BRANCH  32  33
HETATM   33  C14 UNL     1     -12.311  67.262  18.083  1.00  0.00     0.372 C 
HETATM   34  N9  UNL     1     -12.538  66.200  18.981  1.00  0.00    -0.032 NA
HETATM   35  O3  UNL     1     -11.486  67.136  17.160  1.00  0.00    -0.242 OA
ENDBRANCH  32  33
ENDBRANCH  31  32
ENDBRANCH  30  31
ENDBRANCH  13  30
TORSDOF 9
ENDMDL
MODEL 2
REMARK VINA RESULT: -6.085701859      1.128      1.171
REMARK  9 active torsions:
REMARK  status: ('A' for Active; 'I' for Inactive)
REMARK    1  A    between atoms: N1_1  and  C1_5 
REMARK    2  A    between atoms: C1_5  and  C2_6 
REMARK    3  A    between atoms: C2_6  and  N2_7 
REMARK    4  A    between atoms: N2_7  and  C3_9 
REMARK    5  A    between atoms: C4_12  and  N4_13 
REMARK    6  A    between atoms: N8_29  and  C12_30 
REMARK    7  A    between atoms: C12_30  and  C13_31 
REMARK    8  A    between atoms: C13_31  and  O2_32 
REMARK    9  A    between atoms: O2_32  and  C14_33 
ROOT
HETATM    1  C3  UNL     1      -9.679  72.441  22.884  1.00  0.00     0.681 A 
HETATM    2  N3  UNL     1     -10.952  72.607  22.605  1.00  0.00    -0.174 N 
ATOM      3  H3  UNL     1     -11.346  73.545  22.670  1.00  0.00     0.186 HD
HETATM    4  C4  UNL     1     -11.787  71.561  22.226  1.00  0.00     0.150 A 
HETATM    5  C9  UNL     1     -11.276  70.315  22.138  1.00  0.00     0.128 A 
HETATM    6  C10 UNL     1      -9.933  70.154  22.432  1.00  0.00     0.156 A 
HETATM    7  N6  UNL     1      -9.183  71.201  22.792  1.00  0.00    -0.174 N 
ATOM      8  H6  UNL     1      -8.196  71.050  23.004  1.00  0.00     0.186 HD
HETATM    9  N7  UNL     1      -9.648  68.869  22.237  1.00  0.00    -0.292 N 
ATOM     10  H7  UNL     1      -8.737  68.429  22.369  1.00  0.00     0.172 HD
HETATM   11  C11 UNL     1     -10.775  68.252  21.837  1.00  0.00     0.328 A 
HETATM   12  O1  UNL     1     -10.721  67.013  21.589  1.00  0.00    -0.246 OA
HETATM   13  N8  UNL     1     -11.816  69.113  21.763  1.00  0.00    -0.291 N 
ENDROOT
BRANCH   1  14
HETATM   14  N2  UNL     1      -8.893  73.419  23.242  1.00  0.00    -0.224 N 
ATOM     15  H2  UNL     1      -9.148  74.361  22.946  1.00  0.00     0.177 HD
BRANCH  14  16
HETATM   16  C2  UNL     1      -7.708  73.269  24.013  1.00  0.00     0.165 C 
BRANCH  16  17
HETATM   17  C1  UNL     1      -6.444  73.576  23.212  1.00  0.00     0.249 C 
BRANCH  17  18
HETATM   18  N1  UNL     1      -5.862  72.329  22.713  1.00  0.00    -0.078 N 
ATOM     19  H13 UNL     1      -5.225  72.488  21.933  1.00  0.00     0.274 HD
ATOM     20  H12 UNL     1      -5.193  71.926  23.370  1.00  0.00     0.274 HD
ATOM     21  H11 UNL     1      -6.606  71.674  22.474  1.00  0.00     0.274 HD
ENDBRANCH  17  18
ENDBRANCH  16  17
ENDBRANCH  14  16
ENDBRANCH   1  14
BRANCH   4  22
HETATM   22  N4  UNL     1     -13.116  71.930  21.937  1.00  0.00    -0.362 N 
HETATM   23  C5  UNL     1     -14.168  71.889  22.886  1.00  0.00     0.152 C 
HETATM   24  C6  UNL     1     -14.769  73.274  22.998  1.00  0.00     0.252 C 
HETATM   25  N5  UNL     1     -14.814  73.965  21.745  1.00  0.00    -0.072 N 
HETATM   26  C7  UNL     1     -14.788  73.044  20.614  1.00  0.00     0.252 C 
ATOM     27  H52 UNL     1     -15.618  74.590  21.696  1.00  0.00     0.277 HD
ATOM     28  H51 UNL     1     -14.067  74.657  21.676  1.00  0.00     0.277 HD
HETATM   29  C8  UNL     1     -13.406  72.423  20.602  1.00  0.00     0.152 C 
ENDBRANCH   4  22
BRANCH  13  30
HETATM   30  C12 UNL     1     -13.154  68.770  21.428  1.00  0.00     0.161 C 
BRANCH  30  31
HETATM   31  C13 UNL     1     -13.567  68.836  19.991  1.00  0.00     0.200 C 
BRANCH  31  32
HETATM   32  O2  UNL     1     -12.588  68.631  19.013  1.00  0.00    -0.305 OA
BRANCH  32  33
HETATM   33  C14 UNL     1     -12.294  67.422  18.415  1.00  0.00     0.372 C 
HETATM   34  N9  UNL     1     -11.629  67.389  17.173  1.00  0.00    -0.032 NA
HETATM   35  O3  UNL     1     -12.622  66.362  18.978  1.00  0.00    -0.242 OA
ENDBRANCH  32  33
ENDBRANCH  31  32
ENDBRANCH  30  31
ENDBRANCH  13  30
TORSDOF 9
ENDMDL
MODEL 3
REMARK VINA RESULT: -5.744650103      5.478      7.882
REMARK  9 active torsions:
REMARK  status: ('A' for Active; 'I' for Inactive)
REMARK    1  A    between atoms: N1_1  and  C1_5 
REMARK    2  A    between atoms: C1_5  and  C2_6 
REMARK    3  A    between atoms: C2_6  and  N2_7 
REMARK    4  A    between atoms: N2_7  and  C3_9 
REMARK    5  A    between atoms: C4_12  and  N4_13 
REMARK    6  A    between atoms: N8_29  and  C12_30 
REMARK    7  A    between atoms: C12_30  and  C13_31 
REMARK    8  A    between atoms: C13_31  and  O2_32 
REMARK    9  A    between atoms: O2_32  and  C14_33 
ROOT
HETATM    1  C3  UNL     1      -9.244  68.102  28.172  1.00  0.00     0.681 A 
HETATM    2  N3  UNL     1     -10.048  68.513  27.218  1.00  0.00    -0.174 N 
ATOM      3  H3  UNL     1     -10.768  67.876  26.879  1.00  0.00     0.186 HD
HETATM    4  C4  UNL     1      -9.961  69.780  26.649  1.00  0.00     0.150 A 
HETATM    5  C9  UNL     1      -9.010  70.631  27.090  1.00  0.00     0.128 A 
HETATM    6  C10 UNL     1      -8.172  70.186  28.098  1.00  0.00     0.156 A 
HETATM    7  N6  UNL     1      -8.307  68.954  28.602  1.00  0.00    -0.174 N 
ATOM      8  H6  UNL     1      -7.673  68.654  29.343  1.00  0.00     0.186 HD
HETATM    9  N7  UNL     1      -7.358  71.195  28.395  1.00  0.00    -0.292 N 
ATOM     10  H7  UNL     1      -6.621  71.185  29.100  1.00  0.00     0.172 HD
HETATM   11  C11 UNL     1      -7.678  72.232  27.600  1.00  0.00     0.328 A 
HETATM   12  O1  UNL     1      -7.021  73.305  27.726  1.00  0.00    -0.246 OA
HETATM   13  N8  UNL     1      -8.701  71.926  26.768  1.00  0.00    -0.291 N 
ENDROOT
BRANCH   1  14
HETATM   14  N2  UNL     1      -9.322  66.914  28.708  1.00  0.00    -0.224 N 
ATOM     15  H2  UNL     1      -8.624  66.224  28.429  1.00  0.00     0.177 HD
BRANCH  14  16
HETATM   16  C2  UNL     1     -10.307  66.511  29.651  1.00  0.00     0.165 C 
BRANCH  16  17
HETATM   17  C1  UNL     1      -9.735  66.331  31.056  1.00  0.00     0.249 C 
BRANCH  17  18
HETATM   18  N1  UNL     1      -8.572  65.445  31.005  1.00  0.00    -0.078 N 
ATOM     19  H13 UNL     1      -7.742  65.920  30.650  1.00  0.00     0.274 HD
ATOM     20  H12 UNL     1      -8.223  65.214  31.935  1.00  0.00     0.274 HD
ATOM     21  H11 UNL     1      -8.799  64.611  30.463  1.00  0.00     0.274 HD
ENDBRANCH  17  18
ENDBRANCH  16  17
ENDBRANCH  14  16
ENDBRANCH   1  14
BRANCH   4  22
HETATM   22  N4  UNL     1     -10.923  70.060  25.659  1.00  0.00    -0.362 N 
HETATM   23  C5  UNL     1     -10.733  69.797  24.280  1.00  0.00     0.152 C 
HETATM   24  C6  UNL     1     -11.841  68.879  23.808  1.00  0.00     0.252 C 
HETATM   25  N5  UNL     1     -13.100  69.160  24.428  1.00  0.00    -0.072 N 
HETATM   26  C7  UNL     1     -13.167  70.529  24.928  1.00  0.00     0.252 C 
ATOM     27  H52 UNL     1     -13.876  68.956  23.799  1.00  0.00     0.277 HD
ATOM     28  H51 UNL     1     -13.308  68.486  25.165  1.00  0.00     0.277 HD
HETATM   29  C8  UNL     1     -12.198  70.605  26.091  1.00  0.00     0.152 C 
ENDBRANCH   4  22
BRANCH  13  30
HETATM   30  C12 UNL     1      -9.240  72.780  25.768  1.00  0.00     0.161 C 
BRANCH  30  31
HETATM   31  C13 UNL     1      -8.585  72.803  24.423  1.00  0.00     0.200 C 
BRANCH  31  32
HETATM   32  O2  UNL     1      -7.291  73.326  24.329  1.00  0.00    -0.305 OA
BRANCH  32  33
HETATM   33  C14 UNL     1      -6.149  72.594  24.068  1.00  0.00     0.372 C 
HETATM   34  N9  UNL     1      -5.756  72.343  22.739  1.00  0.00    -0.032 NA
HETATM   35  O3  UNL     1      -5.470  72.156  25.015  1.00  0.00    -0.242 OA
ENDBRANCH  32  33
ENDBRANCH  31  32
ENDBRANCH  30  31
ENDBRANCH  13  30
TORSDOF 9
ENDMDL
MODEL 4
REMARK VINA RESULT: -5.722901400      6.810      9.003
REMARK  9 active torsions:
REMARK  status: ('A' for Active; 'I' for Inactive)
REMARK    1  A    between atoms: N1_1  and  C1_5 
REMARK    2  A    between atoms: C1_5  and  C2_6 
REMARK    3  A    between atoms: C2_6  and  N2_7 
REMARK    4  A    between atoms: N2_7  and  C3_9 
REMARK    5  A    between atoms: C4_12  and  N4_13 
REMARK    6  A    between atoms: N8_29  and  C12_30 
REMARK    7  A    between atoms: C12_30  and  C13_31 
REMARK    8  A    between atoms: C13_31  and  O2_32 
REMARK    9  A    between atoms: O2_32  and  C14_33 
ROOT
HETATM    1  C3  UNL     1      -5.081  76.537  27.493  1.00  0.00     0.681 A 
HETATM    2  N3  UNL     1      -5.557  75.804  26.512  1.00  0.00    -0.174 N 
ATOM      3  H3  UNL     1      -5.333  76.069  25.554  1.00  0.00     0.186 HD
HETATM    4  C4  UNL     1      -6.353  74.683  26.723  1.00  0.00     0.150 A 
HETATM    5  C9  UNL     1      -6.656  74.324  27.989  1.00  0.00     0.128 A 
HETATM    6  C10 UNL     1      -6.146  75.103  29.013  1.00  0.00     0.156 A 
HETATM    7  N6  UNL     1      -5.386  76.171  28.744  1.00  0.00    -0.174 N 
ATOM      8  H6  UNL     1      -5.025  76.726  29.520  1.00  0.00     0.186 HD
HETATM    9  N7  UNL     1      -6.534  74.540  30.154  1.00  0.00    -0.292 N 
ATOM     10  H7  UNL     1      -6.319  74.876  31.093  1.00  0.00     0.172 HD
HETATM   11  C11 UNL     1      -7.261  73.450  29.851  1.00  0.00     0.328 A 
HETATM   12  O1  UNL     1      -7.725  72.759  30.802  1.00  0.00    -0.246 OA
HETATM   13  N8  UNL     1      -7.366  73.276  28.513  1.00  0.00    -0.291 N 
ENDROOT
BRANCH   1  14
HETATM   14  N2  UNL     1      -4.334  77.590  27.300  1.00  0.00    -0.224 N 
ATOM     15  H2  UNL     1      -4.652  78.274  26.614  1.00  0.00     0.177 HD
BRANCH  14  16
HETATM   16  C2  UNL     1      -3.111  77.854  27.976  1.00  0.00     0.165 C 
BRANCH  16  17
HETATM   17  C1  UNL     1      -3.148  79.159  28.768  1.00  0.00     0.249 C 
BRANCH  17  18
HETATM   18  N1  UNL     1      -3.853  80.183  27.996  1.00  0.00    -0.078 N 
ATOM     19  H13 UNL     1      -3.597  80.165  27.009  1.00  0.00     0.274 HD
ATOM     20  H12 UNL     1      -4.846  79.973  27.894  1.00  0.00     0.274 HD
ATOM     21  H11 UNL     1      -3.697  81.099  28.417  1.00  0.00     0.274 HD
ENDBRANCH  17  18
ENDBRANCH  16  17
ENDBRANCH  14  16
ENDBRANCH   1  14
BRANCH   4  22
HETATM   22  N4  UNL     1      -6.750  74.002  25.555  1.00  0.00    -0.362 N 
HETATM   23  C5  UNL     1      -7.901  74.338  24.800  1.00  0.00     0.152 C 
HETATM   24  C6  UNL     1      -7.472  74.647  23.381  1.00  0.00     0.252 C 
HETATM   25  N5  UNL     1      -6.404  73.810  22.928  1.00  0.00    -0.072 N 
HETATM   26  C7  UNL     1      -6.336  72.559  23.674  1.00  0.00     0.252 C 
ATOM     27  H52 UNL     1      -6.467  73.639  21.924  1.00  0.00     0.277 HD
ATOM     28  H51 UNL     1      -5.511  74.304  22.951  1.00  0.00     0.277 HD
HETATM   29  C8  UNL     1      -5.900  72.925  25.079  1.00  0.00     0.152 C 
ENDBRANCH   4  22
BRANCH  13  30
HETATM   30  C12 UNL     1      -8.112  72.255  27.865  1.00  0.00     0.161 C 
BRANCH  30  31
HETATM   31  C13 UNL     1      -7.482  70.908  27.700  1.00  0.00     0.200 C 
BRANCH  31  32
HETATM   32  O2  UNL     1      -7.697  69.952  28.697  1.00  0.00    -0.305 OA
BRANCH  32  33
HETATM   33  C14 UNL     1      -8.397  68.772  28.537  1.00  0.00     0.372 C 
HETATM   34  N9  UNL     1      -9.454  68.696  27.609  1.00  0.00    -0.032 NA
HETATM   35  O3  UNL     1      -8.090  67.777  29.218  1.00  0.00    -0.242 OA
ENDBRANCH  32  33
ENDBRANCH  31  32
ENDBRANCH  30  31
ENDBRANCH  13  30
TORSDOF 9
ENDMDL
MODEL 5
REMARK VINA RESULT: -5.618728317      4.988      7.950
REMARK  9 active torsions:
REMARK  status: ('A' for Active; 'I' for Inactive)
REMARK    1  A    between atoms: N1_1  and  C1_5 
REMARK    2  A    between atoms: C1_5  and  C2_6 
REMARK    3  A    between atoms: C2_6  and  N2_7 
REMARK    4  A    between atoms: N2_7  and  C3_9 
REMARK    5  A    between atoms: C4_12  and  N4_13 
REMARK    6  A    between atoms: N8_29  and  C12_30 
REMARK    7  A    between atoms: C12_30  and  C13_31 
REMARK    8  A    between atoms: C13_31  and  O2_32 
REMARK    9  A    between atoms: O2_32  and  C14_33 
ROOT
HETATM    1  C3  UNL     1      -9.041  68.871  28.212  1.00  0.00     0.681 A 
HETATM    2  N3  UNL     1      -8.452  70.044  28.166  1.00  0.00    -0.174 N 
ATOM      3  H3  UNL     1      -7.765  70.272  28.885  1.00  0.00     0.186 HD
HETATM    4  C4  UNL     1      -8.722  70.989  27.182  1.00  0.00     0.150 A 
HETATM    5  C9  UNL     1      -9.630  70.698  26.227  1.00  0.00     0.128 A 
HETATM    6  C10 UNL     1     -10.242  69.457  26.284  1.00  0.00     0.156 A 
HETATM    7  N6  UNL     1      -9.938  68.592  27.258  1.00  0.00    -0.174 N 
ATOM      8  H6  UNL     1     -10.407  67.686  27.275  1.00  0.00     0.186 HD
HETATM    9  N7  UNL     1     -11.052  69.379  25.232  1.00  0.00    -0.292 N 
ATOM     10  H7  UNL     1     -11.647  68.586  24.990  1.00  0.00     0.172 HD
HETATM   11  C11 UNL     1     -10.948  70.530  24.544  1.00  0.00     0.328 A 
HETATM   12  O1  UNL     1     -11.639  70.661  23.493  1.00  0.00    -0.246 OA
HETATM   13  N8  UNL     1     -10.076  71.384  25.128  1.00  0.00    -0.291 N 
ENDROOT
BRANCH   1  14
HETATM   14  N2  UNL     1      -8.791  67.982  29.134  1.00  0.00    -0.224 N 
ATOM     15  H2  UNL     1      -7.924  68.079  29.661  1.00  0.00     0.177 HD
BRANCH  14  16
HETATM   16  C2  UNL     1      -9.639  66.887  29.458  1.00  0.00     0.165 C 
BRANCH  16  17
HETATM   17  C1  UNL     1      -9.495  66.444  30.913  1.00  0.00     0.249 C 
BRANCH  17  18
HETATM   18  N1  UNL     1      -8.495  65.379  31.006  1.00  0.00    -0.078 N 
ATOM     19  H13 UNL     1      -8.923  64.461  31.124  1.00  0.00     0.274 HD
ATOM     20  H12 UNL     1      -8.028  65.210  30.114  1.00  0.00     0.274 HD
ATOM     21  H11 UNL     1      -7.833  65.594  31.751  1.00  0.00     0.274 HD
ENDBRANCH  17  18
ENDBRANCH  16  17
ENDBRANCH  14  16
ENDBRANCH   1  14
BRANCH   4  22
HETATM   22  N4  UNL     1      -7.975  72.181  27.274  1.00  0.00    -0.362 N 
HETATM   23  C5  UNL     1      -8.484  73.390  27.808  1.00  0.00     0.152 C 
HETATM   24  C6  UNL     1      -7.598  73.818  28.959  1.00  0.00     0.252 C 
HETATM   25  N5  UNL     1      -6.214  73.534  28.733  1.00  0.00    -0.072 N 
HETATM   26  C7  UNL     1      -5.908  73.412  27.312  1.00  0.00     0.252 C 
ATOM     27  H52 UNL     1      -5.616  74.227  29.182  1.00  0.00     0.277 HD
ATOM     28  H51 UNL     1      -5.917  72.705  29.248  1.00  0.00     0.277 HD
HETATM   29  C8  UNL     1      -6.590  72.144  26.837  1.00  0.00     0.152 C 
ENDBRANCH   4  22
BRANCH  13  30
HETATM   30  C12 UNL     1      -9.782  72.702  24.685  1.00  0.00     0.161 C 
BRANCH  30  31
HETATM   31  C13 UNL     1      -8.912  72.870  23.479  1.00  0.00     0.200 C 
BRANCH  31  32
HETATM   32  O2  UNL     1      -7.678  72.212  23.458  1.00  0.00    -0.305 OA
BRANCH  32  33
HETATM   33  C14 UNL     1      -6.455  72.811  23.229  1.00  0.00     0.372 C 
HETATM   34  N9  UNL     1      -6.243  74.154  23.601  1.00  0.00    -0.032 NA
HETATM   35  O3  UNL     1      -5.542  72.160  22.692  1.00  0.00    -0.242 OA
ENDBRANCH  32  33
ENDBRANCH  31  32
ENDBRANCH  30  31
ENDBRANCH  13  30
TORSDOF 9
ENDMDL
