MODEL 1
REMARK VINA RESULT: -5.843654283      0.000      0.000
REMARK  10 active torsions:
REMARK  status: ('A' for Active; 'I' for Inactive)
REMARK    1  A    between atoms: N1_2  and  C2_3 
REMARK    2  A    between atoms: N1_2  and  C4_7 
REMARK    3  A    between atoms: C2_3  and  C3_4 
REMARK    4  A    between atoms: C3_4  and  O1_5 
REMARK    5  A    between atoms: C4_7  and  C5_8 
REMARK    6  A    between atoms: C5_8  and  C6_9 
REMARK    7  A    between atoms: C6_9  and  N2_10 
REMARK    8  A    between atoms: C8_15  and  N4_16 
REMARK    9  A    between atoms: C11_24  and  N6_25 
REMARK   10  A    between atoms: C13_27  and  N7_28 
ROOT
HETATM    1  N2  UNL     1     -11.178  72.996  22.389  1.00  0.00    -0.297 N 
HETATM    2  C7  UNL     1     -11.042  74.332  22.342  1.00  0.00     0.328 A 
HETATM    3  O2  UNL     1     -10.591  74.940  23.351  1.00  0.00    -0.246 OA
HETATM    4  N3  UNL     1     -11.359  75.079  21.279  1.00  0.00    -0.293 N 
ATOM      5  H3  UNL     1     -11.232  76.090  21.306  1.00  0.00     0.172 HD
HETATM    6  C8  UNL     1     -11.853  74.478  20.157  1.00  0.00     0.132 A 
HETATM    7  C9  UNL     1     -12.009  73.114  20.159  1.00  0.00     0.106 A 
HETATM    8  N5  UNL     1     -12.487  72.426  19.118  1.00  0.00    -0.317 N 
ATOM      9  H5  UNL     1     -12.747  72.938  18.275  1.00  0.00     0.169 HD
HETATM   10  C10 UNL     1     -12.642  71.090  19.131  1.00  0.00     0.272 A 
HETATM   11  O3  UNL     1     -13.103  70.472  18.118  1.00  0.00    -0.266 OA
HETATM   12  C11 UNL     1     -12.315  70.315  20.228  1.00  0.00     0.101 A 
HETATM   13  C15 UNL     1     -11.815  71.003  21.323  1.00  0.00     0.067 A 
HETATM   14  C16 UNL     1     -11.666  72.370  21.289  1.00  0.00     0.071 A 
ENDROOT
BRANCH   1  15
HETATM   15  C6  UNL     1     -10.825  72.294  23.544  1.00  0.00     0.135 C 
BRANCH  15  16
HETATM   16  C5  UNL     1      -9.324  71.881  23.511  1.00  0.00     0.050 C 
BRANCH  16  17
HETATM   17  C4  UNL     1      -8.683  72.310  24.742  1.00  0.00     0.273 C 
BRANCH  17  18
HETATM   18  N1  UNL     1      -7.504  73.118  24.751  1.00  0.00     0.086 N 
HETATM   19  C1  UNL     1      -7.966  74.298  25.567  1.00  0.00     0.310 C 
BRANCH  18  20
HETATM   20  C2  UNL     1      -7.129  73.698  23.490  1.00  0.00     0.297 C 
BRANCH  20  21
HETATM   21  C3  UNL     1      -5.659  73.437  23.260  1.00  0.00     0.194 C 
BRANCH  21  22
HETATM   22  O1  UNL     1      -5.648  72.248  22.461  1.00  0.00    -0.399 OA
ATOM     23  H1  UNL     1      -4.748  72.189  22.160  1.00  0.00     0.209 HD
ENDBRANCH  21  22
ENDBRANCH  20  21
ENDBRANCH  18  20
ENDBRANCH  17  18
ENDBRANCH  16  17
ENDBRANCH  15  16
ENDBRANCH   1  15
BRANCH   6  24
HETATM   24  N4  UNL     1     -12.146  75.201  19.164  1.00  0.00    -0.383 N 
ATOM     25  H42 UNL     1     -11.873  74.966  18.209  1.00  0.00     0.157 HD
ATOM     26  H41 UNL     1     -12.677  76.057  19.322  1.00  0.00     0.157 HD
ENDBRANCH   6  24
BRANCH  12  27
HETATM   27  N6  UNL     1     -12.492  68.906  20.216  1.00  0.00    -0.372 N 
HETATM   28  C12 UNL     1     -13.680  68.029  20.215  1.00  0.00     0.157 C 
HETATM   29  C13 UNL     1     -12.841  67.094  19.343  1.00  0.00     0.219 C 
HETATM   30  C14 UNL     1     -11.711  67.693  20.198  1.00  0.00     0.157 C 
BRANCH  29  31
HETATM   31  N7  UNL     1     -13.037  65.691  19.607  1.00  0.00    -0.072 N 
ATOM     32  H73 UNL     1     -13.768  65.561  20.307  1.00  0.00     0.274 HD
ATOM     33  H72 UNL     1     -13.479  65.238  18.807  1.00  0.00     0.274 HD
ATOM     34  H71 UNL     1     -12.192  65.188  19.878  1.00  0.00     0.274 HD
ENDBRANCH  29  31
ENDBRANCH  12  27
TORSDOF 10
ENDMDL
MODEL 2
REMARK VINA RESULT: -5.490019486      3.762      7.895
REMARK  10 active torsions:
REMARK  status: ('A' for Active; 'I' for Inactive)
REMARK    1  A    between atoms: N1_2  and  C2_3 
REMARK    2  A    between atoms: N1_2  and  C4_7 
REMARK    3  A    between atoms: C2_3  and  C3_4 
REMARK    4  A    between atoms: C3_4  and  O1_5 
REMARK    5  A    between atoms: C4_7  and  C5_8 
REMARK    6  A    between atoms: C5_8  and  C6_9 
REMARK    7  A    between atoms: C6_9  and  N2_10 
REMARK    8  A    between atoms: C8_15  and  N4_16 
REMARK    9  A    between atoms: C11_24  and  N6_25 
REMARK   10  A    between atoms: C13_27  and  N7_28 
ROOT
HETATM    1  N2  UNL     1      -6.564  73.361  25.184  1.00  0.00    -0.297 N 
HETATM    2  C7  UNL     1      -5.900  74.506  24.958  1.00  0.00     0.328 A 
HETATM    3  O2  UNL     1      -5.602  74.821  23.774  1.00  0.00    -0.246 OA
HETATM    4  N3  UNL     1      -5.522  75.353  25.921  1.00  0.00    -0.293 N 
ATOM      5  H3  UNL     1      -5.020  76.208  25.684  1.00  0.00     0.172 HD
HETATM    6  C8  UNL     1      -5.814  75.067  27.223  1.00  0.00     0.132 A 
HETATM    7  C9  UNL     1      -6.493  73.906  27.503  1.00  0.00     0.106 A 
HETATM    8  N5  UNL     1      -6.826  73.527  28.740  1.00  0.00    -0.317 N 
ATOM      9  H5  UNL     1      -6.567  74.131  29.520  1.00  0.00     0.169 HD
HETATM   10  C10 UNL     1      -7.486  72.385  29.004  1.00  0.00     0.272 A 
HETATM   11  O3  UNL     1      -7.783  72.059  30.199  1.00  0.00    -0.266 OA
HETATM   12  C11 UNL     1      -7.878  71.507  28.011  1.00  0.00     0.101 A 
HETATM   13  C15 UNL     1      -7.546  71.877  26.717  1.00  0.00     0.067 A 
HETATM   14  C16 UNL     1      -6.870  73.048  26.469  1.00  0.00     0.071 A 
ENDROOT
BRANCH   1  15
HETATM   15  C6  UNL     1      -6.917  72.530  24.118  1.00  0.00     0.135 C 
BRANCH  15  16
HETATM   16  C5  UNL     1      -8.288  72.952  23.511  1.00  0.00     0.050 C 
BRANCH  16  17
HETATM   17  C4  UNL     1      -9.247  71.877  23.703  1.00  0.00     0.273 C 
BRANCH  17  18
HETATM   18  N1  UNL     1      -9.861  71.193  22.609  1.00  0.00     0.086 N 
HETATM   19  C1  UNL     1     -11.268  71.727  22.684  1.00  0.00     0.310 C 
BRANCH  18  20
HETATM   20  C2  UNL     1     -10.023  69.773  22.765  1.00  0.00     0.297 C 
BRANCH  20  21
HETATM   21  C3  UNL     1      -9.931  69.127  21.403  1.00  0.00     0.194 C 
BRANCH  21  22
HETATM   22  O1  UNL     1      -8.531  68.863  21.249  1.00  0.00    -0.399 OA
ATOM     23  H1  UNL     1      -8.308  69.309  20.440  1.00  0.00     0.209 HD
ENDBRANCH  21  22
ENDBRANCH  20  21
ENDBRANCH  18  20
ENDBRANCH  17  18
ENDBRANCH  16  17
ENDBRANCH  15  16
ENDBRANCH   1  15
BRANCH   6  24
HETATM   24  N4  UNL     1      -5.450  75.880  28.118  1.00  0.00    -0.383 N 
ATOM     25  H42 UNL     1      -6.035  76.123  28.917  1.00  0.00     0.157 HD
ATOM     26  H41 UNL     1      -4.530  76.314  28.038  1.00  0.00     0.157 HD
ENDBRANCH   6  24
BRANCH  12  27
HETATM   27  N6  UNL     1      -8.570  70.306  28.318  1.00  0.00    -0.372 N 
HETATM   28  C12 UNL     1     -10.000  69.956  28.433  1.00  0.00     0.157 C 
HETATM   29  C13 UNL     1      -9.588  68.593  27.873  1.00  0.00     0.219 C 
HETATM   30  C14 UNL     1      -8.302  68.927  28.647  1.00  0.00     0.157 C 
BRANCH  29  31
HETATM   31  N7  UNL     1     -10.291  67.473  28.445  1.00  0.00    -0.072 N 
ATOM     32  H73 UNL     1     -10.380  67.588  29.455  1.00  0.00     0.274 HD
ATOM     33  H72 UNL     1     -11.275  67.499  28.178  1.00  0.00     0.274 HD
ATOM     34  H71 UNL     1      -9.888  66.562  28.226  1.00  0.00     0.274 HD
ENDBRANCH  29  31
ENDBRANCH  12  27
TORSDOF 10
ENDMDL
MODEL 3
REMARK VINA RESULT: -5.433167160      4.634      8.480
REMARK  10 active torsions:
REMARK  status: ('A' for Active; 'I' for Inactive)
REMARK    1  A    between atoms: N1_2  and  C2_3 
REMARK    2  A    between atoms: N1_2  and  C4_7 
REMARK    3  A    between atoms: C2_3  and  C3_4 
REMARK    4  A    between atoms: C3_4  and  O1_5 
REMARK    5  A    between atoms: C4_7  and  C5_8 
REMARK    6  A    between atoms: C5_8  and  C6_9 
REMARK    7  A    between atoms: C6_9  and  N2_10 
REMARK    8  A    between atoms: C8_15  and  N4_16 
REMARK    9  A    between atoms: C11_24  and  N6_25 
REMARK   10  A    between atoms: C13_27  and  N7_28 
ROOT
HETATM    1  N2  UNL     1      -9.348  71.966  24.675  1.00  0.00    -0.297 N 
HETATM    2  C7  UNL     1      -9.161  71.589  23.399  1.00  0.00     0.328 A 
HETATM    3  O2  UNL     1     -10.119  71.071  22.764  1.00  0.00    -0.246 OA
HETATM    4  N3  UNL     1      -8.005  71.727  22.741  1.00  0.00    -0.293 N 
ATOM      5  H3  UNL     1      -7.927  71.422  21.772  1.00  0.00     0.172 HD
HETATM    6  C8  UNL     1      -6.930  72.281  23.376  1.00  0.00     0.132 A 
HETATM    7  C9  UNL     1      -7.075  72.681  24.681  1.00  0.00     0.106 A 
HETATM    8  N5  UNL     1      -6.089  73.229  25.397  1.00  0.00    -0.317 N 
ATOM      9  H5  UNL     1      -5.181  73.363  24.951  1.00  0.00     0.169 HD
HETATM   10  C10 UNL     1      -6.238  73.613  26.678  1.00  0.00     0.272 A 
HETATM   11  O3  UNL     1      -5.272  74.131  27.325  1.00  0.00    -0.266 OA
HETATM   12  C11 UNL     1      -7.432  73.471  27.360  1.00  0.00     0.101 A 
HETATM   13  C15 UNL     1      -8.473  72.906  26.641  1.00  0.00     0.067 A 
HETATM   14  C16 UNL     1      -8.298  72.520  25.333  1.00  0.00     0.071 A 
ENDROOT
BRANCH   1  15
HETATM   15  C6  UNL     1     -10.589  71.781  25.288  1.00  0.00     0.135 C 
BRANCH  15  16
HETATM   16  C5  UNL     1     -10.801  70.289  25.684  1.00  0.00     0.050 C 
BRANCH  16  17
HETATM   17  C4  UNL     1     -11.353  70.225  27.026  1.00  0.00     0.273 C 
BRANCH  17  18
HETATM   18  N1  UNL     1     -10.683  69.560  28.099  1.00  0.00     0.086 N 
HETATM   19  C1  UNL     1     -10.306  70.727  28.975  1.00  0.00     0.310 C 
BRANCH  18  20
HETATM   20  C2  UNL     1      -9.422  68.953  27.774  1.00  0.00     0.297 C 
BRANCH  20  21
HETATM   21  C3  UNL     1      -8.317  69.775  28.395  1.00  0.00     0.194 C 
BRANCH  21  22
HETATM   22  O1  UNL     1      -7.451  68.793  28.974  1.00  0.00    -0.399 OA
ATOM     23  H1  UNL     1      -6.975  68.447  28.228  1.00  0.00     0.209 HD
ENDBRANCH  21  22
ENDBRANCH  20  21
ENDBRANCH  18  20
ENDBRANCH  17  18
ENDBRANCH  16  17
ENDBRANCH  15  16
ENDBRANCH   1  15
BRANCH   6  24
HETATM   24  N4  UNL     1      -5.848  72.403  22.737  1.00  0.00    -0.383 N 
ATOM     25  H42 UNL     1      -5.805  72.770  21.786  1.00  0.00     0.157 HD
ATOM     26  H41 UNL     1      -4.978  72.123  23.190  1.00  0.00     0.157 HD
ENDBRANCH   6  24
BRANCH  12  27
HETATM   27  N6  UNL     1      -7.561  73.881  28.714  1.00  0.00    -0.372 N 
HETATM   28  C12 UNL     1      -7.567  73.158  30.001  1.00  0.00     0.157 C 
HETATM   29  C13 UNL     1      -6.867  74.395  30.564  1.00  0.00     0.219 C 
HETATM   30  C14 UNL     1      -7.734  75.082  29.495  1.00  0.00     0.157 C 
BRANCH  29  31
HETATM   31  N7  UNL     1      -7.267  74.754  31.901  1.00  0.00    -0.072 N 
ATOM     32  H73 UNL     1      -8.037  74.161  32.211  1.00  0.00     0.274 HD
ATOM     33  H72 UNL     1      -6.551  74.477  32.572  1.00  0.00     0.274 HD
ATOM     34  H71 UNL     1      -7.506  75.738  32.022  1.00  0.00     0.274 HD
ENDBRANCH  29  31
ENDBRANCH  12  27
TORSDOF 10
ENDMDL
MODEL 4
REMARK VINA RESULT: -5.423564070      4.193      7.904
REMARK  10 active torsions:
REMARK  status: ('A' for Active; 'I' for Inactive)
REMARK    1  A    between atoms: N1_2  and  C2_3 
REMARK    2  A    between atoms: N1_2  and  C4_7 
REMARK    3  A    between atoms: C2_3  and  C3_4 
REMARK    4  A    between atoms: C3_4  and  O1_5 
REMARK    5  A    between atoms: C4_7  and  C5_8 
REMARK    6  A    between atoms: C5_8  and  C6_9 
REMARK    7  A    between atoms: C6_9  and  N2_10 
REMARK    8  A    between atoms: C8_15  and  N4_16 
REMARK    9  A    between atoms: C11_24  and  N6_25 
REMARK   10  A    between atoms: C13_27  and  N7_28 
ROOT
HETATM    1  N2  UNL     1     -11.540  70.589  25.607  1.00  0.00    -0.297 N 
HETATM    2  C7  UNL     1     -12.542  69.701  25.488  1.00  0.00     0.328 A 
HETATM    3  O2  UNL     1     -13.494  69.950  24.701  1.00  0.00    -0.246 OA
HETATM    4  N3  UNL     1     -12.601  68.548  26.162  1.00  0.00    -0.293 N 
ATOM      5  H3  UNL     1     -13.389  67.915  26.028  1.00  0.00     0.172 HD
HETATM    6  C8  UNL     1     -11.600  68.222  27.031  1.00  0.00     0.132 A 
HETATM    7  C9  UNL     1     -10.555  69.100  27.185  1.00  0.00     0.106 A 
HETATM    8  N5  UNL     1      -9.527  68.883  28.010  1.00  0.00    -0.317 N 
ATOM      9  H5  UNL     1      -9.512  68.020  28.553  1.00  0.00     0.169 HD
HETATM   10  C10 UNL     1      -8.510  69.751  28.158  1.00  0.00     0.272 A 
HETATM   11  O3  UNL     1      -7.549  69.508  28.957  1.00  0.00    -0.266 OA
HETATM   12  C11 UNL     1      -8.445  70.944  27.463  1.00  0.00     0.101 A 
HETATM   13  C15 UNL     1      -9.499  71.194  26.598  1.00  0.00     0.067 A 
HETATM   14  C16 UNL     1     -10.529  70.293  26.462  1.00  0.00     0.071 A 
ENDROOT
BRANCH   1  15
HETATM   15  C6  UNL     1     -11.559  71.773  24.866  1.00  0.00     0.135 C 
BRANCH  15  16
HETATM   16  C5  UNL     1     -10.826  71.593  23.504  1.00  0.00     0.050 C 
BRANCH  16  17
HETATM   17  C4  UNL     1     -10.032  72.778  23.229  1.00  0.00     0.273 C 
BRANCH  17  18
HETATM   18  N1  UNL     1      -8.808  73.056  23.912  1.00  0.00     0.086 N 
HETATM   19  C1  UNL     1      -8.480  74.426  23.375  1.00  0.00     0.310 C 
BRANCH  18  20
HETATM   20  C2  UNL     1      -7.677  72.256  23.529  1.00  0.00     0.297 C 
BRANCH  20  21
HETATM   21  C3  UNL     1      -6.511  73.175  23.251  1.00  0.00     0.194 C 
BRANCH  21  22
HETATM   22  O1  UNL     1      -5.613  72.359  22.490  1.00  0.00    -0.399 OA
ATOM     23  H1  UNL     1      -4.793  72.838  22.523  1.00  0.00     0.209 HD
ENDBRANCH  21  22
ENDBRANCH  20  21
ENDBRANCH  18  20
ENDBRANCH  17  18
ENDBRANCH  16  17
ENDBRANCH  15  16
ENDBRANCH   1  15
BRANCH   6  24
HETATM   24  N4  UNL     1     -11.674  67.128  27.658  1.00  0.00    -0.383 N 
ATOM     25  H42 UNL     1     -11.204  66.967  28.548  1.00  0.00     0.157 HD
ATOM     26  H41 UNL     1     -12.229  66.372  27.255  1.00  0.00     0.157 HD
ENDBRANCH   6  24
BRANCH  12  27
HETATM   27  N6  UNL     1      -7.362  71.845  27.641  1.00  0.00    -0.372 N 
HETATM   28  C12 UNL     1      -6.120  72.106  26.887  1.00  0.00     0.157 C 
HETATM   29  C13 UNL     1      -6.312  73.564  27.306  1.00  0.00     0.219 C 
HETATM   30  C14 UNL     1      -6.922  72.882  28.543  1.00  0.00     0.157 C 
BRANCH  29  31
HETATM   31  N7  UNL     1      -5.092  74.264  27.618  1.00  0.00    -0.072 N 
ATOM     32  H73 UNL     1      -4.610  73.808  28.393  1.00  0.00     0.274 HD
ATOM     33  H72 UNL     1      -4.405  74.125  26.878  1.00  0.00     0.274 HD
ATOM     34  H71 UNL     1      -5.211  75.259  27.810  1.00  0.00     0.274 HD
ENDBRANCH  29  31
ENDBRANCH  12  27
TORSDOF 10
ENDMDL
MODEL 5
REMARK VINA RESULT: -5.377907769      6.493      9.501
REMARK  10 active torsions:
REMARK  status: ('A' for Active; 'I' for Inactive)
REMARK    1  A    between atoms: N1_2  and  C2_3 
REMARK    2  A    between atoms: N1_2  and  C4_7 
REMARK    3  A    between atoms: C2_3  and  C3_4 
REMARK    4  A    between atoms: C3_4  and  O1_5 
REMARK    5  A    between atoms: C4_7  and  C5_8 
REMARK    6  A    between atoms: C5_8  and  C6_9 
REMARK    7  A    between atoms: C6_9  and  N2_10 
REMARK    8  A    between atoms: C8_15  and  N4_16 
REMARK    9  A    between atoms: C11_24  and  N6_25 
REMARK   10  A    between atoms: C13_27  and  N7_28 
ROOT
HETATM    1  N2  UNL     1      -7.668  73.493  30.230  1.00  0.00    -0.297 N 
HETATM    2  C7  UNL     1      -7.797  74.059  31.442  1.00  0.00     0.328 A 
HETATM    3  O2  UNL     1      -8.463  73.464  32.331  1.00  0.00    -0.246 OA
HETATM    4  N3  UNL     1      -7.259  75.236  31.777  1.00  0.00    -0.293 N 
ATOM      5  H3  UNL     1      -7.393  75.613  32.715  1.00  0.00     0.172 HD
HETATM    6  C8  UNL     1      -6.528  75.930  30.856  1.00  0.00     0.132 A 
HETATM    7  C9  UNL     1      -6.369  75.389  29.604  1.00  0.00     0.106 A 
HETATM    8  N5  UNL     1      -5.678  75.985  28.627  1.00  0.00    -0.317 N 
ATOM      9  H5  UNL     1      -5.242  76.886  28.820  1.00  0.00     0.169 HD
HETATM   10  C10 UNL     1      -5.532  75.450  27.401  1.00  0.00     0.272 A 
HETATM   11  O3  UNL     1      -4.867  76.050  26.497  1.00  0.00    -0.266 OA
HETATM   12  C11 UNL     1      -6.088  74.233  27.052  1.00  0.00     0.101 A 
HETATM   13  C15 UNL     1      -6.809  73.593  28.047  1.00  0.00     0.067 A 
HETATM   14  C16 UNL     1      -6.946  74.158  29.293  1.00  0.00     0.071 A 
ENDROOT
BRANCH   1  15
HETATM   15  C6  UNL     1      -8.268  72.260  29.963  1.00  0.00     0.135 C 
BRANCH  15  16
HETATM   16  C5  UNL     1      -9.735  72.445  29.473  1.00  0.00     0.050 C 
BRANCH  16  17
HETATM   17  C4  UNL     1     -10.090  71.340  28.601  1.00  0.00     0.273 C 
BRANCH  17  18
HETATM   18  N1  UNL     1      -9.127  70.663  27.790  1.00  0.00     0.086 N 
HETATM   19  C1  UNL     1      -9.409  71.267  26.438  1.00  0.00     0.310 C 
BRANCH  18  20
HETATM   20  C2  UNL     1      -9.349  69.257  27.591  1.00  0.00     0.297 C 
BRANCH  20  21
HETATM   21  C3  UNL     1      -8.807  68.512  28.789  1.00  0.00     0.194 C 
BRANCH  21  22
HETATM   22  O1  UNL     1      -7.466  68.999  28.910  1.00  0.00    -0.399 OA
ATOM     23  H1  UNL     1      -7.142  68.986  28.017  1.00  0.00     0.209 HD
ENDBRANCH  21  22
ENDBRANCH  20  21
ENDBRANCH  18  20
ENDBRANCH  17  18
ENDBRANCH  16  17
ENDBRANCH  15  16
ENDBRANCH   1  15
BRANCH   6  24
HETATM   24  N4  UNL     1      -6.027  77.039  31.193  1.00  0.00    -0.383 N 
ATOM     25  H42 UNL     1      -6.500  77.694  31.816  1.00  0.00     0.157 HD
ATOM     26  H41 UNL     1      -5.110  77.293  30.825  1.00  0.00     0.157 HD
ENDBRANCH   6  24
BRANCH  12  27
HETATM   27  N6  UNL     1      -5.922  73.693  25.749  1.00  0.00    -0.372 N 
HETATM   28  C12 UNL     1      -5.713  72.326  25.232  1.00  0.00     0.157 C 
HETATM   29  C13 UNL     1      -6.546  72.780  24.032  1.00  0.00     0.219 C 
HETATM   30  C14 UNL     1      -5.873  74.121  24.371  1.00  0.00     0.157 C 
BRANCH  29  31
HETATM   31  N7  UNL     1      -6.106  72.257  22.764  1.00  0.00    -0.072 N 
ATOM     32  H73 UNL     1      -6.535  71.348  22.587  1.00  0.00     0.274 HD
ATOM     33  H72 UNL     1      -6.513  72.794  21.999  1.00  0.00     0.274 HD
ATOM     34  H71 UNL     1      -5.094  72.199  22.658  1.00  0.00     0.274 HD
ENDBRANCH  29  31
ENDBRANCH  12  27
TORSDOF 10
ENDMDL
