MODEL 1
REMARK VINA RESULT: -6.408203150      0.000      0.000
REMARK  10 active torsions:
REMARK  status: ('A' for Active; 'I' for Inactive)
REMARK    1  A    between atoms: O1_2  and  N1_3 
REMARK    2  A    between atoms: N1_3  and  O2_4 
REMARK    3  A    between atoms: N1_3  and  N2_6 
REMARK       I    between atoms: N2_6  and  C2_8 
REMARK    4  A    between atoms: N4_10  and  C3_12 
REMARK    5  A    between atoms: C3_12  and  C4_13 
REMARK    6  A    between atoms: C4_13  and  C5_14 
REMARK    7  A    between atoms: C5_14  and  N5_15 
REMARK    8  A    between atoms: N5_15  and  C6_17 
REMARK    9  A    between atoms: C9_23  and  C10_24 
REMARK   10  A    between atoms: C10_24  and  O3_25 
ROOT
HETATM    1  C6  UNL     1      -9.667  72.136  21.845  1.00  0.00     0.682 A 
HETATM    2  N6  UNL     1     -10.448  72.575  20.845  1.00  0.00    -0.181 N 
ATOM      3  H6  UNL     1     -10.712  71.926  20.104  1.00  0.00     0.185 HD
HETATM    4  C7  UNL     1     -10.901  73.859  20.787  1.00  0.00     0.143 A 
HETATM    5  C8  UNL     1     -11.730  74.266  19.694  1.00  0.00     0.119 C 
HETATM    6  N7  UNL     1     -12.404  74.576  18.809  1.00  0.00    -0.190 NA
HETATM    7  C9  UNL     1     -10.553  74.739  21.777  1.00  0.00     0.072 A 
HETATM    8  C11 UNL     1      -9.751  74.295  22.807  1.00  0.00     0.271 A 
HETATM    9  O4  UNL     1      -9.444  75.104  23.697  1.00  0.00    -0.267 OA
HETATM   10  N8  UNL     1      -9.334  73.011  22.810  1.00  0.00    -0.156 N 
ATOM     11  H8  UNL     1      -8.743  72.692  23.578  1.00  0.00     0.187 HD
ENDROOT
BRANCH   7  12
HETATM   12  C10 UNL     1     -11.043  76.128  21.711  1.00  0.00     0.211 C 
BRANCH  12  13
HETATM   13  O3  UNL     1     -10.033  76.992  21.285  1.00  0.00    -0.396 OA
ATOM     14  H3  UNL     1      -9.757  77.565  21.991  1.00  0.00     0.209 HD
ENDBRANCH  12  13
ENDBRANCH   7  12
BRANCH   1  15
HETATM   15  N5  UNL     1      -9.230  70.931  21.921  1.00  0.00    -0.226 N 
ATOM     16  H5  UNL     1      -8.610  70.712  22.700  1.00  0.00     0.177 HD
BRANCH  15  17
HETATM   17  C5  UNL     1      -9.531  69.872  21.020  1.00  0.00     0.139 C 
BRANCH  17  18
HETATM   18  C4  UNL     1     -10.418  68.804  21.623  1.00  0.00     0.040 C 
BRANCH  18  19
HETATM   19  C3  UNL     1     -11.763  68.756  20.944  1.00  0.00     0.124 C 
BRANCH  19  20
HETATM   20  N4  UNL     1     -11.566  68.195  19.615  1.00  0.00    -0.363 N 
HETATM   21  C2  UNL     1     -12.482  67.508  19.022  1.00  0.00     0.202 C 
HETATM   22  N2  UNL     1     -13.751  67.236  19.600  1.00  0.00    -0.245 N 
HETATM   23  N3  UNL     1     -12.194  67.003  17.724  1.00  0.00    -0.062 NA
ATOM     24  H2  UNL     1     -13.808  67.070  20.605  1.00  0.00     0.188 HD
ATOM     25  H4  UNL     1     -10.678  68.350  19.139  1.00  0.00     0.162 HD
BRANCH  22  26
HETATM   26  N1  UNL     1     -14.925  67.187  18.840  1.00  0.00     0.037 NA
BRANCH  26  27
HETATM   27  O1  UNL     1     -16.004  67.573  19.576  1.00  0.00    -0.266 OA
HETATM   28  C1  UNL     1     -15.952  68.908  19.933  1.00  0.00     0.234 C 
ENDBRANCH  26  27
BRANCH  26  29
HETATM   29  O2  UNL     1     -14.837  67.880  17.704  1.00  0.00    -0.270 OA
ATOM     30  H2  UNL     1     -14.010  68.343  17.644  1.00  0.00     0.241 HD
ENDBRANCH  26  29
ENDBRANCH  22  26
ENDBRANCH  19  20
ENDBRANCH  18  19
ENDBRANCH  17  18
ENDBRANCH  15  17
ENDBRANCH   1  15
TORSDOF 10
ENDMDL
MODEL 2
REMARK VINA RESULT: -6.379978301      2.389      3.502
REMARK  10 active torsions:
REMARK  status: ('A' for Active; 'I' for Inactive)
REMARK    1  A    between atoms: O1_2  and  N1_3 
REMARK    2  A    between atoms: N1_3  and  O2_4 
REMARK    3  A    between atoms: N1_3  and  N2_6 
REMARK       I    between atoms: N2_6  and  C2_8 
REMARK    4  A    between atoms: N4_10  and  C3_12 
REMARK    5  A    between atoms: C3_12  and  C4_13 
REMARK    6  A    between atoms: C4_13  and  C5_14 
REMARK    7  A    between atoms: C5_14  and  N5_15 
REMARK    8  A    between atoms: N5_15  and  C6_17 
REMARK    9  A    between atoms: C9_23  and  C10_24 
REMARK   10  A    between atoms: C10_24  and  O3_25 
ROOT
HETATM    1  C6  UNL     1      -9.892  72.700  22.166  1.00  0.00     0.682 A 
HETATM    2  N6  UNL     1      -9.675  73.938  22.639  1.00  0.00    -0.181 N 
ATOM      3  H6  UNL     1     -10.413  74.638  22.547  1.00  0.00     0.185 HD
HETATM    4  C7  UNL     1      -8.503  74.292  23.237  1.00  0.00     0.143 A 
HETATM    5  C8  UNL     1      -8.333  75.629  23.720  1.00  0.00     0.119 C 
HETATM    6  N7  UNL     1      -8.215  76.710  24.110  1.00  0.00    -0.190 NA
HETATM    7  C9  UNL     1      -7.506  73.361  23.365  1.00  0.00     0.072 A 
HETATM    8  C11 UNL     1      -7.723  72.089  22.881  1.00  0.00     0.271 A 
HETATM    9  O4  UNL     1      -6.811  71.256  23.005  1.00  0.00    -0.267 OA
HETATM   10  N8  UNL     1      -8.904  71.797  22.299  1.00  0.00    -0.156 N 
ATOM     11  H8  UNL     1      -9.055  70.852  21.946  1.00  0.00     0.187 HD
ENDROOT
BRANCH   7  12
HETATM   12  C10 UNL     1      -6.239  73.748  24.011  1.00  0.00     0.211 C 
BRANCH  12  13
HETATM   13  O3  UNL     1      -5.147  73.394  23.216  1.00  0.00    -0.396 OA
ATOM     14  H3  UNL     1      -4.890  72.493  23.376  1.00  0.00     0.209 HD
ENDBRANCH  12  13
ENDBRANCH   7  12
BRANCH   1  15
HETATM   15  N5  UNL     1     -10.988  72.345  21.600  1.00  0.00    -0.226 N 
ATOM     16  H5  UNL     1     -11.592  71.709  22.121  1.00  0.00     0.177 HD
BRANCH  15  17
HETATM   17  C5  UNL     1     -11.440  72.754  20.315  1.00  0.00     0.139 C 
BRANCH  17  18
HETATM   18  C4  UNL     1     -12.005  71.619  19.488  1.00  0.00     0.040 C 
BRANCH  18  19
HETATM   19  C3  UNL     1     -11.359  70.304  19.840  1.00  0.00     0.124 C 
BRANCH  19  20
HETATM   20  N4  UNL     1     -11.340  69.485  18.636  1.00  0.00    -0.363 N 
HETATM   21  C2  UNL     1     -11.772  68.271  18.629  1.00  0.00     0.202 C 
HETATM   22  N2  UNL     1     -12.299  67.623  19.780  1.00  0.00    -0.245 N 
HETATM   23  N3  UNL     1     -11.712  67.553  17.403  1.00  0.00    -0.062 NA
ATOM     24  H2  UNL     1     -11.885  67.825  20.690  1.00  0.00     0.188 HD
ATOM     25  H4  UNL     1     -10.974  69.885  17.772  1.00  0.00     0.162 HD
BRANCH  22  26
HETATM   26  N1  UNL     1     -13.364  66.719  19.708  1.00  0.00     0.037 NA
BRANCH  26  27
HETATM   27  O1  UNL     1     -14.381  67.214  18.951  1.00  0.00    -0.266 OA
HETATM   28  C1  UNL     1     -15.072  68.229  19.588  1.00  0.00     0.234 C 
ENDBRANCH  26  27
BRANCH  26  29
HETATM   29  O2  UNL     1     -12.990  65.509  19.290  1.00  0.00    -0.270 OA
ATOM     30  H2  UNL     1     -12.357  65.119  19.880  1.00  0.00     0.241 HD
ENDBRANCH  26  29
ENDBRANCH  22  26
ENDBRANCH  19  20
ENDBRANCH  18  19
ENDBRANCH  17  18
ENDBRANCH  15  17
ENDBRANCH   1  15
TORSDOF 10
ENDMDL
MODEL 3
REMARK VINA RESULT: -6.362016190      4.843      8.194
REMARK  10 active torsions:
REMARK  status: ('A' for Active; 'I' for Inactive)
REMARK    1  A    between atoms: O1_2  and  N1_3 
REMARK    2  A    between atoms: N1_3  and  O2_4 
REMARK    3  A    between atoms: N1_3  and  N2_6 
REMARK       I    between atoms: N2_6  and  C2_8 
REMARK    4  A    between atoms: N4_10  and  C3_12 
REMARK    5  A    between atoms: C3_12  and  C4_13 
REMARK    6  A    between atoms: C4_13  and  C5_14 
REMARK    7  A    between atoms: C5_14  and  N5_15 
REMARK    8  A    between atoms: N5_15  and  C6_17 
REMARK    9  A    between atoms: C9_23  and  C10_24 
REMARK   10  A    between atoms: C10_24  and  O3_25 
ROOT
HETATM    1  C6  UNL     1      -8.917  71.877  22.815  1.00  0.00     0.682 A 
HETATM    2  N6  UNL     1     -10.218  71.733  23.115  1.00  0.00    -0.181 N 
ATOM      3  H6  UNL     1     -10.658  72.408  23.742  1.00  0.00     0.185 HD
HETATM    4  C7  UNL     1     -10.972  70.717  22.609  1.00  0.00     0.143 A 
HETATM    5  C8  UNL     1     -12.354  70.618  22.966  1.00  0.00     0.119 C 
HETATM    6  N7  UNL     1     -13.470  70.557  23.260  1.00  0.00    -0.190 NA
HETATM    7  C9  UNL     1     -10.393  69.806  21.765  1.00  0.00     0.072 A 
HETATM    8  C11 UNL     1      -9.057  69.948  21.455  1.00  0.00     0.271 A 
HETATM    9  O4  UNL     1      -8.546  69.116  20.689  1.00  0.00    -0.267 OA
HETATM   10  N8  UNL     1      -8.362  70.976  21.986  1.00  0.00    -0.156 N 
ATOM     11  H8  UNL     1      -7.375  71.073  21.748  1.00  0.00     0.187 HD
ENDROOT
BRANCH   7  12
HETATM   12  C10 UNL     1     -11.210  68.708  21.220  1.00  0.00     0.211 C 
BRANCH  12  13
HETATM   13  O3  UNL     1     -10.579  67.477  21.410  1.00  0.00    -0.396 OA
ATOM     14  H3  UNL     1     -11.171  66.760  21.217  1.00  0.00     0.209 HD
ENDBRANCH  12  13
ENDBRANCH   7  12
BRANCH   1  15
HETATM   15  N5  UNL     1      -8.189  72.827  23.279  1.00  0.00    -0.226 N 
ATOM     16  H5  UNL     1      -8.593  73.763  23.276  1.00  0.00     0.177 HD
BRANCH  15  17
HETATM   17  C5  UNL     1      -6.871  72.696  23.799  1.00  0.00     0.139 C 
BRANCH  17  18
HETATM   18  C4  UNL     1      -6.740  73.167  25.231  1.00  0.00     0.040 C 
BRANCH  18  19
HETATM   19  C3  UNL     1      -6.183  72.084  26.120  1.00  0.00     0.124 C 
BRANCH  19  20
HETATM   20  N4  UNL     1      -6.499  72.438  27.496  1.00  0.00    -0.363 N 
HETATM   21  C2  UNL     1      -7.401  71.812  28.171  1.00  0.00     0.202 C 
HETATM   22  N2  UNL     1      -8.164  70.735  27.644  1.00  0.00    -0.245 N 
HETATM   23  N3  UNL     1      -7.637  72.231  29.509  1.00  0.00    -0.062 NA
ATOM     24  H2  UNL     1      -8.441  70.762  26.663  1.00  0.00     0.188 HD
ATOM     25  H4  UNL     1      -5.991  73.203  27.939  1.00  0.00     0.162 HD
BRANCH  22  26
HETATM   26  N1  UNL     1      -8.549  69.638  28.423  1.00  0.00     0.037 NA
BRANCH  26  27
HETATM   27  O1  UNL     1      -9.162  68.687  27.666  1.00  0.00    -0.266 OA
HETATM   28  C1  UNL     1      -9.981  67.861  28.413  1.00  0.00     0.234 C 
ENDBRANCH  26  27
BRANCH  26  29
HETATM   29  O2  UNL     1      -7.540  69.123  29.127  1.00  0.00    -0.270 OA
ATOM     30  H2  UNL     1      -7.831  68.402  29.672  1.00  0.00     0.241 HD
ENDBRANCH  26  29
ENDBRANCH  22  26
ENDBRANCH  19  20
ENDBRANCH  18  19
ENDBRANCH  17  18
ENDBRANCH  15  17
ENDBRANCH   1  15
TORSDOF 10
ENDMDL
MODEL 4
REMARK VINA RESULT: -6.359158286      2.825      6.462
REMARK  10 active torsions:
REMARK  status: ('A' for Active; 'I' for Inactive)
REMARK    1  A    between atoms: O1_2  and  N1_3 
REMARK    2  A    between atoms: N1_3  and  O2_4 
REMARK    3  A    between atoms: N1_3  and  N2_6 
REMARK       I    between atoms: N2_6  and  C2_8 
REMARK    4  A    between atoms: N4_10  and  C3_12 
REMARK    5  A    between atoms: C3_12  and  C4_13 
REMARK    6  A    between atoms: C4_13  and  C5_14 
REMARK    7  A    between atoms: C5_14  and  N5_15 
REMARK    8  A    between atoms: N5_15  and  C6_17 
REMARK    9  A    between atoms: C9_23  and  C10_24 
REMARK   10  A    between atoms: C10_24  and  O3_25 
ROOT
HETATM    1  C6  UNL     1     -11.727  71.405  19.365  1.00  0.00     0.682 A 
HETATM    2  N6  UNL     1     -12.975  71.611  18.915  1.00  0.00    -0.181 N 
ATOM      3  H6  UNL     1     -13.325  72.568  18.853  1.00  0.00     0.185 HD
HETATM    4  C7  UNL     1     -13.789  70.586  18.538  1.00  0.00     0.143 A 
HETATM    5  C8  UNL     1     -15.110  70.871  18.066  1.00  0.00     0.119 C 
HETATM    6  N7  UNL     1     -16.171  71.120  17.682  1.00  0.00    -0.190 NA
HETATM    7  C9  UNL     1     -13.330  69.298  18.617  1.00  0.00     0.072 A 
HETATM    8  C11 UNL     1     -12.049  69.080  19.079  1.00  0.00     0.271 A 
HETATM    9  O4  UNL     1     -11.646  67.908  19.144  1.00  0.00    -0.267 OA
HETATM   10  N8  UNL     1     -11.289  70.135  19.436  1.00  0.00    -0.156 N 
ATOM     11  H8  UNL     1     -10.342  69.963  19.775  1.00  0.00     0.187 HD
ENDROOT
BRANCH   7  12
HETATM   12  C10 UNL     1     -14.214  68.192  18.209  1.00  0.00     0.211 C 
BRANCH  12  13
HETATM   13  O3  UNL     1     -14.319  67.239  19.225  1.00  0.00    -0.396 OA
ATOM     14  H3  UNL     1     -15.211  66.922  19.300  1.00  0.00     0.209 HD
ENDBRANCH  12  13
ENDBRANCH   7  12
BRANCH   1  15
HETATM   15  N5  UNL     1     -10.942  72.355  19.724  1.00  0.00    -0.226 N 
ATOM     16  H5  UNL     1      -9.959  72.116  19.862  1.00  0.00     0.177 HD
BRANCH  15  17
HETATM   17  C5  UNL     1     -11.312  73.710  19.949  1.00  0.00     0.139 C 
BRANCH  17  18
HETATM   18  C4  UNL     1     -10.594  74.343  21.121  1.00  0.00     0.040 C 
BRANCH  18  19
HETATM   19  C3  UNL     1     -10.588  73.433  22.322  1.00  0.00     0.124 C 
BRANCH  19  20
HETATM   20  N4  UNL     1      -9.200  73.162  22.664  1.00  0.00    -0.363 N 
HETATM   21  C2  UNL     1      -8.722  71.964  22.684  1.00  0.00     0.202 C 
HETATM   22  N2  UNL     1      -9.495  70.811  22.379  1.00  0.00    -0.245 N 
HETATM   23  N3  UNL     1      -7.353  71.803  23.029  1.00  0.00    -0.062 NA
ATOM     24  H2  UNL     1     -10.474  70.785  22.667  1.00  0.00     0.188 HD
ATOM     25  H4  UNL     1      -8.586  73.943  22.895  1.00  0.00     0.162 HD
BRANCH  22  26
HETATM   26  N1  UNL     1      -8.963  69.710  21.699  1.00  0.00     0.037 NA
BRANCH  26  27
HETATM   27  O1  UNL     1      -9.794  68.635  21.776  1.00  0.00    -0.266 OA
HETATM   28  C1  UNL     1     -10.839  68.834  22.660  1.00  0.00     0.234 C 
ENDBRANCH  26  27
BRANCH  26  29
HETATM   29  O2  UNL     1      -8.640  69.988  20.435  1.00  0.00    -0.270 OA
ATOM     30  H2  UNL     1      -9.336  70.462  19.996  1.00  0.00     0.241 HD
ENDBRANCH  26  29
ENDBRANCH  22  26
ENDBRANCH  19  20
ENDBRANCH  18  19
ENDBRANCH  17  18
ENDBRANCH  15  17
ENDBRANCH   1  15
TORSDOF 10
ENDMDL
MODEL 5
REMARK VINA RESULT: -6.321672780      5.038      7.142
REMARK  10 active torsions:
REMARK  status: ('A' for Active; 'I' for Inactive)
REMARK    1  A    between atoms: O1_2  and  N1_3 
REMARK    2  A    between atoms: N1_3  and  O2_4 
REMARK    3  A    between atoms: N1_3  and  N2_6 
REMARK       I    between atoms: N2_6  and  C2_8 
REMARK    4  A    between atoms: N4_10  and  C3_12 
REMARK    5  A    between atoms: C3_12  and  C4_13 
REMARK    6  A    between atoms: C4_13  and  C5_14 
REMARK    7  A    between atoms: C5_14  and  N5_15 
REMARK    8  A    between atoms: N5_15  and  C6_17 
REMARK    9  A    between atoms: C9_23  and  C10_24 
REMARK   10  A    between atoms: C10_24  and  O3_25 
ROOT
HETATM    1  C6  UNL     1      -8.008  71.757  26.941  1.00  0.00     0.682 A 
HETATM    2  N6  UNL     1      -9.226  71.437  26.477  1.00  0.00    -0.181 N 
ATOM      3  H6  UNL     1      -9.672  72.051  25.794  1.00  0.00     0.185 HD
HETATM    4  C7  UNL     1      -9.888  70.319  26.887  1.00  0.00     0.143 A 
HETATM    5  C8  UNL     1     -11.186  70.032  26.356  1.00  0.00     0.119 C 
HETATM    6  N7  UNL     1     -12.230  69.812  25.911  1.00  0.00    -0.190 NA
HETATM    7  C9  UNL     1      -9.300  69.487  27.803  1.00  0.00     0.072 A 
HETATM    8  C11 UNL     1      -8.049  69.811  28.283  1.00  0.00     0.271 A 
HETATM    9  O4  UNL     1      -7.528  69.048  29.112  1.00  0.00    -0.267 OA
HETATM   10  N8  UNL     1      -7.442  70.931  27.839  1.00  0.00    -0.156 N 
ATOM     11  H8  UNL     1      -6.516  71.161  28.199  1.00  0.00     0.187 HD
ENDROOT
BRANCH   7  12
HETATM   12  C10 UNL     1     -10.019  68.279  28.246  1.00  0.00     0.211 C 
BRANCH  12  13
HETATM   13  O3  UNL     1      -9.202  67.150  28.147  1.00  0.00    -0.396 OA
ATOM     14  H3  UNL     1      -9.177  66.679  28.972  1.00  0.00     0.209 HD
ENDBRANCH  12  13
ENDBRANCH   7  12
BRANCH   1  15
HETATM   15  N5  UNL     1      -7.365  72.804  26.568  1.00  0.00    -0.226 N 
ATOM     16  H5  UNL     1      -7.578  73.675  27.054  1.00  0.00     0.177 HD
BRANCH  15  17
HETATM   17  C5  UNL     1      -6.384  72.865  25.540  1.00  0.00     0.139 C 
BRANCH  17  18
HETATM   18  C4  UNL     1      -6.940  73.312  24.205  1.00  0.00     0.040 C 
BRANCH  18  19
HETATM   19  C3  UNL     1      -7.309  72.135  23.338  1.00  0.00     0.124 C 
BRANCH  19  20
HETATM   20  N4  UNL     1      -8.744  72.196  23.100  1.00  0.00    -0.363 N 
HETATM   21  C2  UNL     1      -9.317  71.476  22.197  1.00  0.00     0.202 C 
HETATM   22  N2  UNL     1      -8.613  70.568  21.360  1.00  0.00    -0.245 N 
HETATM   23  N3  UNL     1     -10.724  71.606  22.041  1.00  0.00    -0.062 NA
ATOM     24  H2  UNL     1      -7.676  70.817  21.042  1.00  0.00     0.188 HD
ATOM     25  H4  UNL     1      -9.312  72.827  23.664  1.00  0.00     0.162 HD
BRANCH  22  26
HETATM   26  N1  UNL     1      -9.160  69.346  20.954  1.00  0.00     0.037 NA
BRANCH  26  27
HETATM   27  O1  UNL     1      -9.504  68.581  22.027  1.00  0.00    -0.266 OA
HETATM   28  C1  UNL     1     -10.749  67.995  21.883  1.00  0.00     0.234 C 
ENDBRANCH  26  27
BRANCH  26  29
HETATM   29  O2  UNL     1     -10.182  69.489  20.110  1.00  0.00    -0.270 OA
ATOM     30  H2  UNL     1     -10.102  70.287  19.602  1.00  0.00     0.241 HD
ENDBRANCH  26  29
ENDBRANCH  22  26
ENDBRANCH  19  20
ENDBRANCH  18  19
ENDBRANCH  17  18
ENDBRANCH  15  17
ENDBRANCH   1  15
TORSDOF 10
ENDMDL
