MODEL 1
REMARK VINA RESULT: -6.530165941      0.000      0.000
REMARK  10 active torsions:
REMARK  status: ('A' for Active; 'I' for Inactive)
REMARK    1  A    between atoms: C1_2  and  C2_4 
REMARK    2  A    between atoms: C2_4  and  N2_5 
REMARK    3  A    between atoms: C2_4  and  C3_9 
REMARK    4  A    between atoms: C3_9  and  C4_10 
REMARK    5  A    between atoms: C4_10  and  N3_11 
REMARK    6  A    between atoms: C4_10  and  C5_15 
REMARK    7  A    between atoms: C5_15  and  C6_16 
REMARK    8  A    between atoms: C5_15  and  N4_19 
REMARK    9  A    between atoms: C6_16  and  O2_17 
REMARK   10  A    between atoms: N4_19  and  C7_21 
ROOT
HETATM    1  C5  UNL     1     -10.599  70.376  20.377  1.00  0.00     0.137 C 
ENDROOT
BRANCH   1   2
HETATM    2  C4  UNL     1     -11.810  70.143  19.528  1.00  0.00     0.210 C 
BRANCH   2   3
HETATM    3  C3  UNL     1     -12.820  69.198  20.038  1.00  0.00     0.077 C 
BRANCH   3   4
HETATM    4  C2  UNL     1     -13.583  68.386  19.050  1.00  0.00     0.274 C 
BRANCH   4   5
HETATM    5  C1  UNL     1     -12.783  67.172  18.633  1.00  0.00     0.261 C 
HETATM    6  N1  UNL     1     -11.979  67.220  17.482  1.00  0.00    -0.060 NA
HETATM    7  O1  UNL     1     -12.866  66.153  19.339  1.00  0.00    -0.275 OA
ENDBRANCH   4   5
BRANCH   4   8
HETATM    8  N2  UNL     1     -14.878  67.956  19.433  1.00  0.00    -0.067 N 
ATOM      9  H23 UNL     1     -14.874  67.027  19.855  1.00  0.00     0.275 HD
ATOM     10  H22 UNL     1     -15.240  68.471  20.236  1.00  0.00     0.275 HD
ATOM     11  H21 UNL     1     -15.490  68.015  18.619  1.00  0.00     0.275 HD
ENDBRANCH   4   8
ENDBRANCH   3   4
ENDBRANCH   2   3
BRANCH   2  12
HETATM   12  N3  UNL     1     -12.468  71.362  19.096  1.00  0.00    -0.073 N 
ATOM     13  H33 UNL     1     -13.138  71.194  18.346  1.00  0.00     0.274 HD
ATOM     14  H32 UNL     1     -13.119  71.718  19.795  1.00  0.00     0.274 HD
ATOM     15  H31 UNL     1     -11.763  72.052  18.838  1.00  0.00     0.274 HD
ENDBRANCH   2  12
ENDBRANCH   1   2
BRANCH   1  16
HETATM   16  C6  UNL     1     -10.020  69.050  20.871  1.00  0.00     0.191 C 
BRANCH  16  17
HETATM   17  O2  UNL     1      -8.635  69.130  20.818  1.00  0.00    -0.399 OA
ATOM     18  H2  UNL     1      -8.331  69.581  21.596  1.00  0.00     0.209 HD
ENDBRANCH  16  17
ENDBRANCH   1  16
BRANCH   1  19
HETATM   19  N4  UNL     1     -10.843  71.173  21.525  1.00  0.00    -0.366 N 
ATOM     20  H4  UNL     1     -11.709  70.949  22.015  1.00  0.00     0.161 HD
BRANCH  19  21
HETATM   21  C7  UNL     1     -10.184  72.102  22.045  1.00  0.00     0.117 A 
HETATM   22  C8  UNL     1     -10.803  73.340  22.203  1.00  0.00     0.136 A 
HETATM   23  N5  UNL     1     -10.136  74.347  22.748  1.00  0.00    -0.360 N 
HETATM   24  C9  UNL     1      -8.868  74.200  23.155  1.00  0.00     0.066 A 
ATOM     25  H5  UNL     1     -10.596  75.250  22.860  1.00  0.00     0.165 HD
HETATM   26  C10 UNL     1      -8.233  75.283  23.712  1.00  0.00     0.049 A 
HETATM   27  C13 UNL     1      -8.242  72.983  23.004  1.00  0.00     0.129 A 
HETATM   28  C11 UNL     1      -6.931  75.148  24.134  1.00  0.00     0.093 A 
HETATM   29  N6  UNL     1      -6.309  73.955  23.991  1.00  0.00    -0.332 N 
HETATM   30  C12 UNL     1      -6.939  72.885  23.440  1.00  0.00     0.274 A 
ATOM     31  H6  UNL     1      -5.343  73.857  24.305  1.00  0.00     0.168 HD
HETATM   32  O3  UNL     1      -6.339  71.788  23.317  1.00  0.00    -0.266 OA
HETATM   33  N7  UNL     1      -8.918  71.955  22.449  1.00  0.00    -0.335 N 
ATOM     34  H7  UNL     1      -8.456  71.054  22.337  1.00  0.00     0.168 HD
ENDBRANCH  19  21
ENDBRANCH   1  19
TORSDOF 10
ENDMDL
MODEL 2
REMARK VINA RESULT: -6.418242733      3.020      7.996
REMARK  10 active torsions:
REMARK  status: ('A' for Active; 'I' for Inactive)
REMARK    1  A    between atoms: C1_2  and  C2_4 
REMARK    2  A    between atoms: C2_4  and  N2_5 
REMARK    3  A    between atoms: C2_4  and  C3_9 
REMARK    4  A    between atoms: C3_9  and  C4_10 
REMARK    5  A    between atoms: C4_10  and  N3_11 
REMARK    6  A    between atoms: C4_10  and  C5_15 
REMARK    7  A    between atoms: C5_15  and  C6_16 
REMARK    8  A    between atoms: C5_15  and  N4_19 
REMARK    9  A    between atoms: C6_16  and  O2_17 
REMARK   10  A    between atoms: N4_19  and  C7_21 
ROOT
HETATM    1  C5  UNL     1      -7.130  72.782  24.264  1.00  0.00     0.137 C 
ENDROOT
BRANCH   1   2
HETATM    2  C4  UNL     1      -7.681  72.794  25.656  1.00  0.00     0.210 C 
BRANCH   2   3
HETATM    3  C3  UNL     1      -6.732  72.559  26.760  1.00  0.00     0.077 C 
BRANCH   3   4
HETATM    4  C2  UNL     1      -6.977  73.252  28.055  1.00  0.00     0.274 C 
BRANCH   4   5
HETATM    5  C1  UNL     1      -7.460  72.268  29.098  1.00  0.00     0.261 C 
HETATM    6  N1  UNL     1      -7.563  70.903  28.784  1.00  0.00    -0.060 NA
HETATM    7  O1  UNL     1      -7.756  72.712  30.220  1.00  0.00    -0.275 OA
ENDBRANCH   4   5
BRANCH   4   8
HETATM    8  N2  UNL     1      -5.898  73.990  28.604  1.00  0.00    -0.067 N 
ATOM      9  H23 UNL     1      -6.146  74.457  29.476  1.00  0.00     0.275 HD
ATOM     10  H22 UNL     1      -5.160  73.390  28.972  1.00  0.00     0.275 HD
ATOM     11  H21 UNL     1      -5.560  74.639  27.893  1.00  0.00     0.275 HD
ENDBRANCH   4   8
ENDBRANCH   3   4
ENDBRANCH   2   3
BRANCH   2  12
HETATM   12  N3  UNL     1      -8.487  73.962  25.959  1.00  0.00    -0.073 N 
ATOM     13  H33 UNL     1      -7.992  74.632  26.546  1.00  0.00     0.274 HD
ATOM     14  H32 UNL     1      -8.626  74.559  25.143  1.00  0.00     0.274 HD
ATOM     15  H31 UNL     1      -9.371  73.663  26.373  1.00  0.00     0.274 HD
ENDBRANCH   2  12
ENDBRANCH   1   2
BRANCH   1  16
HETATM   16  C6  UNL     1      -5.913  73.700  24.154  1.00  0.00     0.191 C 
BRANCH  16  17
HETATM   17  O2  UNL     1      -5.020  73.138  23.252  1.00  0.00    -0.399 OA
ATOM     18  H2  UNL     1      -5.477  72.985  22.433  1.00  0.00     0.209 HD
ENDBRANCH  16  17
ENDBRANCH   1  16
BRANCH   1  19
HETATM   19  N4  UNL     1      -8.054  73.201  23.273  1.00  0.00    -0.366 N 
ATOM     20  H4  UNL     1      -7.970  74.183  23.009  1.00  0.00     0.161 HD
BRANCH  19  21
HETATM   21  C7  UNL     1      -8.956  72.581  22.665  1.00  0.00     0.117 A 
HETATM   22  C8  UNL     1     -10.226  73.152  22.609  1.00  0.00     0.136 A 
HETATM   23  N5  UNL     1     -11.204  72.524  21.974  1.00  0.00    -0.360 N 
HETATM   24  C9  UNL     1     -10.999  71.341  21.379  1.00  0.00     0.066 A 
ATOM     25  H5  UNL     1     -12.131  72.948  21.938  1.00  0.00     0.165 HD
HETATM   26  C10 UNL     1     -12.056  70.741  20.737  1.00  0.00     0.049 A 
HETATM   27  C13 UNL     1      -9.750  70.764  21.427  1.00  0.00     0.129 A 
HETATM   28  C11 UNL     1     -11.861  69.527  20.123  1.00  0.00     0.093 A 
HETATM   29  N6  UNL     1     -10.637  68.953  20.164  1.00  0.00    -0.332 N 
HETATM   30  C12 UNL     1      -9.593  69.547  20.799  1.00  0.00     0.274 A 
ATOM     31  H6  UNL     1     -10.494  68.052  19.707  1.00  0.00     0.168 HD
HETATM   32  O3  UNL     1      -8.465  68.994  20.824  1.00  0.00    -0.266 OA
HETATM   33  N7  UNL     1      -8.751  71.400  22.072  1.00  0.00    -0.335 N 
ATOM     34  H7  UNL     1      -7.826  70.973  22.108  1.00  0.00     0.168 HD
ENDBRANCH  19  21
ENDBRANCH   1  19
TORSDOF 10
ENDMDL
MODEL 3
REMARK VINA RESULT: -6.395179670      2.267      2.946
REMARK  10 active torsions:
REMARK  status: ('A' for Active; 'I' for Inactive)
REMARK    1  A    between atoms: C1_2  and  C2_4 
REMARK    2  A    between atoms: C2_4  and  N2_5 
REMARK    3  A    between atoms: C2_4  and  C3_9 
REMARK    4  A    between atoms: C3_9  and  C4_10 
REMARK    5  A    between atoms: C4_10  and  N3_11 
REMARK    6  A    between atoms: C4_10  and  C5_15 
REMARK    7  A    between atoms: C5_15  and  C6_16 
REMARK    8  A    between atoms: C5_15  and  N4_19 
REMARK    9  A    between atoms: C6_16  and  O2_17 
REMARK   10  A    between atoms: N4_19  and  C7_21 
ROOT
HETATM    1  C5  UNL     1     -10.640  70.067  21.317  1.00  0.00     0.137 C 
ENDROOT
BRANCH   1   2
HETATM    2  C4  UNL     1     -11.902  69.296  21.081  1.00  0.00     0.210 C 
BRANCH   2   3
HETATM    3  C3  UNL     1     -11.770  67.947  20.501  1.00  0.00     0.077 C 
BRANCH   3   4
HETATM    4  C2  UNL     1     -12.717  67.552  19.421  1.00  0.00     0.274 C 
BRANCH   4   5
HETATM    5  C1  UNL     1     -12.173  67.954  18.069  1.00  0.00     0.261 C 
HETATM    6  N1  UNL     1     -12.059  69.314  17.731  1.00  0.00    -0.060 NA
HETATM    7  O1  UNL     1     -11.840  67.049  17.285  1.00  0.00    -0.275 OA
ENDBRANCH   4   5
BRANCH   4   8
HETATM    8  N2  UNL     1     -13.092  66.186  19.362  1.00  0.00    -0.067 N 
ATOM      9  H23 UNL     1     -12.333  65.584  19.041  1.00  0.00     0.275 HD
ATOM     10  H22 UNL     1     -13.214  65.773  20.287  1.00  0.00     0.275 HD
ATOM     11  H21 UNL     1     -13.928  66.107  18.783  1.00  0.00     0.275 HD
ENDBRANCH   4   8
ENDBRANCH   3   4
ENDBRANCH   2   3
BRANCH   2  12
HETATM   12  N3  UNL     1     -12.781  69.239  22.233  1.00  0.00    -0.073 N 
ATOM     13  H33 UNL     1     -13.383  68.416  22.220  1.00  0.00     0.274 HD
ATOM     14  H32 UNL     1     -12.276  69.034  23.095  1.00  0.00     0.274 HD
ATOM     15  H31 UNL     1     -13.313  70.107  22.295  1.00  0.00     0.274 HD
ENDBRANCH   2  12
ENDBRANCH   1   2
BRANCH   1  16
HETATM   16  C6  UNL     1      -9.500  69.130  21.716  1.00  0.00     0.191 C 
BRANCH  16  17
HETATM   17  O2  UNL     1      -8.519  69.192  20.737  1.00  0.00    -0.399 OA
ATOM     18  H2  UNL     1      -8.461  68.342  20.316  1.00  0.00     0.209 HD
ENDBRANCH  16  17
ENDBRANCH   1  16
BRANCH   1  19
HETATM   19  N4  UNL     1     -10.745  71.048  22.336  1.00  0.00    -0.366 N 
ATOM     20  H4  UNL     1     -11.230  70.731  23.176  1.00  0.00     0.161 HD
BRANCH  19  21
HETATM   21  C7  UNL     1     -10.348  72.234  22.388  1.00  0.00     0.117 A 
HETATM   22  C8  UNL     1      -9.207  72.514  23.140  1.00  0.00     0.136 A 
HETATM   23  N5  UNL     1      -8.759  73.758  23.218  1.00  0.00    -0.360 N 
HETATM   24  C9  UNL     1      -9.381  74.762  22.586  1.00  0.00     0.066 A 
ATOM     25  H5  UNL     1      -7.924  73.955  23.770  1.00  0.00     0.165 HD
HETATM   26  C10 UNL     1      -8.864  76.029  22.707  1.00  0.00     0.049 A 
HETATM   27  C13 UNL     1     -10.508  74.501  21.841  1.00  0.00     0.129 A 
HETATM   28  C11 UNL     1      -9.491  77.070  22.065  1.00  0.00     0.093 A 
HETATM   29  N6  UNL     1     -10.600  76.823  21.330  1.00  0.00    -0.332 N 
HETATM   30  C12 UNL     1     -11.109  75.569  21.211  1.00  0.00     0.274 A 
ATOM     31  H6  UNL     1     -11.064  77.597  20.854  1.00  0.00     0.168 HD
HETATM   32  O3  UNL     1     -12.141  75.364  20.522  1.00  0.00    -0.266 OA
HETATM   33  N7  UNL     1     -10.970  73.236  21.758  1.00  0.00    -0.335 N 
ATOM     34  H7  UNL     1     -11.805  73.042  21.207  1.00  0.00     0.168 HD
ENDBRANCH  19  21
ENDBRANCH   1  19
TORSDOF 10
ENDMDL
MODEL 4
REMARK VINA RESULT: -6.318180270      3.061      7.512
REMARK  10 active torsions:
REMARK  status: ('A' for Active; 'I' for Inactive)
REMARK    1  A    between atoms: C1_2  and  C2_4 
REMARK    2  A    between atoms: C2_4  and  N2_5 
REMARK    3  A    between atoms: C2_4  and  C3_9 
REMARK    4  A    between atoms: C3_9  and  C4_10 
REMARK    5  A    between atoms: C4_10  and  N3_11 
REMARK    6  A    between atoms: C4_10  and  C5_15 
REMARK    7  A    between atoms: C5_15  and  C6_16 
REMARK    8  A    between atoms: C5_15  and  N4_19 
REMARK    9  A    between atoms: C6_16  and  O2_17 
REMARK   10  A    between atoms: N4_19  and  C7_21 
ROOT
HETATM    1  C5  UNL     1      -6.912  72.899  24.275  1.00  0.00     0.137 C 
ENDROOT
BRANCH   1   2
HETATM    2  C4  UNL     1      -7.306  73.133  25.700  1.00  0.00     0.210 C 
BRANCH   2   3
HETATM    3  C3  UNL     1      -6.996  72.065  26.669  1.00  0.00     0.077 C 
BRANCH   3   4
HETATM    4  C2  UNL     1      -8.124  71.241  27.189  1.00  0.00     0.274 C 
BRANCH   4   5
HETATM    5  C1  UNL     1      -7.874  70.849  28.627  1.00  0.00     0.261 C 
HETATM    6  N1  UNL     1      -7.743  69.494  28.975  1.00  0.00    -0.060 NA
HETATM    7  O1  UNL     1      -7.791  71.758  29.469  1.00  0.00    -0.275 OA
ENDBRANCH   4   5
BRANCH   4   8
HETATM    8  N2  UNL     1      -9.423  71.800  27.098  1.00  0.00    -0.067 N 
ATOM      9  H23 UNL     1     -10.157  71.091  27.094  1.00  0.00     0.275 HD
ATOM     10  H22 UNL     1      -9.702  72.283  27.952  1.00  0.00     0.275 HD
ATOM     11  H21 UNL     1      -9.456  72.404  26.276  1.00  0.00     0.275 HD
ENDBRANCH   4   8
ENDBRANCH   3   4
ENDBRANCH   2   3
BRANCH   2  12
HETATM   12  N3  UNL     1      -6.860  74.406  26.233  1.00  0.00    -0.073 N 
ATOM     13  H33 UNL     1      -5.882  74.595  26.015  1.00  0.00     0.274 HD
ATOM     14  H32 UNL     1      -7.274  75.198  25.740  1.00  0.00     0.274 HD
ATOM     15  H31 UNL     1      -7.046  74.436  27.235  1.00  0.00     0.274 HD
ENDBRANCH   2  12
ENDBRANCH   1   2
BRANCH   1  16
HETATM   16  C6  UNL     1      -5.753  73.813  23.876  1.00  0.00     0.191 C 
BRANCH  16  17
HETATM   17  O2  UNL     1      -4.832  73.065  23.157  1.00  0.00    -0.399 OA
ATOM     18  H2  UNL     1      -4.026  73.019  23.659  1.00  0.00     0.209 HD
ENDBRANCH  16  17
ENDBRANCH   1  16
BRANCH   1  19
HETATM   19  N4  UNL     1      -7.957  73.125  23.342  1.00  0.00    -0.366 N 
ATOM     20  H4  UNL     1      -7.937  74.047  22.905  1.00  0.00     0.161 HD
BRANCH  19  21
HETATM   21  C7  UNL     1      -8.899  72.395  22.961  1.00  0.00     0.117 A 
HETATM   22  C8  UNL     1     -10.195  72.741  23.338  1.00  0.00     0.136 A 
HETATM   23  N5  UNL     1     -11.217  71.991  22.953  1.00  0.00    -0.360 N 
HETATM   24  C9  UNL     1     -11.031  70.897  22.201  1.00  0.00     0.066 A 
ATOM     25  H5  UNL     1     -12.163  72.250  23.233  1.00  0.00     0.165 HD
HETATM   26  C10 UNL     1     -12.133  70.162  21.835  1.00  0.00     0.049 A 
HETATM   27  C13 UNL     1      -9.757  70.542  21.822  1.00  0.00     0.129 A 
HETATM   28  C11 UNL     1     -11.959  69.037  21.065  1.00  0.00     0.093 A 
HETATM   29  N6  UNL     1     -10.709  68.681  20.686  1.00  0.00    -0.332 N 
HETATM   30  C12 UNL     1      -9.621  69.409  21.049  1.00  0.00     0.274 A 
ATOM     31  H6  UNL     1     -10.582  67.846  20.115  1.00  0.00     0.168 HD
HETATM   32  O3  UNL     1      -8.470  69.057  20.686  1.00  0.00    -0.266 OA
HETATM   33  N7  UNL     1      -8.713  71.302  22.212  1.00  0.00    -0.335 N 
ATOM     34  H7  UNL     1      -7.769  71.040  21.931  1.00  0.00     0.168 HD
ENDBRANCH  19  21
ENDBRANCH   1  19
TORSDOF 10
ENDMDL
MODEL 5
REMARK VINA RESULT: -6.309400682      2.404      3.158
REMARK  10 active torsions:
REMARK  status: ('A' for Active; 'I' for Inactive)
REMARK    1  A    between atoms: C1_2  and  C2_4 
REMARK    2  A    between atoms: C2_4  and  N2_5 
REMARK    3  A    between atoms: C2_4  and  C3_9 
REMARK    4  A    between atoms: C3_9  and  C4_10 
REMARK    5  A    between atoms: C4_10  and  N3_11 
REMARK    6  A    between atoms: C4_10  and  C5_15 
REMARK    7  A    between atoms: C5_15  and  C6_16 
REMARK    8  A    between atoms: C5_15  and  N4_19 
REMARK    9  A    between atoms: C6_16  and  O2_17 
REMARK   10  A    between atoms: N4_19  and  C7_21 
ROOT
HETATM    1  C5  UNL     1     -10.301  69.576  20.815  1.00  0.00     0.137 C 
ENDROOT
BRANCH   1   2
HETATM    2  C4  UNL     1     -11.665  69.977  20.344  1.00  0.00     0.210 C 
BRANCH   2   3
HETATM    3  C3  UNL     1     -11.997  69.709  18.932  1.00  0.00     0.077 C 
BRANCH   3   4
HETATM    4  C2  UNL     1     -11.750  68.339  18.401  1.00  0.00     0.274 C 
BRANCH   4   5
HETATM    5  C1  UNL     1     -12.975  67.473  18.583  1.00  0.00     0.261 C 
HETATM    6  N1  UNL     1     -12.975  66.444  19.540  1.00  0.00    -0.060 NA
HETATM    7  O1  UNL     1     -13.961  67.705  17.864  1.00  0.00    -0.275 OA
ENDBRANCH   4   5
BRANCH   4   8
HETATM    8  N2  UNL     1     -11.329  68.239  17.052  1.00  0.00    -0.067 N 
ATOM      9  H23 UNL     1     -10.315  68.172  16.961  1.00  0.00     0.275 HD
ATOM     10  H22 UNL     1     -11.566  67.339  16.633  1.00  0.00     0.275 HD
ATOM     11  H21 UNL     1     -11.718  69.028  16.535  1.00  0.00     0.275 HD
ENDBRANCH   4   8
ENDBRANCH   3   4
ENDBRANCH   2   3
BRANCH   2  12
HETATM   12  N3  UNL     1     -12.743  69.498  21.189  1.00  0.00    -0.073 N 
ATOM     13  H33 UNL     1     -13.379  70.245  21.464  1.00  0.00     0.274 HD
ATOM     14  H32 UNL     1     -13.410  68.922  20.675  1.00  0.00     0.274 HD
ATOM     15  H31 UNL     1     -12.349  69.009  21.992  1.00  0.00     0.274 HD
ENDBRANCH   2  12
ENDBRANCH   1   2
BRANCH   1  16
HETATM   16  C6  UNL     1     -10.397  68.596  21.984  1.00  0.00     0.191 C 
BRANCH  16  17
HETATM   17  O2  UNL     1     -10.630  67.327  21.475  1.00  0.00    -0.399 OA
ATOM     18  H2  UNL     1     -11.568  67.185  21.438  1.00  0.00     0.209 HD
ENDBRANCH  16  17
ENDBRANCH   1  16
BRANCH   1  19
HETATM   19  N4  UNL     1      -9.499  70.662  21.250  1.00  0.00    -0.366 N 
ATOM     20  H4  UNL     1      -8.495  70.483  21.214  1.00  0.00     0.161 HD
BRANCH  19  21
HETATM   21  C7  UNL     1      -9.804  71.801  21.671  1.00  0.00     0.117 A 
HETATM   22  C8  UNL     1      -9.582  72.087  23.017  1.00  0.00     0.136 A 
HETATM   23  N5  UNL     1      -9.893  73.281  23.498  1.00  0.00    -0.360 N 
HETATM   24  C9  UNL     1     -10.420  74.230  22.712  1.00  0.00     0.066 A 
ATOM     25  H5  UNL     1      -9.728  73.482  24.484  1.00  0.00     0.165 HD
HETATM   26  C10 UNL     1     -10.720  75.448  23.273  1.00  0.00     0.049 A 
HETATM   27  C13 UNL     1     -10.646  73.962  21.381  1.00  0.00     0.129 A 
HETATM   28  C11 UNL     1     -11.262  76.432  22.480  1.00  0.00     0.093 A 
HETATM   29  N6  UNL     1     -11.486  76.178  21.170  1.00  0.00    -0.332 N 
HETATM   30  C12 UNL     1     -11.189  74.972  20.618  1.00  0.00     0.274 A 
ATOM     31  H6  UNL     1     -11.889  76.909  20.584  1.00  0.00     0.168 HD
HETATM   32  O3  UNL     1     -11.407  74.760  19.398  1.00  0.00    -0.266 OA
HETATM   33  N7  UNL     1     -10.331  72.747  20.887  1.00  0.00    -0.335 N 
ATOM     34  H7  UNL     1     -10.498  72.548  19.902  1.00  0.00     0.168 HD
ENDBRANCH  19  21
ENDBRANCH   1  19
TORSDOF 10
ENDMDL
