MODEL 1
REMARK VINA RESULT: -5.836400279      0.000      0.000
REMARK  7 active torsions:
REMARK  status: ('A' for Active; 'I' for Inactive)
REMARK       I    between atoms: C1_4  and  N3_6 
REMARK    1  A    between atoms: N3_6  and  C2_8 
REMARK    2  A    between atoms: C2_8  and  C3_9 
REMARK    3  A    between atoms: C3_9  and  C4_10 
REMARK    4  A    between atoms: C4_10  and  C5_11 
REMARK    5  A    between atoms: C5_11  and  N4_12 
REMARK    6  A    between atoms: C5_11  and  C7_21 
REMARK    7  A    between atoms: N4_12  and  C6_14 
REMARK       I    between atoms: C7_21  and  N9_23 
ROOT
HETATM    1  C5  UNL     1     -13.355  69.138  21.102  1.00  0.00     0.192 C 
ENDROOT
BRANCH   1   2
HETATM    2  C4  UNL     1     -13.126  69.575  22.528  1.00  0.00     0.037 C 
BRANCH   2   3
HETATM    3  C3  UNL     1     -11.847  69.101  23.116  1.00  0.00     0.022 C 
BRANCH   3   4
HETATM    4  C2  UNL     1     -10.913  70.244  23.456  1.00  0.00     0.122 C 
BRANCH   4   5
HETATM    5  N3  UNL     1      -9.594  70.038  22.892  1.00  0.00    -0.365 N 
HETATM    6  C1  UNL     1      -9.463  70.163  21.485  1.00  0.00     0.181 C 
HETATM    7  N1  UNL     1      -9.850  71.241  20.860  1.00  0.00    -0.374 N 
HETATM    8  N2  UNL     1      -8.906  69.130  20.683  1.00  0.00    -0.064 NA
ATOM      9  H12 UNL     1      -9.756  71.330  19.849  1.00  0.00     0.158 HD
ATOM     10  H11 UNL     1     -10.250  71.982  21.436  1.00  0.00     0.158 HD
ATOM     11  H3  UNL     1      -8.793  69.813  23.481  1.00  0.00     0.162 HD
ENDBRANCH   4   5
ENDBRANCH   3   4
ENDBRANCH   2   3
ENDBRANCH   1   2
BRANCH   1  12
HETATM   12  N4  UNL     1     -12.270  68.293  20.638  1.00  0.00    -0.211 N 
ATOM     13  H4  UNL     1     -11.614  67.951  21.341  1.00  0.00     0.178 HD
BRANCH  12  14
HETATM   14  C6  UNL     1     -12.065  67.943  19.447  1.00  0.00     0.704 A 
HETATM   15  N5  UNL     1     -11.328  68.597  18.546  1.00  0.00    -0.117 N 
HETATM   16  N6  UNL     1     -11.335  67.935  17.391  1.00  0.00     0.006 NA
ATOM     17  H5  UNL     1     -10.834  69.473  18.717  1.00  0.00     0.202 HD
HETATM   18  N7  UNL     1     -12.091  66.841  17.560  1.00  0.00     0.006 NA
HETATM   19  N8  UNL     1     -12.528  66.860  18.819  1.00  0.00    -0.117 N 
ATOM     20  H8  UNL     1     -13.128  66.152  19.241  1.00  0.00     0.202 HD
ENDBRANCH  12  14
ENDBRANCH   1  12
BRANCH   1  21
HETATM   21  C7  UNL     1     -13.464  70.264  20.159  1.00  0.00     0.243 C 
HETATM   22  O1  UNL     1     -12.646  71.209  20.204  1.00  0.00    -0.271 OA
HETATM   23  N9  UNL     1     -14.470  70.342  19.174  1.00  0.00    -0.347 N 
HETATM   24  C8  UNL     1     -15.489  69.343  18.961  1.00  0.00     0.153 C 
HETATM   25  C11 UNL     1     -14.541  71.497  18.267  1.00  0.00     0.153 C 
HETATM   26  C9  UNL     1     -15.804  69.154  17.497  1.00  0.00     0.252 C 
HETATM   27  N10 UNL     1     -16.172  70.372  16.833  1.00  0.00    -0.072 N 
HETATM   28  C10 UNL     1     -15.867  71.557  17.591  1.00  0.00     0.252 C 
ATOM     29 2H10 UNL     1     -15.749  70.417  15.905  1.00  0.00     0.277 HD
ATOM     30 1H10 UNL     1     -17.157  70.355  16.571  1.00  0.00     0.277 HD
ENDBRANCH   1  21
TORSDOF 7
ENDMDL
MODEL 2
REMARK VINA RESULT: -5.758517174      3.576      5.823
REMARK  7 active torsions:
REMARK  status: ('A' for Active; 'I' for Inactive)
REMARK       I    between atoms: C1_4  and  N3_6 
REMARK    1  A    between atoms: N3_6  and  C2_8 
REMARK    2  A    between atoms: C2_8  and  C3_9 
REMARK    3  A    between atoms: C3_9  and  C4_10 
REMARK    4  A    between atoms: C4_10  and  C5_11 
REMARK    5  A    between atoms: C5_11  and  N4_12 
REMARK    6  A    between atoms: C5_11  and  C7_21 
REMARK    7  A    between atoms: N4_12  and  C6_14 
REMARK       I    between atoms: C7_21  and  N9_23 
ROOT
HETATM    1  C5  UNL     1     -11.434  72.543  21.368  1.00  0.00     0.192 C 
ENDROOT
BRANCH   1   2
HETATM    2  C4  UNL     1     -12.476  71.518  20.997  1.00  0.00     0.037 C 
BRANCH   2   3
HETATM    3  C3  UNL     1     -12.870  71.536  19.566  1.00  0.00     0.022 C 
BRANCH   3   4
HETATM    4  C2  UNL     1     -12.069  70.552  18.738  1.00  0.00     0.122 C 
BRANCH   4   5
HETATM    5  N3  UNL     1     -12.834  69.354  18.452  1.00  0.00    -0.365 N 
HETATM    6  C1  UNL     1     -12.205  68.107  18.698  1.00  0.00     0.181 C 
HETATM    7  N1  UNL     1     -11.698  67.822  19.865  1.00  0.00    -0.374 N 
HETATM    8  N2  UNL     1     -12.093  67.106  17.695  1.00  0.00    -0.064 NA
ATOM      9  H12 UNL     1     -11.245  66.925  20.042  1.00  0.00     0.158 HD
ATOM     10  H11 UNL     1     -11.779  68.540  20.585  1.00  0.00     0.158 HD
ATOM     11  H3  UNL     1     -13.786  69.406  18.089  1.00  0.00     0.162 HD
ENDBRANCH   4   5
ENDBRANCH   3   4
ENDBRANCH   2   3
ENDBRANCH   1   2
BRANCH   1  12
HETATM   12  N4  UNL     1     -10.286  71.915  21.996  1.00  0.00    -0.211 N 
ATOM     13  H4  UNL     1      -9.792  72.456  22.706  1.00  0.00     0.178 HD
BRANCH  12  14
HETATM   14  C6  UNL     1      -9.846  70.763  21.745  1.00  0.00     0.704 A 
HETATM   15  N5  UNL     1      -9.047  70.425  20.732  1.00  0.00    -0.117 N 
HETATM   16  N6  UNL     1      -8.786  69.121  20.778  1.00  0.00     0.006 NA
ATOM     17  H5  UNL     1      -8.689  71.070  20.027  1.00  0.00     0.202 HD
HETATM   18  N7  UNL     1      -9.431  68.620  21.840  1.00  0.00     0.006 NA
HETATM   19  N8  UNL     1     -10.073  69.634  22.420  1.00  0.00    -0.117 N 
ATOM     20  H8  UNL     1     -10.653  69.558  23.256  1.00  0.00     0.202 HD
ENDBRANCH  12  14
ENDBRANCH   1  12
BRANCH   1  21
HETATM   21  C7  UNL     1     -11.934  73.569  22.301  1.00  0.00     0.243 C 
HETATM   22  O1  UNL     1     -12.600  73.238  23.307  1.00  0.00    -0.271 OA
HETATM   23  N9  UNL     1     -11.695  74.947  22.123  1.00  0.00    -0.347 N 
HETATM   24  C8  UNL     1     -10.937  75.514  21.034  1.00  0.00     0.153 C 
HETATM   25  C11 UNL     1     -12.230  75.928  23.078  1.00  0.00     0.153 C 
HETATM   26  C9  UNL     1     -10.103  76.693  21.475  1.00  0.00     0.252 C 
HETATM   27  N10 UNL     1     -10.868  77.721  22.120  1.00  0.00    -0.072 N 
HETATM   28  C10 UNL     1     -12.191  77.301  22.502  1.00  0.00     0.252 C 
ATOM     29 2H10 UNL     1     -10.362  78.095  22.924  1.00  0.00     0.277 HD
ATOM     30 1H10 UNL     1     -10.908  78.558  21.539  1.00  0.00     0.277 HD
ENDBRANCH   1  21
TORSDOF 7
ENDMDL
MODEL 3
REMARK VINA RESULT: -5.737938492      2.423      4.642
REMARK  7 active torsions:
REMARK  status: ('A' for Active; 'I' for Inactive)
REMARK       I    between atoms: C1_4  and  N3_6 
REMARK    1  A    between atoms: N3_6  and  C2_8 
REMARK    2  A    between atoms: C2_8  and  C3_9 
REMARK    3  A    between atoms: C3_9  and  C4_10 
REMARK    4  A    between atoms: C4_10  and  C5_11 
REMARK    5  A    between atoms: C5_11  and  N4_12 
REMARK    6  A    between atoms: C5_11  and  C7_21 
REMARK    7  A    between atoms: N4_12  and  C6_14 
REMARK       I    between atoms: C7_21  and  N9_23 
ROOT
HETATM    1  C5  UNL     1     -11.835  70.209  20.991  1.00  0.00     0.192 C 
ENDROOT
BRANCH   1   2
HETATM    2  C4  UNL     1     -12.487  69.469  22.133  1.00  0.00     0.037 C 
BRANCH   2   3
HETATM    3  C3  UNL     1     -13.941  69.733  22.282  1.00  0.00     0.022 C 
BRANCH   3   4
HETATM    4  C2  UNL     1     -14.786  68.722  21.534  1.00  0.00     0.122 C 
BRANCH   4   5
HETATM    5  N3  UNL     1     -15.469  69.331  20.409  1.00  0.00    -0.365 N 
HETATM    6  C1  UNL     1     -15.191  68.808  19.121  1.00  0.00     0.181 C 
HETATM    7  N1  UNL     1     -15.334  67.539  18.858  1.00  0.00    -0.374 N 
HETATM    8  N2  UNL     1     -14.747  69.631  18.050  1.00  0.00    -0.064 NA
ATOM      9  H12 UNL     1     -15.134  67.163  17.931  1.00  0.00     0.158 HD
ATOM     10  H11 UNL     1     -15.654  66.948  19.626  1.00  0.00     0.158 HD
ATOM     11  H3  UNL     1     -16.122  70.103  20.539  1.00  0.00     0.162 HD
ENDBRANCH   4   5
ENDBRANCH   3   4
ENDBRANCH   2   3
ENDBRANCH   1   2
BRANCH   1  12
HETATM   12  N4  UNL     1     -11.075  69.302  20.151  1.00  0.00    -0.211 N 
ATOM     13  H4  UNL     1     -10.062  69.417  20.143  1.00  0.00     0.178 HD
BRANCH  12  14
HETATM   14  C6  UNL     1     -11.553  68.386  19.433  1.00  0.00     0.704 A 
HETATM   15  N5  UNL     1     -11.648  68.394  18.102  1.00  0.00    -0.117 N 
HETATM   16  N6  UNL     1     -12.206  67.260  17.683  1.00  0.00     0.006 NA
ATOM     17  H5  UNL     1     -11.340  69.155  17.496  1.00  0.00     0.202 HD
HETATM   18  N7  UNL     1     -12.470  66.518  18.767  1.00  0.00     0.006 NA
HETATM   19  N8  UNL     1     -12.065  67.219  19.827  1.00  0.00    -0.117 N 
ATOM     20  H8  UNL     1     -12.137  66.908  20.795  1.00  0.00     0.202 HD
ENDBRANCH  12  14
ENDBRANCH   1  12
BRANCH   1  21
HETATM   21  C7  UNL     1     -10.912  71.268  21.436  1.00  0.00     0.243 C 
HETATM   22  O1  UNL     1      -9.861  70.975  22.047  1.00  0.00    -0.271 OA
HETATM   23  N9  UNL     1     -11.151  72.638  21.204  1.00  0.00    -0.347 N 
HETATM   24  C8  UNL     1     -12.298  73.163  20.505  1.00  0.00     0.153 C 
HETATM   25  C11 UNL     1     -10.202  73.654  21.683  1.00  0.00     0.153 C 
HETATM   26  C9  UNL     1     -11.945  74.353  19.644  1.00  0.00     0.252 C 
HETATM   27  N10 UNL     1     -11.294  75.406  20.370  1.00  0.00    -0.072 N 
HETATM   28  C10 UNL     1     -10.826  75.006  21.672  1.00  0.00     0.252 C 
ATOM     29 2H10 UNL     1     -10.533  75.805  19.820  1.00  0.00     0.277 HD
ATOM     30 1H10 UNL     1     -11.901  76.223  20.439  1.00  0.00     0.277 HD
ENDBRANCH   1  21
TORSDOF 7
ENDMDL
MODEL 4
REMARK VINA RESULT: -5.724678996      3.796      8.182
REMARK  7 active torsions:
REMARK  status: ('A' for Active; 'I' for Inactive)
REMARK       I    between atoms: C1_4  and  N3_6 
REMARK    1  A    between atoms: N3_6  and  C2_8 
REMARK    2  A    between atoms: C2_8  and  C3_9 
REMARK    3  A    between atoms: C3_9  and  C4_10 
REMARK    4  A    between atoms: C4_10  and  C5_11 
REMARK    5  A    between atoms: C5_11  and  N4_12 
REMARK    6  A    between atoms: C5_11  and  C7_21 
REMARK    7  A    between atoms: N4_12  and  C6_14 
REMARK       I    between atoms: C7_21  and  N9_23 
ROOT
HETATM    1  C5  UNL     1      -9.846  72.336  24.034  1.00  0.00     0.192 C 
ENDROOT
BRANCH   1   2
HETATM    2  C4  UNL     1     -11.063  72.527  23.163  1.00  0.00     0.037 C 
BRANCH   2   3
HETATM    3  C3  UNL     1     -10.871  72.119  21.748  1.00  0.00     0.022 C 
BRANCH   3   4
HETATM    4  C2  UNL     1     -11.691  70.896  21.388  1.00  0.00     0.122 C 
BRANCH   4   5
HETATM    5  N3  UNL     1     -10.902  69.926  20.655  1.00  0.00    -0.365 N 
HETATM    6  C1  UNL     1      -9.964  69.161  21.394  1.00  0.00     0.181 C 
HETATM    7  N1  UNL     1     -10.324  68.470  22.439  1.00  0.00    -0.374 N 
HETATM    8  N2  UNL     1      -8.589  69.103  21.039  1.00  0.00    -0.064 NA
ATOM      9  H12 UNL     1      -9.650  67.920  22.971  1.00  0.00     0.158 HD
ATOM     10  H11 UNL     1     -11.312  68.511  22.694  1.00  0.00     0.158 HD
ATOM     11  H3  UNL     1     -11.017  69.798  19.650  1.00  0.00     0.162 HD
ENDBRANCH   4   5
ENDBRANCH   3   4
ENDBRANCH   2   3
ENDBRANCH   1   2
BRANCH   1  12
HETATM   12  N4  UNL     1      -8.673  72.042  23.232  1.00  0.00    -0.211 N 
ATOM     13  H4  UNL     1      -8.768  71.319  22.519  1.00  0.00     0.178 HD
BRANCH  12  14
HETATM   14  C6  UNL     1      -7.550  72.599  23.335  1.00  0.00     0.704 A 
HETATM   15  N5  UNL     1      -6.361  72.024  23.140  1.00  0.00    -0.117 N 
HETATM   16  N6  UNL     1      -5.392  72.915  23.338  1.00  0.00     0.006 NA
ATOM     17  H5  UNL     1      -6.217  71.049  22.879  1.00  0.00     0.202 HD
HETATM   18  N7  UNL     1      -5.974  74.077  23.665  1.00  0.00     0.006 NA
HETATM   19  N8  UNL     1      -7.291  73.868  23.658  1.00  0.00    -0.117 N 
ATOM     20  H8  UNL     1      -7.996  74.573  23.870  1.00  0.00     0.202 HD
ENDBRANCH  12  14
ENDBRANCH   1  12
BRANCH   1  21
HETATM   21  C7  UNL     1      -9.994  71.240  25.008  1.00  0.00     0.243 C 
HETATM   22  O1  UNL     1     -10.696  70.242  24.734  1.00  0.00    -0.271 OA
HETATM   23  N9  UNL     1      -9.369  71.249  26.271  1.00  0.00    -0.347 N 
HETATM   24  C8  UNL     1      -8.512  72.305  26.754  1.00  0.00     0.153 C 
HETATM   25  C11 UNL     1      -9.562  70.135  27.210  1.00  0.00     0.153 C 
HETATM   26  C9  UNL     1      -7.356  71.773  27.567  1.00  0.00     0.252 C 
HETATM   27  N10 UNL     1      -7.765  70.941  28.661  1.00  0.00    -0.072 N 
HETATM   28  C10 UNL     1      -9.141  70.523  28.585  1.00  0.00     0.252 C 
ATOM     29 2H10 UNL     1      -7.147  70.134  28.751  1.00  0.00     0.277 HD
ATOM     30 1H10 UNL     1      -7.577  71.400  29.553  1.00  0.00     0.277 HD
ENDBRANCH   1  21
TORSDOF 7
ENDMDL
MODEL 5
REMARK VINA RESULT: -5.687730721      3.348      6.656
REMARK  7 active torsions:
REMARK  status: ('A' for Active; 'I' for Inactive)
REMARK       I    between atoms: C1_4  and  N3_6 
REMARK    1  A    between atoms: N3_6  and  C2_8 
REMARK    2  A    between atoms: C2_8  and  C3_9 
REMARK    3  A    between atoms: C3_9  and  C4_10 
REMARK    4  A    between atoms: C4_10  and  C5_11 
REMARK    5  A    between atoms: C5_11  and  N4_12 
REMARK    6  A    between atoms: C5_11  and  C7_21 
REMARK    7  A    between atoms: N4_12  and  C6_14 
REMARK       I    between atoms: C7_21  and  N9_23 
ROOT
HETATM    1  C5  UNL     1     -10.085  71.395  22.064  1.00  0.00     0.192 C 
ENDROOT
BRANCH   1   2
HETATM    2  C4  UNL     1     -10.162  69.913  22.331  1.00  0.00     0.037 C 
BRANCH   2   3
HETATM    3  C3  UNL     1     -10.019  69.065  21.120  1.00  0.00     0.022 C 
BRANCH   3   4
HETATM    4  C2  UNL     1     -11.282  68.286  20.813  1.00  0.00     0.122 C 
BRANCH   4   5
HETATM    5  N3  UNL     1     -11.784  68.591  19.488  1.00  0.00    -0.365 N 
HETATM    6  C1  UNL     1     -12.412  67.539  18.773  1.00  0.00     0.181 C 
HETATM    7  N1  UNL     1     -13.409  66.872  19.284  1.00  0.00    -0.374 N 
HETATM    8  N2  UNL     1     -11.994  67.156  17.470  1.00  0.00    -0.064 NA
ATOM      9  H12 UNL     1     -13.860  66.115  18.770  1.00  0.00     0.158 HD
ATOM     10  H11 UNL     1     -13.709  67.147  20.220  1.00  0.00     0.158 HD
ATOM     11  H3  UNL     1     -11.691  69.524  19.086  1.00  0.00     0.162 HD
ENDBRANCH   4   5
ENDBRANCH   3   4
ENDBRANCH   2   3
ENDBRANCH   1   2
BRANCH   1  12
HETATM   12  N4  UNL     1     -10.192  71.674  20.644  1.00  0.00    -0.211 N 
ATOM     13  H4  UNL     1      -9.496  71.246  20.034  1.00  0.00     0.178 HD
BRANCH  12  14
HETATM   14  C6  UNL     1     -11.065  72.396  20.098  1.00  0.00     0.704 A 
HETATM   15  N5  UNL     1     -12.388  72.271  20.224  1.00  0.00    -0.117 N 
HETATM   16  N6  UNL     1     -13.001  73.207  19.504  1.00  0.00     0.006 NA
ATOM     17  H5  UNL     1     -12.858  71.563  20.788  1.00  0.00     0.202 HD
HETATM   18  N7  UNL     1     -12.052  73.942  18.909  1.00  0.00     0.006 NA
HETATM   19  N8  UNL     1     -10.876  73.435  19.281  1.00  0.00    -0.117 N 
ATOM     20  H8  UNL     1      -9.966  73.789  18.985  1.00  0.00     0.202 HD
ENDBRANCH  12  14
ENDBRANCH   1  12
BRANCH   1  21
HETATM   21  C7  UNL     1      -8.829  72.006  22.535  1.00  0.00     0.243 C 
HETATM   22  O1  UNL     1      -7.766  71.347  22.533  1.00  0.00    -0.271 OA
HETATM   23  N9  UNL     1      -8.751  73.334  23.000  1.00  0.00    -0.347 N 
HETATM   24  C8  UNL     1      -9.866  74.248  23.060  1.00  0.00     0.153 C 
HETATM   25  C11 UNL     1      -7.474  73.888  23.471  1.00  0.00     0.153 C 
HETATM   26  C9  UNL     1      -9.464  75.661  22.710  1.00  0.00     0.252 C 
HETATM   27  N10 UNL     1      -8.383  76.159  23.512  1.00  0.00    -0.072 N 
HETATM   28  C10 UNL     1      -7.696  75.136  24.255  1.00  0.00     0.252 C 
ATOM     29 2H10 UNL     1      -7.727  76.692  22.940  1.00  0.00     0.277 HD
ATOM     30 1H10 UNL     1      -8.708  76.900  24.133  1.00  0.00     0.277 HD
ENDBRANCH   1  21
TORSDOF 7
ENDMDL
