MODEL 1
REMARK VINA RESULT: -5.973198584      0.000      0.000
REMARK  12 active torsions:
REMARK  status: ('A' for Active; 'I' for Inactive)
REMARK    1  A    between atoms: N1_2  and  C2_4 
REMARK    2  A    between atoms: C3_7  and  N3_8 
REMARK    3  A    between atoms: C4_13  and  N5_14 
REMARK    4  A    between atoms: N5_14  and  C5_16 
REMARK    5  A    between atoms: C5_16  and  C6_17 
REMARK    6  A    between atoms: C5_16  and  C7_24 
REMARK    7  A    between atoms: C6_17  and  N6_18 
REMARK    8  A    between atoms: N6_18  and  N7_20 
REMARK    9  A    between atoms: N7_20  and  N8_21 
REMARK   10  A    between atoms: C7_24  and  O1_25 
REMARK   11  A    between atoms: O1_25  and  S1_26 
REMARK   12  A    between atoms: S1_26  and  N9_27 
ROOT
HETATM    1  N5  UNL     1      -9.606  70.775  21.135  1.00  0.00    -0.217 N 
ATOM      2  H5  UNL     1      -8.951  70.607  20.372  1.00  0.00     0.178 HD
ENDROOT
BRANCH   1   3
HETATM    3  C4  UNL     1      -9.123  71.318  22.170  1.00  0.00     0.707 A 
HETATM    4  N4  UNL     1      -9.930  71.575  23.214  1.00  0.00    -0.022 N 
HETATM    5  C3  UNL     1      -9.488  72.152  24.350  1.00  0.00     0.705 A 
ATOM      6  H4  UNL     1     -10.916  71.322  23.143  1.00  0.00     0.203 HD
HETATM    7  N2  UNL     1      -8.185  72.477  24.423  1.00  0.00    -0.022 N 
HETATM    8  C2  UNL     1      -7.341  72.240  23.404  1.00  0.00     0.706 A 
ATOM      9  H2  UNL     1      -7.828  72.915  25.272  1.00  0.00     0.203 HD
HETATM   10  N10 UNL     1      -7.828  71.660  22.286  1.00  0.00    -0.022 N 
ATOM     11  H10 UNL     1      -7.196  71.476  21.508  1.00  0.00     0.203 HD
BRANCH   5  12
HETATM   12  N3  UNL     1     -10.270  72.392  25.344  1.00  0.00    -0.234 N 
ATOM     13  H32 UNL     1     -11.219  72.744  25.215  1.00  0.00     0.174 HD
ATOM     14  H31 UNL     1      -9.949  72.232  26.299  1.00  0.00     0.174 HD
ENDBRANCH   5  12
BRANCH   8  15
HETATM   15  N1  UNL     1      -6.105  72.572  23.529  1.00  0.00    -0.229 N 
HETATM   16  C1  UNL     1      -5.742  73.930  23.831  1.00  0.00     0.165 C 
ATOM     17  H1  UNL     1      -5.377  71.867  23.412  1.00  0.00     0.177 HD
ENDBRANCH   8  15
ENDBRANCH   1   3
BRANCH   1  18
HETATM   18  C5  UNL     1     -10.948  70.370  20.905  1.00  0.00     0.144 C 
BRANCH  18  19
HETATM   19  C6  UNL     1     -11.684  71.210  19.891  1.00  0.00     0.183 C 
BRANCH  19  20
HETATM   20  N6  UNL     1     -10.799  72.142  19.221  1.00  0.00    -0.251 N 
ATOM     21  H6  UNL     1      -9.988  71.809  18.702  1.00  0.00     0.197 HD
BRANCH  20  22
HETATM   22  N7  UNL     1     -11.048  73.337  19.294  1.00  0.00    -0.248 NA
BRANCH  22  23
HETATM   23  N8  UNL     1     -11.572  74.450  19.272  1.00  0.00    -0.261 N 
ATOM     24  H82 UNL     1     -11.532  74.539  20.287  1.00  0.00     0.193 HD
ATOM     25  H81 UNL     1     -12.007  75.333  19.005  1.00  0.00     0.193 HD
ENDBRANCH  22  23
ENDBRANCH  20  22
ENDBRANCH  19  20
ENDBRANCH  18  19
BRANCH  18  26
HETATM   26  C7  UNL     1     -10.895  68.942  20.338  1.00  0.00     0.219 C 
BRANCH  26  27
HETATM   27  O1  UNL     1     -11.272  69.051  19.004  1.00  0.00    -0.258 OA
BRANCH  27  28
HETATM   28  S1  UNL     1     -12.296  67.836  18.511  1.00  0.00     0.355 S 
HETATM   29  O2  UNL     1     -11.739  67.253  17.243  1.00  0.00    -0.176 OA
HETATM   30  O3  UNL     1     -12.412  66.789  19.596  1.00  0.00    -0.176 OA
BRANCH  28  31
HETATM   31  N9  UNL     1     -13.862  68.536  18.177  1.00  0.00    -0.306 N 
ATOM     32  H92 UNL     1     -14.018  69.481  17.827  1.00  0.00     0.171 HD
ATOM     33  H91 UNL     1     -14.577  67.841  18.392  1.00  0.00     0.171 HD
ENDBRANCH  28  31
ENDBRANCH  27  28
ENDBRANCH  26  27
ENDBRANCH  18  26
ENDBRANCH   1  18
TORSDOF 12
ENDMDL
MODEL 2
REMARK VINA RESULT: -5.891212651      1.569      2.686
REMARK  12 active torsions:
REMARK  status: ('A' for Active; 'I' for Inactive)
REMARK    1  A    between atoms: N1_2  and  C2_4 
REMARK    2  A    between atoms: C3_7  and  N3_8 
REMARK    3  A    between atoms: C4_13  and  N5_14 
REMARK    4  A    between atoms: N5_14  and  C5_16 
REMARK    5  A    between atoms: C5_16  and  C6_17 
REMARK    6  A    between atoms: C5_16  and  C7_24 
REMARK    7  A    between atoms: C6_17  and  N6_18 
REMARK    8  A    between atoms: N6_18  and  N7_20 
REMARK    9  A    between atoms: N7_20  and  N8_21 
REMARK   10  A    between atoms: C7_24  and  O1_25 
REMARK   11  A    between atoms: O1_25  and  S1_26 
REMARK   12  A    between atoms: S1_26  and  N9_27 
ROOT
HETATM    1  N5  UNL     1      -9.949  71.051  21.381  1.00  0.00    -0.217 N 
ATOM      2  H5  UNL     1     -10.549  71.701  20.873  1.00  0.00     0.178 HD
ENDROOT
BRANCH   1   3
HETATM    3  C4  UNL     1      -9.316  71.533  22.363  1.00  0.00     0.707 A 
HETATM    4  N4  UNL     1      -9.983  71.829  23.492  1.00  0.00    -0.022 N 
HETATM    5  C3  UNL     1      -9.377  72.347  24.581  1.00  0.00     0.705 A 
ATOM      6  H4  UNL     1     -10.987  71.655  23.527  1.00  0.00     0.203 HD
HETATM    7  N2  UNL     1      -8.051  72.569  24.514  1.00  0.00    -0.022 N 
HETATM    8  C2  UNL     1      -7.344  72.289  23.407  1.00  0.00     0.706 A 
ATOM      9  H2  UNL     1      -7.571  72.961  25.325  1.00  0.00     0.203 HD
HETATM   10  N10 UNL     1      -7.993  71.772  22.341  1.00  0.00    -0.022 N 
ATOM     11  H10 UNL     1      -7.465  71.556  21.496  1.00  0.00     0.203 HD
BRANCH   5  12
HETATM   12  N3  UNL     1     -10.025  72.626  25.657  1.00  0.00    -0.234 N 
ATOM     13  H32 UNL     1      -9.678  72.369  26.581  1.00  0.00     0.174 HD
ATOM     14  H31 UNL     1     -10.916  73.119  25.604  1.00  0.00     0.174 HD
ENDBRANCH   5  12
BRANCH   8  15
HETATM   15  N1  UNL     1      -6.079  72.522  23.400  1.00  0.00    -0.229 N 
HETATM   16  C1  UNL     1      -5.576  73.821  23.755  1.00  0.00     0.165 C 
ATOM     17  H1  UNL     1      -5.429  71.780  23.140  1.00  0.00     0.177 HD
ENDBRANCH   8  15
ENDBRANCH   1   3
BRANCH   1  18
HETATM   18  C5  UNL     1      -9.928  69.715  20.898  1.00  0.00     0.144 C 
BRANCH  18  19
HETATM   19  C6  UNL     1     -10.156  68.668  21.960  1.00  0.00     0.183 C 
BRANCH  19  20
HETATM   20  N6  UNL     1     -11.514  68.699  22.464  1.00  0.00    -0.251 N 
ATOM     21  H6  UNL     1     -12.293  68.391  21.883  1.00  0.00     0.197 HD
BRANCH  20  22
HETATM   22  N7  UNL     1     -11.705  69.105  23.602  1.00  0.00    -0.248 NA
BRANCH  22  23
HETATM   23  N8  UNL     1     -11.859  69.220  24.817  1.00  0.00    -0.261 N 
ATOM     24  H82 UNL     1     -12.309  68.308  24.893  1.00  0.00     0.193 HD
ATOM     25  H81 UNL     1     -11.873  69.537  25.786  1.00  0.00     0.193 HD
ENDBRANCH  22  23
ENDBRANCH  20  22
ENDBRANCH  19  20
ENDBRANCH  18  19
BRANCH  18  26
HETATM   26  C7  UNL     1     -11.086  69.582  19.896  1.00  0.00     0.219 C 
BRANCH  26  27
HETATM   27  O1  UNL     1     -11.049  68.267  19.447  1.00  0.00    -0.258 OA
BRANCH  27  28
HETATM   28  S1  UNL     1     -12.356  67.858  18.503  1.00  0.00     0.355 S 
HETATM   29  O2  UNL     1     -13.073  69.127  18.137  1.00  0.00    -0.176 OA
HETATM   30  O3  UNL     1     -11.889  67.113  17.272  1.00  0.00    -0.176 OA
BRANCH  28  31
HETATM   31  N9  UNL     1     -13.426  66.850  19.449  1.00  0.00    -0.306 N 
ATOM     32  H92 UNL     1     -14.175  67.194  20.049  1.00  0.00     0.171 HD
ATOM     33  H91 UNL     1     -13.169  65.876  19.295  1.00  0.00     0.171 HD
ENDBRANCH  28  31
ENDBRANCH  27  28
ENDBRANCH  26  27
ENDBRANCH  18  26
ENDBRANCH   1  18
TORSDOF 12
ENDMDL
MODEL 3
REMARK VINA RESULT: -5.833358886      0.555      2.132
REMARK  12 active torsions:
REMARK  status: ('A' for Active; 'I' for Inactive)
REMARK    1  A    between atoms: N1_2  and  C2_4 
REMARK    2  A    between atoms: C3_7  and  N3_8 
REMARK    3  A    between atoms: C4_13  and  N5_14 
REMARK    4  A    between atoms: N5_14  and  C5_16 
REMARK    5  A    between atoms: C5_16  and  C6_17 
REMARK    6  A    between atoms: C5_16  and  C7_24 
REMARK    7  A    between atoms: C6_17  and  N6_18 
REMARK    8  A    between atoms: N6_18  and  N7_20 
REMARK    9  A    between atoms: N7_20  and  N8_21 
REMARK   10  A    between atoms: C7_24  and  O1_25 
REMARK   11  A    between atoms: O1_25  and  S1_26 
REMARK   12  A    between atoms: S1_26  and  N9_27 
ROOT
HETATM    1  N5  UNL     1      -9.631  70.799  21.181  1.00  0.00    -0.217 N 
ATOM      2  H5  UNL     1      -8.950  70.659  20.434  1.00  0.00     0.178 HD
ENDROOT
BRANCH   1   3
HETATM    3  C4  UNL     1      -9.188  71.316  22.246  1.00  0.00     0.707 A 
HETATM    4  N4  UNL     1      -7.906  71.719  22.296  1.00  0.00    -0.022 N 
HETATM    5  C3  UNL     1      -7.362  72.278  23.396  1.00  0.00     0.705 A 
ATOM      6  H4  UNL     1      -7.323  71.596  21.468  1.00  0.00     0.203 HD
HETATM    7  N2  UNL     1      -8.148  72.431  24.477  1.00  0.00    -0.022 N 
HETATM    8  C2  UNL     1      -9.434  72.042  24.473  1.00  0.00     0.706 A 
ATOM      9  H2  UNL     1      -7.758  72.851  25.320  1.00  0.00     0.203 HD
HETATM   10  N10 UNL     1      -9.937  71.487  23.348  1.00  0.00    -0.022 N 
ATOM     11  H10 UNL     1     -10.912  71.189  23.336  1.00  0.00     0.203 HD
BRANCH   5  12
HETATM   12  N3  UNL     1      -6.133  72.661  23.432  1.00  0.00    -0.234 N 
ATOM     13  H32 UNL     1      -5.358  72.000  23.383  1.00  0.00     0.174 HD
ATOM     14  H31 UNL     1      -5.908  73.653  23.511  1.00  0.00     0.174 HD
ENDBRANCH   5  12
BRANCH   8  15
HETATM   15  N1  UNL     1     -10.139  72.212  25.535  1.00  0.00    -0.229 N 
HETATM   16  C1  UNL     1      -9.961  71.352  26.673  1.00  0.00     0.165 C 
ATOM     17  H1  UNL     1     -10.830  72.962  25.569  1.00  0.00     0.177 HD
ENDBRANCH   8  15
ENDBRANCH   1   3
BRANCH   1  18
HETATM   18  C5  UNL     1     -10.961  70.389  20.895  1.00  0.00     0.144 C 
BRANCH  18  19
HETATM   19  C6  UNL     1     -11.661  71.232  19.858  1.00  0.00     0.183 C 
BRANCH  19  20
HETATM   20  N6  UNL     1     -10.758  72.181  19.239  1.00  0.00    -0.251 N 
ATOM     21  H6  UNL     1      -9.909  71.864  18.771  1.00  0.00     0.197 HD
BRANCH  20  22
HETATM   22  N7  UNL     1     -11.037  73.371  19.289  1.00  0.00    -0.248 NA
BRANCH  22  23
HETATM   23  N8  UNL     1     -11.595  74.467  19.274  1.00  0.00    -0.261 N 
ATOM     24  H82 UNL     1     -11.137  74.764  20.135  1.00  0.00     0.193 HD
ATOM     25  H81 UNL     1     -12.161  75.285  19.050  1.00  0.00     0.193 HD
ENDBRANCH  22  23
ENDBRANCH  20  22
ENDBRANCH  19  20
ENDBRANCH  18  19
BRANCH  18  26
HETATM   26  C7  UNL     1     -10.878  68.966  20.320  1.00  0.00     0.219 C 
BRANCH  26  27
HETATM   27  O1  UNL     1     -11.273  69.071  18.992  1.00  0.00    -0.258 OA
BRANCH  27  28
HETATM   28  S1  UNL     1     -12.292  67.846  18.511  1.00  0.00     0.355 S 
HETATM   29  O2  UNL     1     -11.738  67.258  17.245  1.00  0.00    -0.176 OA
HETATM   30  O3  UNL     1     -12.396  66.806  19.604  1.00  0.00    -0.176 OA
BRANCH  28  31
HETATM   31  N9  UNL     1     -13.864  68.534  18.181  1.00  0.00    -0.306 N 
ATOM     32  H92 UNL     1     -14.256  69.349  18.651  1.00  0.00     0.171 HD
ATOM     33  H91 UNL     1     -14.309  67.982  17.448  1.00  0.00     0.171 HD
ENDBRANCH  28  31
ENDBRANCH  27  28
ENDBRANCH  26  27
ENDBRANCH  18  26
ENDBRANCH   1  18
TORSDOF 12
ENDMDL
MODEL 4
REMARK VINA RESULT: -5.794025901      3.590      5.727
REMARK  12 active torsions:
REMARK  status: ('A' for Active; 'I' for Inactive)
REMARK    1  A    between atoms: N1_2  and  C2_4 
REMARK    2  A    between atoms: C3_7  and  N3_8 
REMARK    3  A    between atoms: C4_13  and  N5_14 
REMARK    4  A    between atoms: N5_14  and  C5_16 
REMARK    5  A    between atoms: C5_16  and  C6_17 
REMARK    6  A    between atoms: C5_16  and  C7_24 
REMARK    7  A    between atoms: C6_17  and  N6_18 
REMARK    8  A    between atoms: N6_18  and  N7_20 
REMARK    9  A    between atoms: N7_20  and  N8_21 
REMARK   10  A    between atoms: C7_24  and  O1_25 
REMARK   11  A    between atoms: O1_25  and  S1_26 
REMARK   12  A    between atoms: S1_26  and  N9_27 
ROOT
HETATM    1  N5  UNL     1     -12.741  69.939  18.899  1.00  0.00    -0.217 N 
ATOM      2  H5  UNL     1     -12.183  69.487  18.175  1.00  0.00     0.178 HD
ENDROOT
BRANCH   1   3
HETATM    3  C4  UNL     1     -12.802  71.201  18.845  1.00  0.00     0.707 A 
HETATM    4  N4  UNL     1     -13.872  71.782  18.276  1.00  0.00    -0.022 N 
HETATM    5  C3  UNL     1     -14.008  73.121  18.181  1.00  0.00     0.705 A 
ATOM      6  H4  UNL     1     -14.611  71.187  17.901  1.00  0.00     0.203 HD
HETATM    7  N2  UNL     1     -13.022  73.889  18.681  1.00  0.00    -0.022 N 
HETATM    8  C2  UNL     1     -11.934  73.351  19.258  1.00  0.00     0.706 A 
ATOM      9  H2  UNL     1     -13.103  74.904  18.620  1.00  0.00     0.203 HD
HETATM   10  N10 UNL     1     -11.842  72.006  19.331  1.00  0.00    -0.022 N 
ATOM     11  H10 UNL     1     -11.019  71.589  19.766  1.00  0.00     0.203 HD
BRANCH   5  12
HETATM   12  N3  UNL     1     -15.038  73.667  17.634  1.00  0.00    -0.234 N 
ATOM     13  H32 UNL     1     -15.637  73.162  16.981  1.00  0.00     0.174 HD
ATOM     14  H31 UNL     1     -15.278  74.635  17.849  1.00  0.00     0.174 HD
ENDBRANCH   5  12
BRANCH   8  15
HETATM   15  N1  UNL     1     -11.023  74.133  19.718  1.00  0.00    -0.229 N 
HETATM   16  C1  UNL     1     -11.330  75.078  20.758  1.00  0.00     0.165 C 
ATOM     17  H1  UNL     1     -10.076  74.084  19.343  1.00  0.00     0.177 HD
ENDBRANCH   8  15
ENDBRANCH   1   3
BRANCH   1  18
HETATM   18  C5  UNL     1     -13.355  69.073  19.843  1.00  0.00     0.144 C 
BRANCH  18  19
HETATM   19  C6  UNL     1     -13.901  67.797  19.252  1.00  0.00     0.183 C 
BRANCH  19  20
HETATM   20  N6  UNL     1     -12.842  66.883  18.876  1.00  0.00    -0.251 N 
ATOM     21  H6  UNL     1     -12.682  66.026  19.404  1.00  0.00     0.197 HD
BRANCH  20  22
HETATM   22  N7  UNL     1     -12.143  67.162  17.912  1.00  0.00    -0.248 NA
BRANCH  22  23
HETATM   23  N8  UNL     1     -11.251  67.544  17.156  1.00  0.00    -0.261 N 
ATOM     24  H82 UNL     1     -11.207  66.644  16.679  1.00  0.00     0.193 HD
ATOM     25  H81 UNL     1     -10.537  68.076  16.658  1.00  0.00     0.193 HD
ENDBRANCH  22  23
ENDBRANCH  20  22
ENDBRANCH  19  20
ENDBRANCH  18  19
BRANCH  18  26
HETATM   26  C7  UNL     1     -12.267  68.661  20.847  1.00  0.00     0.219 C 
BRANCH  26  27
HETATM   27  O1  UNL     1     -11.054  68.948  20.230  1.00  0.00    -0.258 OA
BRANCH  27  28
HETATM   28  S1  UNL     1      -9.894  69.499  21.288  1.00  0.00     0.355 S 
HETATM   29  O2  UNL     1      -8.552  69.086  20.753  1.00  0.00    -0.176 OA
HETATM   30  O3  UNL     1      -9.996  71.002  21.426  1.00  0.00    -0.176 OA
BRANCH  28  31
HETATM   31  N9  UNL     1     -10.151  68.732  22.837  1.00  0.00    -0.306 N 
ATOM     32  H92 UNL     1      -9.439  68.617  23.558  1.00  0.00     0.171 HD
ATOM     33  H91 UNL     1     -11.123  68.427  22.888  1.00  0.00     0.171 HD
ENDBRANCH  28  31
ENDBRANCH  27  28
ENDBRANCH  26  27
ENDBRANCH  18  26
ENDBRANCH   1  18
TORSDOF 12
ENDMDL
MODEL 5
REMARK VINA RESULT: -5.781338350      1.762      2.840
REMARK  12 active torsions:
REMARK  status: ('A' for Active; 'I' for Inactive)
REMARK    1  A    between atoms: N1_2  and  C2_4 
REMARK    2  A    between atoms: C3_7  and  N3_8 
REMARK    3  A    between atoms: C4_13  and  N5_14 
REMARK    4  A    between atoms: N5_14  and  C5_16 
REMARK    5  A    between atoms: C5_16  and  C6_17 
REMARK    6  A    between atoms: C5_16  and  C7_24 
REMARK    7  A    between atoms: C6_17  and  N6_18 
REMARK    8  A    between atoms: N6_18  and  N7_20 
REMARK    9  A    between atoms: N7_20  and  N8_21 
REMARK   10  A    between atoms: C7_24  and  O1_25 
REMARK   11  A    between atoms: O1_25  and  S1_26 
REMARK   12  A    between atoms: S1_26  and  N9_27 
ROOT
HETATM    1  N5  UNL     1     -11.820  71.530  19.136  1.00  0.00    -0.217 N 
ATOM      2  H5  UNL     1     -11.466  71.727  18.200  1.00  0.00     0.178 HD
ENDROOT
BRANCH   1   3
HETATM    3  C4  UNL     1     -10.954  71.470  20.055  1.00  0.00     0.707 A 
HETATM    4  N4  UNL     1     -10.218  70.353  20.191  1.00  0.00    -0.022 N 
HETATM    5  C3  UNL     1      -9.276  70.214  21.146  1.00  0.00     0.705 A 
ATOM      6  H4  UNL     1     -10.379  69.580  19.545  1.00  0.00     0.203 HD
HETATM    7  N2  UNL     1      -9.079  71.246  21.988  1.00  0.00    -0.022 N 
HETATM    8  C2  UNL     1      -9.791  72.381  21.889  1.00  0.00     0.706 A 
ATOM      9  H2  UNL     1      -8.372  71.164  22.719  1.00  0.00     0.203 HD
HETATM   10  N10 UNL     1     -10.724  72.475  20.917  1.00  0.00    -0.022 N 
ATOM     11  H10 UNL     1     -11.270  73.332  20.835  1.00  0.00     0.203 HD
BRANCH   5  12
HETATM   12  N3  UNL     1      -8.576  69.140  21.267  1.00  0.00    -0.234 N 
ATOM     13  H32 UNL     1      -8.995  68.212  21.212  1.00  0.00     0.174 HD
ATOM     14  H31 UNL     1      -7.570  69.200  21.423  1.00  0.00     0.174 HD
ENDBRANCH   5  12
BRANCH   8  15
HETATM   15  N1  UNL     1      -9.561  73.335  22.721  1.00  0.00    -0.229 N 
HETATM   16  C1  UNL     1      -8.278  73.452  23.358  1.00  0.00     0.165 C 
ATOM     17  H1  UNL     1     -10.295  74.012  22.930  1.00  0.00     0.177 HD
ENDBRANCH   8  15
ENDBRANCH   1   3
BRANCH   1  18
HETATM   18  C5  UNL     1     -13.226  71.357  19.247  1.00  0.00     0.144 C 
BRANCH  18  19
HETATM   19  C6  UNL     1     -14.032  72.579  18.879  1.00  0.00     0.183 C 
BRANCH  19  20
HETATM   20  N6  UNL     1     -13.240  73.543  18.143  1.00  0.00    -0.251 N 
ATOM     21  H6  UNL     1     -13.245  73.552  17.124  1.00  0.00     0.197 HD
BRANCH  20  22
HETATM   22  N7  UNL     1     -12.565  74.346  18.772  1.00  0.00    -0.248 NA
BRANCH  22  23
HETATM   23  N8  UNL     1     -11.663  75.048  19.228  1.00  0.00    -0.261 N 
ATOM     24  H82 UNL     1     -11.347  75.324  18.299  1.00  0.00     0.193 HD
ATOM     25  H81 UNL     1     -11.008  75.552  19.826  1.00  0.00     0.193 HD
ENDBRANCH  22  23
ENDBRANCH  20  22
ENDBRANCH  19  20
ENDBRANCH  18  19
BRANCH  18  26
HETATM   26  C7  UNL     1     -13.622  70.254  18.252  1.00  0.00     0.219 C 
BRANCH  26  27
HETATM   27  O1  UNL     1     -12.455  69.548  17.986  1.00  0.00    -0.258 OA
BRANCH  27  28
HETATM   28  S1  UNL     1     -12.522  67.960  18.479  1.00  0.00     0.355 S 
HETATM   29  O2  UNL     1     -11.962  67.111  17.373  1.00  0.00    -0.176 OA
HETATM   30  O3  UNL     1     -11.737  67.786  19.761  1.00  0.00    -0.176 OA
BRANCH  28  31
HETATM   31  N9  UNL     1     -14.197  67.532  18.735  1.00  0.00    -0.306 N 
ATOM     32  H92 UNL     1     -14.824  67.168  18.018  1.00  0.00     0.171 HD
ATOM     33  H91 UNL     1     -14.429  67.709  19.712  1.00  0.00     0.171 HD
ENDBRANCH  28  31
ENDBRANCH  27  28
ENDBRANCH  26  27
ENDBRANCH  18  26
ENDBRANCH   1  18
TORSDOF 12
ENDMDL
