MODEL 1
REMARK VINA RESULT: -6.234782872      0.000      0.000
REMARK  7 active torsions:
REMARK  status: ('A' for Active; 'I' for Inactive)
REMARK    1  A    between atoms: N1_1  and  C1_4 
REMARK    2  A    between atoms: C2_7  and  C3_8 
REMARK    3  A    between atoms: C3_8  and  C4_9 
REMARK       I    between atoms: C4_9  and  N3_11 
REMARK    4  A    between atoms: N3_11  and  C5_13 
REMARK    5  A    between atoms: C5_13  and  C6_14 
REMARK    6  A    between atoms: C6_14  and  C7_15 
REMARK    7  A    between atoms: C7_15  and  N4_16 
ROOT
HETATM    1  C4  UNL     1      -9.286  75.069  22.983  1.00  0.00     0.224 C 
HETATM    2  O1  UNL     1      -9.736  74.125  23.657  1.00  0.00    -0.273 OA
HETATM    3  N3  UNL     1     -10.012  75.689  21.942  1.00  0.00    -0.361 N 
ATOM      4  H3  UNL     1      -9.578  76.459  21.432  1.00  0.00     0.162 HD
ENDROOT
BRANCH   3   5
HETATM    5  C5  UNL     1     -11.333  75.279  21.576  1.00  0.00     0.124 C 
BRANCH   5   6
HETATM    6  C6  UNL     1     -11.473  74.656  20.230  1.00  0.00     0.041 C 
BRANCH   6   7
HETATM    7  C7  UNL     1     -10.989  73.256  20.102  1.00  0.00     0.144 C 
BRANCH   7   8
HETATM    8  N4  UNL     1     -11.366  72.353  21.134  1.00  0.00    -0.316 N 
HETATM    9  C8  UNL     1     -12.346  71.395  20.800  1.00  0.00     0.245 C 
HETATM   10  C9  UNL     1     -11.924  70.095  20.298  1.00  0.00     0.243 C 
HETATM   11  O2  UNL     1     -12.891  69.349  19.929  1.00  0.00    -0.271 OA
HETATM   12  N5  UNL     1     -10.661  69.443  20.117  1.00  0.00    -0.288 N 
HETATM   13  C10 UNL     1      -9.497  69.819  20.891  1.00  0.00     0.317 C 
ATOM     14  H5  UNL     1     -10.581  68.697  19.426  1.00  0.00     0.172 HD
HETATM   15  O3  UNL     1      -8.488  69.084  20.785  1.00  0.00    -0.262 OA
HETATM   16  C11 UNL     1      -9.328  70.970  21.802  1.00  0.00     0.328 C 
HETATM   17  O4  UNL     1      -8.282  71.112  22.442  1.00  0.00    -0.261 OA
HETATM   18  N6  UNL     1     -10.348  71.952  21.976  1.00  0.00    -0.264 N 
ATOM     19  H6  UNL     1     -10.320  72.439  22.872  1.00  0.00     0.190 HD
ENDBRANCH   7   8
ENDBRANCH   6   7
ENDBRANCH   5   6
ENDBRANCH   3   5
BRANCH   1  20
HETATM   20  C3  UNL     1      -7.899  75.522  23.352  1.00  0.00     0.181 C 
BRANCH  20  21
HETATM   21  C2  UNL     1      -7.180  74.338  23.941  1.00  0.00     0.121 A 
HETATM   22  N2  UNL     1      -7.011  74.022  25.232  1.00  0.00    -0.178 N 
HETATM   23  C1  UNL     1      -6.313  72.870  25.333  1.00  0.00     0.691 A 
ATOM     24  H2  UNL     1      -7.357  74.569  26.019  1.00  0.00     0.185 HD
HETATM   25  N8  UNL     1      -6.068  72.502  24.063  1.00  0.00    -0.131 N 
HETATM   26  N7  UNL     1      -6.594  73.393  23.217  1.00  0.00    -0.274 N 
ATOM     27  H8  UNL     1      -5.555  71.665  23.786  1.00  0.00     0.205 HD
ATOM     28  H7  UNL     1      -6.552  73.352  22.199  1.00  0.00     0.189 HD
BRANCH  23  29
HETATM   29  N1  UNL     1      -5.946  72.236  26.381  1.00  0.00    -0.233 N 
ATOM     30  H12 UNL     1      -6.449  72.207  27.268  1.00  0.00     0.174 HD
ATOM     31  H11 UNL     1      -5.117  71.660  26.530  1.00  0.00     0.174 HD
ENDBRANCH  23  29
ENDBRANCH  20  21
ENDBRANCH   1  20
TORSDOF 7
ENDMDL
MODEL 2
REMARK VINA RESULT: -6.179131414      2.003      2.560
REMARK  7 active torsions:
REMARK  status: ('A' for Active; 'I' for Inactive)
REMARK    1  A    between atoms: N1_1  and  C1_4 
REMARK    2  A    between atoms: C2_7  and  C3_8 
REMARK    3  A    between atoms: C3_8  and  C4_9 
REMARK       I    between atoms: C4_9  and  N3_11 
REMARK    4  A    between atoms: N3_11  and  C5_13 
REMARK    5  A    between atoms: C5_13  and  C6_14 
REMARK    6  A    between atoms: C6_14  and  C7_15 
REMARK    7  A    between atoms: C7_15  and  N4_16 
ROOT
HETATM    1  C4  UNL     1      -9.877  72.671  22.294  1.00  0.00     0.224 C 
HETATM    2  O1  UNL     1     -10.355  73.493  23.096  1.00  0.00    -0.273 OA
HETATM    3  N3  UNL     1     -10.206  72.651  20.920  1.00  0.00    -0.361 N 
ATOM      4  H3  UNL     1      -9.773  71.947  20.322  1.00  0.00     0.162 HD
ENDROOT
BRANCH   3   5
HETATM    5  C5  UNL     1     -11.122  73.582  20.335  1.00  0.00     0.124 C 
BRANCH   5   6
HETATM    6  C6  UNL     1     -12.344  72.993  19.718  1.00  0.00     0.041 C 
BRANCH   6   7
HETATM    7  C7  UNL     1     -12.222  71.595  19.228  1.00  0.00     0.144 C 
BRANCH   7   8
HETATM    8  N4  UNL     1     -13.132  70.646  19.770  1.00  0.00    -0.316 N 
HETATM    9  C8  UNL     1     -13.603  69.654  18.886  1.00  0.00     0.245 C 
HETATM   10  C9  UNL     1     -12.887  68.391  18.792  1.00  0.00     0.243 C 
HETATM   11  O2  UNL     1     -13.337  67.612  17.887  1.00  0.00    -0.271 OA
HETATM   12  N5  UNL     1     -11.779  67.803  19.485  1.00  0.00    -0.288 N 
HETATM   13  C10 UNL     1     -11.425  68.210  20.828  1.00  0.00     0.317 C 
ATOM     14  H5  UNL     1     -11.227  67.081  19.021  1.00  0.00     0.172 HD
HETATM   15  O3  UNL     1     -10.554  67.525  21.414  1.00  0.00    -0.262 OA
HETATM   16  C11 UNL     1     -11.953  69.340  21.619  1.00  0.00     0.328 C 
HETATM   17  O4  UNL     1     -11.589  69.512  22.786  1.00  0.00    -0.261 OA
HETATM   18  N6  UNL     1     -12.891  70.269  21.077  1.00  0.00    -0.264 N 
ATOM     19  H6  UNL     1     -13.481  70.730  21.769  1.00  0.00     0.190 HD
ENDBRANCH   7   8
ENDBRANCH   6   7
ENDBRANCH   5   6
ENDBRANCH   3   5
BRANCH   1  20
HETATM   20  C3  UNL     1      -8.906  71.684  22.884  1.00  0.00     0.181 C 
BRANCH  20  21
HETATM   21  C2  UNL     1      -7.660  72.443  23.253  1.00  0.00     0.121 A 
HETATM   22  N2  UNL     1      -7.555  73.607  23.907  1.00  0.00    -0.178 N 
HETATM   23  C1  UNL     1      -6.254  73.940  24.043  1.00  0.00     0.691 A 
ATOM     24  H2  UNL     1      -8.341  74.159  24.251  1.00  0.00     0.185 HD
HETATM   25  N8  UNL     1      -5.577  72.940  23.451  1.00  0.00    -0.131 N 
HETATM   26  N7  UNL     1      -6.431  72.030  22.971  1.00  0.00    -0.274 N 
ATOM     27  H8  UNL     1      -4.561  72.884  23.378  1.00  0.00     0.205 HD
ATOM     28  H7  UNL     1      -6.181  71.173  22.477  1.00  0.00     0.189 HD
BRANCH  23  29
HETATM   29  N1  UNL     1      -5.735  74.967  24.603  1.00  0.00    -0.233 N 
ATOM     30  H12 UNL     1      -5.035  74.953  25.344  1.00  0.00     0.174 HD
ATOM     31  H11 UNL     1      -5.912  75.956  24.426  1.00  0.00     0.174 HD
ENDBRANCH  23  29
ENDBRANCH  20  21
ENDBRANCH   1  20
TORSDOF 7
ENDMDL
MODEL 3
REMARK VINA RESULT: -6.103794147      2.554      4.269
REMARK  7 active torsions:
REMARK  status: ('A' for Active; 'I' for Inactive)
REMARK    1  A    between atoms: N1_1  and  C1_4 
REMARK    2  A    between atoms: C2_7  and  C3_8 
REMARK    3  A    between atoms: C3_8  and  C4_9 
REMARK       I    between atoms: C4_9  and  N3_11 
REMARK    4  A    between atoms: N3_11  and  C5_13 
REMARK    5  A    between atoms: C5_13  and  C6_14 
REMARK    6  A    between atoms: C6_14  and  C7_15 
REMARK    7  A    between atoms: C7_15  and  N4_16 
ROOT
HETATM    1  C4  UNL     1      -7.211  71.746  27.394  1.00  0.00     0.224 C 
HETATM    2  O1  UNL     1      -7.170  71.611  28.630  1.00  0.00    -0.273 OA
HETATM    3  N3  UNL     1      -8.377  71.516  26.631  1.00  0.00    -0.361 N 
ATOM      4  H3  UNL     1      -8.336  71.647  25.620  1.00  0.00     0.162 HD
ENDROOT
BRANCH   3   5
HETATM    5  C5  UNL     1      -9.615  71.107  27.222  1.00  0.00     0.124 C 
BRANCH   5   6
HETATM    6  C6  UNL     1     -10.773  70.984  26.292  1.00  0.00     0.041 C 
BRANCH   6   7
HETATM    7  C7  UNL     1     -10.586  70.077  25.129  1.00  0.00     0.144 C 
BRANCH   7   8
HETATM    8  N4  UNL     1     -11.196  70.470  23.907  1.00  0.00    -0.316 N 
HETATM    9  C8  UNL     1     -10.881  71.762  23.437  1.00  0.00     0.245 C 
HETATM   10  C9  UNL     1      -9.760  71.929  22.525  1.00  0.00     0.243 C 
HETATM   11  O2  UNL     1      -9.500  73.149  22.249  1.00  0.00    -0.271 OA
HETATM   12  N5  UNL     1      -8.863  71.039  21.851  1.00  0.00    -0.288 N 
HETATM   13  C10 UNL     1      -9.227  69.665  21.574  1.00  0.00     0.317 C 
ATOM     14  H5  UNL     1      -7.946  71.380  21.560  1.00  0.00     0.172 HD
HETATM   15  O3  UNL     1      -8.451  69.014  20.835  1.00  0.00    -0.262 OA
HETATM   16  C11 UNL     1     -10.402  68.908  22.051  1.00  0.00     0.328 C 
HETATM   17  O4  UNL     1     -10.601  67.753  21.666  1.00  0.00    -0.261 OA
HETATM   18  N6  UNL     1     -11.342  69.470  22.965  1.00  0.00    -0.264 N 
ATOM     19  H6  UNL     1     -12.277  69.067  22.914  1.00  0.00     0.190 HD
ENDBRANCH   7   8
ENDBRANCH   6   7
ENDBRANCH   5   6
ENDBRANCH   3   5
BRANCH   1  20
HETATM   20  C3  UNL     1      -5.923  72.180  26.749  1.00  0.00     0.181 C 
BRANCH  20  21
HETATM   21  C2  UNL     1      -6.276  72.880  25.464  1.00  0.00     0.121 A 
HETATM   22  N2  UNL     1      -6.849  74.079  25.298  1.00  0.00    -0.178 N 
HETATM   23  C1  UNL     1      -6.984  74.343  23.981  1.00  0.00     0.691 A 
ATOM     24  H2  UNL     1      -7.138  74.701  26.053  1.00  0.00     0.185 HD
HETATM   25  N8  UNL     1      -6.475  73.265  23.358  1.00  0.00    -0.131 N 
HETATM   26  N7  UNL     1      -6.045  72.376  24.258  1.00  0.00    -0.274 N 
ATOM     27  H8  UNL     1      -6.425  73.144  22.347  1.00  0.00     0.205 HD
ATOM     28  H7  UNL     1      -5.616  71.474  24.055  1.00  0.00     0.189 HD
BRANCH  23  29
HETATM   29  N1  UNL     1      -7.480  75.374  23.409  1.00  0.00    -0.233 N 
ATOM     30  H12 UNL     1      -8.470  75.535  23.221  1.00  0.00     0.174 HD
ATOM     31  H11 UNL     1      -7.005  76.201  23.044  1.00  0.00     0.174 HD
ENDBRANCH  23  29
ENDBRANCH  20  21
ENDBRANCH   1  20
TORSDOF 7
ENDMDL
MODEL 4
REMARK VINA RESULT: -6.094016020      2.969      6.007
REMARK  7 active torsions:
REMARK  status: ('A' for Active; 'I' for Inactive)
REMARK    1  A    between atoms: N1_1  and  C1_4 
REMARK    2  A    between atoms: C2_7  and  C3_8 
REMARK    3  A    between atoms: C3_8  and  C4_9 
REMARK       I    between atoms: C4_9  and  N3_11 
REMARK    4  A    between atoms: N3_11  and  C5_13 
REMARK    5  A    between atoms: C5_13  and  C6_14 
REMARK    6  A    between atoms: C6_14  and  C7_15 
REMARK    7  A    between atoms: C7_15  and  N4_16 
ROOT
HETATM    1  C4  UNL     1     -12.951  72.546  19.447  1.00  0.00     0.224 C 
HETATM    2  O1  UNL     1     -12.060  73.191  18.867  1.00  0.00    -0.273 OA
HETATM    3  N3  UNL     1     -13.265  72.721  20.814  1.00  0.00    -0.361 N 
ATOM      4  H3  UNL     1     -14.010  72.155  21.222  1.00  0.00     0.162 HD
ENDROOT
BRANCH   3   5
HETATM    5  C5  UNL     1     -12.579  73.661  21.647  1.00  0.00     0.124 C 
BRANCH   5   6
HETATM    6  C6  UNL     1     -11.529  73.095  22.540  1.00  0.00     0.041 C 
BRANCH   6   7
HETATM    7  C7  UNL     1     -10.264  72.676  21.881  1.00  0.00     0.144 C 
BRANCH   7   8
HETATM    8  N4  UNL     1      -9.366  71.894  22.659  1.00  0.00    -0.316 N 
HETATM    9  C8  UNL     1      -9.770  71.605  23.979  1.00  0.00     0.245 C 
HETATM   10  C9  UNL     1     -10.511  70.380  24.241  1.00  0.00     0.243 C 
HETATM   11  O2  UNL     1     -10.916  70.273  25.447  1.00  0.00    -0.271 OA
HETATM   12  N5  UNL     1     -10.900  69.247  23.456  1.00  0.00    -0.288 N 
HETATM   13  C10 UNL     1     -10.174  68.868  22.262  1.00  0.00     0.317 C 
ATOM     14  H5  UNL     1     -11.708  68.695  23.745  1.00  0.00     0.172 HD
HETATM   15  O3  UNL     1     -10.482  67.771  21.739  1.00  0.00    -0.262 OA
HETATM   16  C11 UNL     1      -9.105  69.606  21.560  1.00  0.00     0.328 C 
HETATM   17  O4  UNL     1      -8.538  69.108  20.583  1.00  0.00    -0.261 OA
HETATM   18  N6  UNL     1      -8.688  70.906  21.972  1.00  0.00    -0.264 N 
ATOM     19  H6  UNL     1      -7.730  71.146  21.718  1.00  0.00     0.190 HD
ENDBRANCH   7   8
ENDBRANCH   6   7
ENDBRANCH   5   6
ENDBRANCH   3   5
BRANCH   1  20
HETATM   20  C3  UNL     1     -13.690  71.554  18.592  1.00  0.00     0.181 C 
BRANCH  20  21
HETATM   21  C2  UNL     1     -12.953  70.245  18.680  1.00  0.00     0.121 A 
HETATM   22  N2  UNL     1     -13.423  69.007  18.476  1.00  0.00    -0.178 N 
HETATM   23  C1  UNL     1     -12.430  68.107  18.646  1.00  0.00     0.691 A 
ATOM     24  H2  UNL     1     -14.385  68.778  18.228  1.00  0.00     0.185 HD
HETATM   25  N8  UNL     1     -11.348  68.841  18.959  1.00  0.00    -0.131 N 
HETATM   26  N7  UNL     1     -11.664  70.139  18.980  1.00  0.00    -0.274 N 
ATOM     27  H8  UNL     1     -10.421  68.462  19.153  1.00  0.00     0.205 HD
ATOM     28  H7  UNL     1     -11.030  70.910  19.188  1.00  0.00     0.189 HD
BRANCH  23  29
HETATM   29  N1  UNL     1     -12.467  66.833  18.543  1.00  0.00    -0.233 N 
ATOM     30  H12 UNL     1     -12.390  66.168  19.313  1.00  0.00     0.174 HD
ATOM     31  H11 UNL     1     -12.577  66.256  17.708  1.00  0.00     0.174 HD
ENDBRANCH  23  29
ENDBRANCH  20  21
ENDBRANCH   1  20
TORSDOF 7
ENDMDL
MODEL 5
REMARK VINA RESULT: -6.074943382      2.339      3.563
REMARK  7 active torsions:
REMARK  status: ('A' for Active; 'I' for Inactive)
REMARK    1  A    between atoms: N1_1  and  C1_4 
REMARK    2  A    between atoms: C2_7  and  C3_8 
REMARK    3  A    between atoms: C3_8  and  C4_9 
REMARK       I    between atoms: C4_9  and  N3_11 
REMARK    4  A    between atoms: N3_11  and  C5_13 
REMARK    5  A    between atoms: C5_13  and  C6_14 
REMARK    6  A    between atoms: C6_14  and  C7_15 
REMARK    7  A    between atoms: C7_15  and  N4_16 
ROOT
HETATM    1  C4  UNL     1     -11.460  73.067  20.648  1.00  0.00     0.224 C 
HETATM    2  O1  UNL     1     -10.836  73.619  19.724  1.00  0.00    -0.273 OA
HETATM    3  N3  UNL     1     -12.500  72.137  20.427  1.00  0.00    -0.361 N 
ATOM      4  H3  UNL     1     -12.968  71.724  21.235  1.00  0.00     0.162 HD
ENDROOT
BRANCH   3   5
HETATM    5  C5  UNL     1     -12.923  71.751  19.116  1.00  0.00     0.124 C 
BRANCH   5   6
HETATM    6  C6  UNL     1     -13.996  70.719  19.053  1.00  0.00     0.041 C 
BRANCH   6   7
HETATM    7  C7  UNL     1     -14.388  70.102  20.348  1.00  0.00     0.144 C 
BRANCH   7   8
HETATM    8  N4  UNL     1     -13.959  68.767  20.576  1.00  0.00    -0.316 N 
HETATM    9  C8  UNL     1     -13.815  67.951  19.435  1.00  0.00     0.245 C 
HETATM   10  C9  UNL     1     -12.521  67.882  18.772  1.00  0.00     0.243 C 
HETATM   11  O2  UNL     1     -12.533  67.201  17.693  1.00  0.00    -0.271 OA
HETATM   12  N5  UNL     1     -11.216  68.405  19.047  1.00  0.00    -0.288 N 
HETATM   13  C10 UNL     1     -10.807  68.751  20.392  1.00  0.00     0.317 C 
ATOM     14  H5  UNL     1     -10.559  68.535  18.277  1.00  0.00     0.172 HD
HETATM   15  O3  UNL     1      -9.598  69.038  20.558  1.00  0.00    -0.262 OA
HETATM   16  C11 UNL     1     -11.629  68.819  21.617  1.00  0.00     0.328 C 
HETATM   17  O4  UNL     1     -11.108  69.070  22.707  1.00  0.00    -0.261 OA
HETATM   18  N6  UNL     1     -13.039  68.603  21.594  1.00  0.00    -0.264 N 
ATOM     19  H6  UNL     1     -13.433  68.272  22.474  1.00  0.00     0.190 HD
ENDBRANCH   7   8
ENDBRANCH   6   7
ENDBRANCH   5   6
ENDBRANCH   3   5
BRANCH   1  20
HETATM   20  C3  UNL     1     -11.031  73.452  22.038  1.00  0.00     0.181 C 
BRANCH  20  21
HETATM   21  C2  UNL     1      -9.707  72.787  22.301  1.00  0.00     0.121 A 
HETATM   22  N2  UNL     1      -8.670  73.246  23.015  1.00  0.00    -0.178 N 
HETATM   23  C1  UNL     1      -7.674  72.334  23.012  1.00  0.00     0.691 A 
ATOM     24  H2  UNL     1      -8.638  74.148  23.489  1.00  0.00     0.185 HD
HETATM   25  N8  UNL     1      -8.143  71.312  22.274  1.00  0.00    -0.131 N 
HETATM   26  N7  UNL     1      -9.377  71.586  21.843  1.00  0.00    -0.274 N 
ATOM     27  H8  UNL     1      -7.631  70.453  22.074  1.00  0.00     0.205 HD
ATOM     28  H7  UNL     1      -9.961  70.981  21.265  1.00  0.00     0.189 HD
BRANCH  23  29
HETATM   29  N1  UNL     1      -6.525  72.390  23.571  1.00  0.00    -0.233 N 
ATOM     30  H12 UNL     1      -5.858  73.157  23.492  1.00  0.00     0.174 HD
ATOM     31  H11 UNL     1      -6.071  71.708  24.180  1.00  0.00     0.174 HD
ENDBRANCH  23  29
ENDBRANCH  20  21
ENDBRANCH   1  20
TORSDOF 7
ENDMDL
