MODEL 1
REMARK VINA RESULT: -7.361683436      0.000      0.000
REMARK  7 active torsions:
REMARK  status: ('A' for Active; 'I' for Inactive)
REMARK    1  A    between atoms: N2_3  and  N3_5 
REMARK       I    between atoms: N3_5  and  C2_7 
REMARK    2  A    between atoms: N5_9  and  C3_11 
REMARK    3  A    between atoms: C3_11  and  C4_12 
REMARK    4  A    between atoms: C4_12  and  C5_13 
REMARK    5  A    between atoms: C5_13  and  C6_15 
REMARK       I    between atoms: C6_15  and  N6_17 
REMARK    6  A    between atoms: N6_17  and  C7_19 
REMARK    7  A    between atoms: C7_19  and  C8_20 
ROOT
HETATM    1  N1  UNL     1     -15.123  70.036  18.027  1.00  0.00    -0.170 NA
HETATM    2  C1  UNL     1     -14.973  68.901  18.254  1.00  0.00     0.198 C 
HETATM    3  N2  UNL     1     -14.788  67.546  18.547  1.00  0.00    -0.234 N 
ATOM      4  H2  UNL     1     -15.461  66.857  18.210  1.00  0.00     0.199 HD
ENDROOT
BRANCH   3   5
HETATM    5  N3  UNL     1     -13.678  67.129  19.306  1.00  0.00    -0.265 N 
HETATM    6  C2  UNL     1     -12.398  67.480  18.789  1.00  0.00     0.203 C 
HETATM    7  N4  UNL     1     -12.021  67.175  17.466  1.00  0.00    -0.062 NA
HETATM    8  N5  UNL     1     -11.582  68.092  19.564  1.00  0.00    -0.363 N 
ATOM      9  H5  UNL     1     -10.670  68.336  19.178  1.00  0.00     0.162 HD
ATOM     10  H3  UNL     1     -13.784  66.606  20.175  1.00  0.00     0.190 HD
BRANCH   8  11
HETATM   11  C3  UNL     1     -11.834  68.460  20.920  1.00  0.00     0.130 C 
BRANCH  11  12
HETATM   12  C4  UNL     1     -10.606  68.287  21.792  1.00  0.00     0.108 C 
BRANCH  12  13
HETATM   13  C5  UNL     1      -9.707  69.443  21.662  1.00  0.00     0.217 C 
HETATM   14  O1  UNL     1      -8.702  69.390  20.882  1.00  0.00    -0.287 OA
BRANCH  13  15
HETATM   15  C6  UNL     1      -9.909  70.685  22.400  1.00  0.00     0.287 C 
HETATM   16  O2  UNL     1     -10.559  70.665  23.473  1.00  0.00    -0.264 OA
HETATM   17  N6  UNL     1      -9.401  71.928  21.957  1.00  0.00    -0.349 N 
ATOM     18  H6  UNL     1      -8.872  71.950  21.085  1.00  0.00     0.163 HD
BRANCH  17  19
HETATM   19  C7  UNL     1      -9.589  73.165  22.671  1.00  0.00     0.180 C 
BRANCH  19  20
HETATM   20  C8  UNL     1      -8.338  73.687  23.286  1.00  0.00     0.036 A 
HETATM   21  C9  UNL     1      -8.388  74.820  24.097  1.00  0.00     0.101 A 
HETATM   22  C10 UNL     1      -7.254  75.335  24.692  1.00  0.00     0.251 A 
HETATM   23  O3  UNL     1      -7.367  76.352  25.407  1.00  0.00    -0.268 OA
HETATM   24  N7  UNL     1      -6.100  74.705  24.464  1.00  0.00    -0.275 N 
HETATM   25  C11 UNL     1      -6.048  73.613  23.684  1.00  0.00     0.327 A 
ATOM     26  H7  UNL     1      -5.242  75.058  24.890  1.00  0.00     0.173 HD
HETATM   27  O4  UNL     1      -4.972  72.995  23.449  1.00  0.00    -0.247 OA
HETATM   28  N8  UNL     1      -7.156  73.091  23.089  1.00  0.00    -0.311 N 
ATOM     29  H8  UNL     1      -7.086  72.260  22.502  1.00  0.00     0.170 HD
ENDBRANCH  19  20
ENDBRANCH  17  19
ENDBRANCH  13  15
ENDBRANCH  12  13
ENDBRANCH  11  12
ENDBRANCH   8  11
ENDBRANCH   3   5
TORSDOF 7
ENDMDL
MODEL 2
REMARK VINA RESULT: -7.121217696      1.974      2.419
REMARK  7 active torsions:
REMARK  status: ('A' for Active; 'I' for Inactive)
REMARK    1  A    between atoms: N2_3  and  N3_5 
REMARK       I    between atoms: N3_5  and  C2_7 
REMARK    2  A    between atoms: N5_9  and  C3_11 
REMARK    3  A    between atoms: C3_11  and  C4_12 
REMARK    4  A    between atoms: C4_12  and  C5_13 
REMARK    5  A    between atoms: C5_13  and  C6_15 
REMARK       I    between atoms: C6_15  and  N6_17 
REMARK    6  A    between atoms: N6_17  and  C7_19 
REMARK    7  A    between atoms: C7_19  and  C8_20 
ROOT
HETATM    1  N1  UNL     1     -15.748  69.571  18.788  1.00  0.00    -0.170 NA
HETATM    2  C1  UNL     1     -15.304  68.492  18.803  1.00  0.00     0.198 C 
HETATM    3  N2  UNL     1     -14.768  67.201  18.842  1.00  0.00    -0.234 N 
ATOM      4  H2  UNL     1     -15.249  66.436  18.368  1.00  0.00     0.199 HD
ENDROOT
BRANCH   3   5
HETATM    5  N3  UNL     1     -13.568  66.952  19.535  1.00  0.00    -0.265 N 
HETATM    6  C2  UNL     1     -12.382  67.470  18.939  1.00  0.00     0.203 C 
HETATM    7  N4  UNL     1     -12.046  67.201  17.597  1.00  0.00    -0.062 NA
HETATM    8  N5  UNL     1     -11.613  68.198  19.660  1.00  0.00    -0.363 N 
ATOM      9  H5  UNL     1     -10.769  68.561  19.217  1.00  0.00     0.162 HD
ATOM     10  H3  UNL     1     -13.548  66.431  20.412  1.00  0.00     0.190 HD
BRANCH   8  11
HETATM   11  C3  UNL     1     -11.833  68.547  21.027  1.00  0.00     0.130 C 
BRANCH  11  12
HETATM   12  C4  UNL     1     -10.593  68.334  21.872  1.00  0.00     0.108 C 
BRANCH  12  13
HETATM   13  C5  UNL     1      -9.571  69.346  21.563  1.00  0.00     0.217 C 
HETATM   14  O1  UNL     1      -8.703  69.126  20.659  1.00  0.00    -0.287 OA
BRANCH  13  15
HETATM   15  C6  UNL     1      -9.496  70.626  22.257  1.00  0.00     0.287 C 
HETATM   16  O2  UNL     1     -10.527  71.097  22.797  1.00  0.00    -0.264 OA
HETATM   17  N6  UNL     1      -8.300  71.375  22.353  1.00  0.00    -0.349 N 
ATOM     18  H6  UNL     1      -7.459  70.998  21.916  1.00  0.00     0.163 HD
BRANCH  17  19
HETATM   19  C7  UNL     1      -8.205  72.640  23.034  1.00  0.00     0.180 C 
BRANCH  19  20
HETATM   20  C8  UNL     1      -8.045  72.506  24.508  1.00  0.00     0.036 A 
HETATM   21  C9  UNL     1      -6.778  72.621  25.078  1.00  0.00     0.101 A 
HETATM   22  C10 UNL     1      -6.584  72.510  26.440  1.00  0.00     0.251 A 
HETATM   23  O3  UNL     1      -5.424  72.623  26.888  1.00  0.00    -0.268 OA
HETATM   24  N7  UNL     1      -7.661  72.287  27.198  1.00  0.00    -0.275 N 
HETATM   25  C11 UNL     1      -8.882  72.176  26.651  1.00  0.00     0.327 A 
ATOM     26  H7  UNL     1      -7.553  72.200  28.209  1.00  0.00     0.173 HD
HETATM   27  O4  UNL     1      -9.919  71.966  27.341  1.00  0.00    -0.247 OA
HETATM   28  N8  UNL     1      -9.092  72.284  25.311  1.00  0.00    -0.311 N 
ATOM     29  H8  UNL     1     -10.032  72.196  24.924  1.00  0.00     0.170 HD
ENDBRANCH  19  20
ENDBRANCH  17  19
ENDBRANCH  13  15
ENDBRANCH  12  13
ENDBRANCH  11  12
ENDBRANCH   8  11
ENDBRANCH   3   5
TORSDOF 7
ENDMDL
MODEL 3
REMARK VINA RESULT: -6.939676483      3.077      7.395
REMARK  7 active torsions:
REMARK  status: ('A' for Active; 'I' for Inactive)
REMARK    1  A    between atoms: N2_3  and  N3_5 
REMARK       I    between atoms: N3_5  and  C2_7 
REMARK    2  A    between atoms: N5_9  and  C3_11 
REMARK    3  A    between atoms: C3_11  and  C4_12 
REMARK    4  A    between atoms: C4_12  and  C5_13 
REMARK    5  A    between atoms: C5_13  and  C6_15 
REMARK       I    between atoms: C6_15  and  N6_17 
REMARK    6  A    between atoms: N6_17  and  C7_19 
REMARK    7  A    between atoms: C7_19  and  C8_20 
ROOT
HETATM    1  N1  UNL     1     -13.217  69.666  22.717  1.00  0.00    -0.170 NA
HETATM    2  C1  UNL     1     -12.190  69.114  22.665  1.00  0.00     0.198 C 
HETATM    3  N2  UNL     1     -10.954  68.462  22.621  1.00  0.00    -0.234 N 
ATOM      4  H2  UNL     1     -10.908  67.475  22.367  1.00  0.00     0.199 HD
ENDROOT
BRANCH   3   5
HETATM    5  N3  UNL     1      -9.771  69.163  22.928  1.00  0.00    -0.265 N 
HETATM    6  C2  UNL     1      -9.092  69.758  21.826  1.00  0.00     0.203 C 
HETATM    7  N4  UNL     1      -8.744  69.017  20.679  1.00  0.00    -0.062 NA
HETATM    8  N5  UNL     1      -8.800  71.003  21.899  1.00  0.00    -0.363 N 
ATOM      9  H5  UNL     1      -8.315  71.414  21.102  1.00  0.00     0.162 HD
ATOM     10  H3  UNL     1      -9.421  69.239  23.883  1.00  0.00     0.190 HD
BRANCH   8  11
HETATM   11  C3  UNL     1      -9.093  71.867  22.998  1.00  0.00     0.130 C 
BRANCH  11  12
HETATM   12  C4  UNL     1      -9.485  73.257  22.536  1.00  0.00     0.108 C 
BRANCH  12  13
HETATM   13  C5  UNL     1     -10.890  73.285  22.103  1.00  0.00     0.217 C 
HETATM   14  O1  UNL     1     -11.806  73.623  22.921  1.00  0.00    -0.287 OA
BRANCH  13  15
HETATM   15  C6  UNL     1     -11.304  72.938  20.749  1.00  0.00     0.287 C 
HETATM   16  O2  UNL     1     -11.049  73.724  19.805  1.00  0.00    -0.264 OA
HETATM   17  N6  UNL     1     -11.991  71.740  20.444  1.00  0.00    -0.349 N 
ATOM     18  H6  UNL     1     -12.202  71.097  21.207  1.00  0.00     0.163 HD
BRANCH  17  19
HETATM   19  C7  UNL     1     -12.408  71.378  19.114  1.00  0.00     0.180 C 
BRANCH  19  20
HETATM   20  C8  UNL     1     -12.835  69.956  18.995  1.00  0.00     0.036 A 
HETATM   21  C9  UNL     1     -12.118  69.087  18.174  1.00  0.00     0.101 A 
HETATM   22  C10 UNL     1     -12.474  67.760  18.040  1.00  0.00     0.251 A 
HETATM   23  O3  UNL     1     -11.791  67.034  17.289  1.00  0.00    -0.268 OA
HETATM   24  N7  UNL     1     -13.536  67.335  18.729  1.00  0.00    -0.275 N 
HETATM   25  C11 UNL     1     -14.228  68.171  19.520  1.00  0.00     0.327 A 
ATOM     26  H7  UNL     1     -13.826  66.360  18.652  1.00  0.00     0.173 HD
HETATM   27  O4  UNL     1     -15.235  67.799  20.184  1.00  0.00    -0.247 OA
HETATM   28  N8  UNL     1     -13.891  69.481  19.666  1.00  0.00    -0.311 N 
ATOM     29  H8  UNL     1     -14.435  70.092  20.275  1.00  0.00     0.170 HD
ENDBRANCH  19  20
ENDBRANCH  17  19
ENDBRANCH  13  15
ENDBRANCH  12  13
ENDBRANCH  11  12
ENDBRANCH   8  11
ENDBRANCH   3   5
TORSDOF 7
ENDMDL
MODEL 4
REMARK VINA RESULT: -6.902059983      3.901      7.513
REMARK  7 active torsions:
REMARK  status: ('A' for Active; 'I' for Inactive)
REMARK    1  A    between atoms: N2_3  and  N3_5 
REMARK       I    between atoms: N3_5  and  C2_7 
REMARK    2  A    between atoms: N5_9  and  C3_11 
REMARK    3  A    between atoms: C3_11  and  C4_12 
REMARK    4  A    between atoms: C4_12  and  C5_13 
REMARK    5  A    between atoms: C5_13  and  C6_15 
REMARK       I    between atoms: C6_15  and  N6_17 
REMARK    6  A    between atoms: N6_17  and  C7_19 
REMARK    7  A    between atoms: C7_19  and  C8_20 
ROOT
HETATM    1  N1  UNL     1     -12.331  68.072  28.033  1.00  0.00    -0.170 NA
HETATM    2  C1  UNL     1     -11.352  68.520  27.584  1.00  0.00     0.198 C 
HETATM    3  N2  UNL     1     -10.169  69.057  27.065  1.00  0.00    -0.234 N 
ATOM      4  H2  UNL     1      -9.784  68.691  26.194  1.00  0.00     0.199 HD
ENDROOT
BRANCH   3   5
HETATM    5  N3  UNL     1      -9.507  70.099  27.740  1.00  0.00    -0.265 N 
HETATM    6  C2  UNL     1      -8.197  69.806  28.216  1.00  0.00     0.203 C 
HETATM    7  N4  UNL     1      -7.933  68.678  29.019  1.00  0.00    -0.062 NA
HETATM    8  N5  UNL     1      -7.245  70.599  27.892  1.00  0.00    -0.363 N 
ATOM      9  H5  UNL     1      -6.313  70.374  28.241  1.00  0.00     0.162 HD
ATOM     10  H3  UNL     1      -9.939  71.013  27.880  1.00  0.00     0.190 HD
BRANCH   8  11
HETATM   11  C3  UNL     1      -7.372  71.772  27.088  1.00  0.00     0.130 C 
BRANCH  11  12
HETATM   12  C4  UNL     1      -6.028  72.267  26.593  1.00  0.00     0.108 C 
BRANCH  12  13
HETATM   13  C5  UNL     1      -6.200  73.263  25.524  1.00  0.00     0.217 C 
HETATM   14  O1  UNL     1      -5.706  74.430  25.649  1.00  0.00    -0.287 OA
BRANCH  13  15
HETATM   15  C6  UNL     1      -6.927  72.979  24.293  1.00  0.00     0.287 C 
HETATM   16  O2  UNL     1      -6.373  72.306  23.391  1.00  0.00    -0.264 OA
HETATM   17  N6  UNL     1      -8.247  73.433  24.063  1.00  0.00    -0.349 N 
ATOM     18  H6  UNL     1      -8.703  73.981  24.793  1.00  0.00     0.163 HD
BRANCH  17  19
HETATM   19  C7  UNL     1      -8.983  73.163  22.855  1.00  0.00     0.180 C 
BRANCH  19  20
HETATM   20  C8  UNL     1      -9.359  71.731  22.701  1.00  0.00     0.036 A 
HETATM   21  C9  UNL     1     -10.328  71.178  23.537  1.00  0.00     0.101 A 
HETATM   22  C10 UNL     1     -10.712  69.857  23.426  1.00  0.00     0.251 A 
HETATM   23  O3  UNL     1     -11.585  69.423  24.205  1.00  0.00    -0.268 OA
HETATM   24  N7  UNL     1     -10.119  69.122  22.482  1.00  0.00    -0.275 N 
HETATM   25  C11 UNL     1      -9.186  69.652  21.676  1.00  0.00     0.327 A 
ATOM     26  H7  UNL     1     -10.380  68.141  22.373  1.00  0.00     0.173 HD
HETATM   27  O4  UNL     1      -8.607  68.983  20.774  1.00  0.00    -0.247 OA
HETATM   28  N8  UNL     1      -8.795  70.952  21.770  1.00  0.00    -0.311 N 
ATOM     29  H8  UNL     1      -8.084  71.327  21.143  1.00  0.00     0.170 HD
ENDBRANCH  19  20
ENDBRANCH  17  19
ENDBRANCH  13  15
ENDBRANCH  12  13
ENDBRANCH  11  12
ENDBRANCH   8  11
ENDBRANCH   3   5
TORSDOF 7
ENDMDL
MODEL 5
REMARK VINA RESULT: -6.801312914      2.454      3.241
REMARK  7 active torsions:
REMARK  status: ('A' for Active; 'I' for Inactive)
REMARK    1  A    between atoms: N2_3  and  N3_5 
REMARK       I    between atoms: N3_5  and  C2_7 
REMARK    2  A    between atoms: N5_9  and  C3_11 
REMARK    3  A    between atoms: C3_11  and  C4_12 
REMARK    4  A    between atoms: C4_12  and  C5_13 
REMARK    5  A    between atoms: C5_13  and  C6_15 
REMARK       I    between atoms: C6_15  and  N6_17 
REMARK    6  A    between atoms: N6_17  and  C7_19 
REMARK    7  A    between atoms: C7_19  and  C8_20 
ROOT
HETATM    1  N1  UNL     1     -14.611  72.089  18.105  1.00  0.00    -0.170 NA
HETATM    2  C1  UNL     1     -13.967  71.128  17.951  1.00  0.00     0.198 C 
HETATM    3  N2  UNL     1     -13.213  69.964  17.771  1.00  0.00    -0.234 N 
ATOM      4  H2  UNL     1     -12.593  69.880  16.965  1.00  0.00     0.199 HD
ENDROOT
BRANCH   3   5
HETATM    5  N3  UNL     1     -13.306  68.908  18.697  1.00  0.00    -0.265 N 
HETATM    6  C2  UNL     1     -12.279  67.923  18.630  1.00  0.00     0.203 C 
HETATM    7  N4  UNL     1     -11.953  67.271  17.424  1.00  0.00    -0.062 NA
HETATM    8  N5  UNL     1     -11.646  67.637  19.706  1.00  0.00    -0.363 N 
ATOM      9  H5  UNL     1     -10.913  66.930  19.639  1.00  0.00     0.162 HD
ATOM     10  H3  UNL     1     -14.064  68.851  19.377  1.00  0.00     0.190 HD
BRANCH   8  11
HETATM   11  C3  UNL     1     -11.874  68.219  20.989  1.00  0.00     0.130 C 
BRANCH  11  12
HETATM   12  C4  UNL     1     -10.671  68.070  21.900  1.00  0.00     0.108 C 
BRANCH  12  13
HETATM   13  C5  UNL     1      -9.719  69.172  21.690  1.00  0.00     0.217 C 
HETATM   14  O1  UNL     1      -8.748  69.035  20.879  1.00  0.00    -0.287 OA
BRANCH  13  15
HETATM   15  C6  UNL     1      -9.831  70.451  22.382  1.00  0.00     0.287 C 
HETATM   16  O2  UNL     1     -10.682  70.586  23.295  1.00  0.00    -0.264 OA
HETATM   17  N6  UNL     1      -9.015  71.563  22.069  1.00  0.00    -0.349 N 
ATOM     18  H6  UNL     1      -8.322  71.459  21.328  1.00  0.00     0.163 HD
BRANCH  17  19
HETATM   19  C7  UNL     1      -9.108  72.834  22.740  1.00  0.00     0.180 C 
BRANCH  19  20
HETATM   20  C8  UNL     1      -9.878  73.851  21.972  1.00  0.00     0.036 A 
HETATM   21  C9  UNL     1      -9.945  75.163  22.439  1.00  0.00     0.101 A 
HETATM   22  C10 UNL     1     -10.641  76.139  21.757  1.00  0.00     0.251 A 
HETATM   23  O3  UNL     1     -10.662  77.295  22.228  1.00  0.00    -0.268 OA
HETATM   24  N7  UNL     1     -11.253  75.781  20.625  1.00  0.00    -0.275 N 
HETATM   25  C11 UNL     1     -11.191  74.518  20.174  1.00  0.00     0.327 A 
ATOM     26  H7  UNL     1     -11.777  76.479  20.096  1.00  0.00     0.173 HD
HETATM   27  O4  UNL     1     -11.759  74.149  19.108  1.00  0.00    -0.247 OA
HETATM   28  N8  UNL     1     -10.508  73.543  20.833  1.00  0.00    -0.311 N 
ATOM     29  H8  UNL     1     -10.477  72.592  20.465  1.00  0.00     0.170 HD
ENDBRANCH  19  20
ENDBRANCH  17  19
ENDBRANCH  13  15
ENDBRANCH  12  13
ENDBRANCH  11  12
ENDBRANCH   8  11
ENDBRANCH   3   5
TORSDOF 7
ENDMDL
