MODEL 1
REMARK VINA RESULT: -7.477697004      0.000      0.000
REMARK  12 active torsions:
REMARK  status: ('A' for Active; 'I' for Inactive)
REMARK    1  A    between atoms: C3_9  and  C4_10 
REMARK    2  A    between atoms: C4_10  and  C5_15 
REMARK    3  A    between atoms: N4_11  and  O2_13 
REMARK    4  A    between atoms: C6_18  and  N6_19 
REMARK    5  A    between atoms: C7_24  and  N8_25 
REMARK    6  A    between atoms: C8_27  and  O3_28 
REMARK    7  A    between atoms: C8_27  and  C11_33 
REMARK    8  A    between atoms: O3_28  and  C9_29 
REMARK    9  A    between atoms: C9_29  and  C10_30 
REMARK   10  A    between atoms: C10_30  and  O4_31 
REMARK   11  A    between atoms: C12_39  and  N11_40 
REMARK   12  A    between atoms: C13_43  and  O6_44 
ROOT
HETATM    1  C5  UNL     1      14.065  15.591   6.106  1.00  0.00     0.117 A 
HETATM    2  N5  UNL     1      12.795  15.254   6.168  1.00  0.00    -0.187 N 
ATOM      3  H5  UNL     1      12.339  15.347   7.076  1.00  0.00     0.184 HD
HETATM    4  C6  UNL     1      12.038  14.804   5.161  1.00  0.00     0.678 A 
HETATM    5  N7  UNL     1      12.592  14.665   3.948  1.00  0.00    -0.174 N 
ATOM      6  H7  UNL     1      12.029  14.322   3.169  1.00  0.00     0.186 HD
HETATM    7  C7  UNL     1      13.881  14.974   3.752  1.00  0.00     0.159 A 
HETATM    8  C13 UNL     1      14.629  15.438   4.825  1.00  0.00     0.140 A 
ENDROOT
BRANCH   7   9
HETATM    9  N8  UNL     1      14.474  14.826   2.474  1.00  0.00    -0.318 N 
HETATM   10  C8  UNL     1      15.188  13.867   2.057  1.00  0.00     0.177 C 
ATOM     11  H8  UNL     1      14.307  15.583   1.810  1.00  0.00     0.169 HD
BRANCH  10  12
HETATM   12  O3  UNL     1      15.655  13.956   0.756  1.00  0.00    -0.332 OA
BRANCH  12  13
HETATM   13  C9  UNL     1      16.175  15.119   0.186  1.00  0.00     0.203 C 
BRANCH  13  14
HETATM   14  C10 UNL     1      17.423  15.510   0.932  1.00  0.00     0.191 C 
BRANCH  14  15
HETATM   15  O4  UNL     1      17.092  16.491   1.851  1.00  0.00    -0.399 OA
ATOM     16  H4  UNL     1      17.862  16.688   2.370  1.00  0.00     0.209 HD
ENDBRANCH  14  15
ENDBRANCH  13  14
ENDBRANCH  12  13
ENDBRANCH  10  12
BRANCH  10  17
HETATM   17  C11 UNL     1      15.533  12.710   2.853  1.00  0.00     0.152 A 
HETATM   18  N9  UNL     1      14.797  11.558   2.854  1.00  0.00    -0.234 N 
HETATM   19  O5  UNL     1      15.348  10.692   3.662  1.00  0.00    -0.155 OA
ATOM     20  H9  UNL     1      13.950  11.399   2.307  1.00  0.00     0.197 HD
HETATM   21  N10 UNL     1      16.403  11.192   4.201  1.00  0.00    -0.224 N 
HETATM   22  C12 UNL     1      16.566  12.459   3.727  1.00  0.00     0.154 A 
ATOM     23  H10 UNL     1      17.013  10.720   4.869  1.00  0.00     0.198 HD
BRANCH  22  24
HETATM   24  N11 UNL     1      17.522  13.248   4.058  1.00  0.00    -0.382 N 
ATOM     25 2H11 UNL     1      17.489  14.265   3.985  1.00  0.00     0.157 HD
ATOM     26 1H11 UNL     1      18.437  12.996   4.433  1.00  0.00     0.157 HD
ENDBRANCH  22  24
ENDBRANCH  10  17
ENDBRANCH   7   9
BRANCH   8  27
HETATM   27  O6  UNL     1      15.953  15.759   4.636  1.00  0.00    -0.355 OA
ATOM     28  H6  UNL     1      16.403  15.426   3.869  1.00  0.00     0.218 HD
ENDBRANCH   8  27
BRANCH   4  29
HETATM   29  N6  UNL     1      10.784  14.498   5.332  1.00  0.00    -0.234 N 
ATOM     30  H62 UNL     1      10.167  15.156   5.807  1.00  0.00     0.174 HD
ATOM     31  H61 UNL     1      10.400  13.614   5.002  1.00  0.00     0.174 HD
ENDBRANCH   4  29
BRANCH   1  32
HETATM   32  C4  UNL     1      14.851  16.073   7.208  1.00  0.00     0.118 C 
HETATM   33  N4  UNL     1      15.289  15.066   7.986  1.00  0.00    -0.265 N 
ATOM     34  H4  UNL     1      15.020  14.123   7.708  1.00  0.00     0.194 HD
BRANCH  32  35
HETATM   35  C3  UNL     1      15.241  17.372   7.621  1.00  0.00     0.147 A 
HETATM   36  N3  UNL     1      16.167  18.047   6.848  1.00  0.00    -0.290 N 
HETATM   37  N2  UNL     1      16.618  19.240   7.101  1.00  0.00    -0.251 N 
ATOM     38  H3  UNL     1      16.523  17.575   6.017  1.00  0.00     0.187 HD
HETATM   39  C2  UNL     1      16.191  19.907   8.170  1.00  0.00     0.343 A 
ATOM     40  H2  UNL     1      17.302  19.667   6.476  1.00  0.00     0.191 HD
HETATM   41  N1  UNL     1      15.298  19.356   8.989  1.00  0.00    -0.268 N 
HETATM   42  O1  UNL     1      16.595  21.070   8.465  1.00  0.00    -0.245 OA
HETATM   43  C1  UNL     1      14.803  20.050  10.170  1.00  0.00     0.165 C 
HETATM   44  C14 UNL     1      14.826  18.084   8.706  1.00  0.00     0.281 A 
HETATM   45  O7  UNL     1      13.999  17.622   9.501  1.00  0.00    -0.265 OA
ENDBRANCH  32  35
BRANCH  33  46
HETATM   46  O2  UNL     1      16.035  15.174   9.076  1.00  0.00    -0.289 OA
ATOM     47  H2  UNL     1      15.786  15.584   9.896  1.00  0.00     0.244 HD
ENDBRANCH  33  46
ENDBRANCH   1  32
TORSDOF 12
ENDMDL
MODEL 2
REMARK VINA RESULT: -7.347864860      2.567      3.081
REMARK  12 active torsions:
REMARK  status: ('A' for Active; 'I' for Inactive)
REMARK    1  A    between atoms: C3_9  and  C4_10 
REMARK    2  A    between atoms: C4_10  and  C5_15 
REMARK    3  A    between atoms: N4_11  and  O2_13 
REMARK    4  A    between atoms: C6_18  and  N6_19 
REMARK    5  A    between atoms: C7_24  and  N8_25 
REMARK    6  A    between atoms: C8_27  and  O3_28 
REMARK    7  A    between atoms: C8_27  and  C11_33 
REMARK    8  A    between atoms: O3_28  and  C9_29 
REMARK    9  A    between atoms: C9_29  and  C10_30 
REMARK   10  A    between atoms: C10_30  and  O4_31 
REMARK   11  A    between atoms: C12_39  and  N11_40 
REMARK   12  A    between atoms: C13_43  and  O6_44 
ROOT
HETATM    1  C5  UNL     1      13.742  14.372   6.000  1.00  0.00     0.117 A 
HETATM    2  N5  UNL     1      12.698  13.711   5.549  1.00  0.00    -0.187 N 
ATOM      3  H5  UNL     1      12.104  13.262   6.246  1.00  0.00     0.184 HD
HETATM    4  C6  UNL     1      12.335  13.568   4.269  1.00  0.00     0.678 A 
HETATM    5  N7  UNL     1      13.085  14.140   3.316  1.00  0.00    -0.174 N 
ATOM      6  H7  UNL     1      12.822  14.040   2.336  1.00  0.00     0.186 HD
HETATM    7  C7  UNL     1      14.177  14.843   3.645  1.00  0.00     0.159 A 
HETATM    8  C13 UNL     1      14.517  14.966   4.984  1.00  0.00     0.140 A 
ENDROOT
BRANCH   7   9
HETATM    9  N8  UNL     1      14.977  15.447   2.643  1.00  0.00    -0.318 N 
HETATM   10  C8  UNL     1      15.930  14.926   1.993  1.00  0.00     0.177 C 
ATOM     11  H8  UNL     1      14.759  16.418   2.419  1.00  0.00     0.169 HD
BRANCH  10  12
HETATM   12  O3  UNL     1      16.562  15.729   1.059  1.00  0.00    -0.332 OA
BRANCH  12  13
HETATM   13  C9  UNL     1      16.042  16.026  -0.202  1.00  0.00     0.203 C 
BRANCH  13  14
HETATM   14  C10 UNL     1      15.238  17.296  -0.110  1.00  0.00     0.191 C 
BRANCH  14  15
HETATM   15  O4  UNL     1      15.808  18.104   0.859  1.00  0.00    -0.399 OA
ATOM     16  H4  UNL     1      16.573  18.525   0.485  1.00  0.00     0.209 HD
ENDBRANCH  14  15
ENDBRANCH  13  14
ENDBRANCH  12  13
ENDBRANCH  10  12
BRANCH  10  17
HETATM   17  C11 UNL     1      16.383  13.565   2.174  1.00  0.00     0.152 A 
HETATM   18  N9  UNL     1      16.093  12.558   1.296  1.00  0.00    -0.234 N 
HETATM   19  O5  UNL     1      16.633  11.445   1.716  1.00  0.00    -0.155 OA
ATOM     20  H9  UNL     1      15.540  12.661   0.444  1.00  0.00     0.197 HD
HETATM   21  N10 UNL     1      17.265  11.644   2.818  1.00  0.00    -0.224 N 
HETATM   22  C12 UNL     1      17.140  12.960   3.151  1.00  0.00     0.154 A 
ATOM     23  H10 UNL     1      17.773  10.938   3.351  1.00  0.00     0.198 HD
BRANCH  22  24
HETATM   24  N11 UNL     1      17.650  13.503   4.196  1.00  0.00    -0.382 N 
ATOM     25 2H11 UNL     1      18.560  13.264   4.592  1.00  0.00     0.157 HD
ATOM     26 1H11 UNL     1      17.243  14.233   4.781  1.00  0.00     0.157 HD
ENDBRANCH  22  24
ENDBRANCH  10  17
ENDBRANCH   7   9
BRANCH   8  27
HETATM   27  O6  UNL     1      15.637  15.685   5.334  1.00  0.00    -0.355 OA
ATOM     28  H6  UNL     1      15.665  16.615   5.143  1.00  0.00     0.218 HD
ENDBRANCH   8  27
BRANCH   4  29
HETATM   29  N6  UNL     1      11.277  12.890   3.931  1.00  0.00    -0.234 N 
ATOM     30  H62 UNL     1      10.418  12.996   4.471  1.00  0.00     0.174 HD
ATOM     31  H61 UNL     1      11.283  12.250   3.137  1.00  0.00     0.174 HD
ENDBRANCH   4  29
BRANCH   1  32
HETATM   32  C4  UNL     1      14.106  14.508   7.383  1.00  0.00     0.118 C 
HETATM   33  N4  UNL     1      15.320  13.984   7.634  1.00  0.00    -0.265 N 
ATOM     34  H4  UNL     1      15.812  13.571   6.841  1.00  0.00     0.194 HD
BRANCH  32  35
HETATM   35  C3  UNL     1      13.447  15.073   8.505  1.00  0.00     0.147 A 
HETATM   36  N3  UNL     1      13.707  16.395   8.811  1.00  0.00    -0.290 N 
HETATM   37  N2  UNL     1      13.179  17.045   9.805  1.00  0.00    -0.251 N 
ATOM     38  H3  UNL     1      14.361  16.899   8.212  1.00  0.00     0.187 HD
HETATM   39  C2  UNL     1      12.317  16.442  10.621  1.00  0.00     0.343 A 
ATOM     40  H2  UNL     1      13.426  18.023   9.961  1.00  0.00     0.191 HD
HETATM   41  N1  UNL     1      11.990  15.167  10.423  1.00  0.00    -0.268 N 
HETATM   42  O1  UNL     1      11.772  17.025  11.604  1.00  0.00    -0.245 OA
HETATM   43  C1  UNL     1      11.052  14.468  11.290  1.00  0.00     0.165 C 
HETATM   44  C14 UNL     1      12.561  14.487   9.358  1.00  0.00     0.281 A 
HETATM   45  O7  UNL     1      12.222  13.306   9.224  1.00  0.00    -0.265 OA
ENDBRANCH  32  35
BRANCH  33  46
HETATM   46  O2  UNL     1      15.941  13.948   8.803  1.00  0.00    -0.289 OA
ATOM     47  H2  UNL     1      16.874  13.837   8.947  1.00  0.00     0.244 HD
ENDBRANCH  33  46
ENDBRANCH   1  32
TORSDOF 12
ENDMDL
MODEL 3
REMARK VINA RESULT: -7.324368391      2.847      4.881
REMARK  12 active torsions:
REMARK  status: ('A' for Active; 'I' for Inactive)
REMARK    1  A    between atoms: C3_9  and  C4_10 
REMARK    2  A    between atoms: C4_10  and  C5_15 
REMARK    3  A    between atoms: N4_11  and  O2_13 
REMARK    4  A    between atoms: C6_18  and  N6_19 
REMARK    5  A    between atoms: C7_24  and  N8_25 
REMARK    6  A    between atoms: C8_27  and  O3_28 
REMARK    7  A    between atoms: C8_27  and  C11_33 
REMARK    8  A    between atoms: O3_28  and  C9_29 
REMARK    9  A    between atoms: C9_29  and  C10_30 
REMARK   10  A    between atoms: C10_30  and  O4_31 
REMARK   11  A    between atoms: C12_39  and  N11_40 
REMARK   12  A    between atoms: C13_43  and  O6_44 
ROOT
HETATM    1  C5  UNL     1      15.015  18.507   8.808  1.00  0.00     0.117 A 
HETATM    2  N5  UNL     1      13.841  18.515   9.403  1.00  0.00    -0.187 N 
ATOM      3  H5  UNL     1      13.520  19.412   9.770  1.00  0.00     0.184 HD
HETATM    4  C6  UNL     1      13.025  17.469   9.575  1.00  0.00     0.678 A 
HETATM    5  N7  UNL     1      13.404  16.270   9.110  1.00  0.00    -0.174 N 
ATOM      6  H7  UNL     1      12.793  15.462   9.234  1.00  0.00     0.186 HD
HETATM    7  C7  UNL     1      14.580  16.127   8.484  1.00  0.00     0.159 A 
HETATM    8  C13 UNL     1      15.395  17.239   8.327  1.00  0.00     0.140 A 
ENDROOT
BRANCH   7   9
HETATM    9  N8  UNL     1      14.989  14.862   7.993  1.00  0.00    -0.318 N 
HETATM   10  C8  UNL     1      14.869  14.413   6.816  1.00  0.00     0.177 C 
ATOM     11  H8  UNL     1      15.433  14.240   8.669  1.00  0.00     0.169 HD
BRANCH  10  12
HETATM   12  O3  UNL     1      15.352  13.136   6.583  1.00  0.00    -0.332 OA
BRANCH  12  13
HETATM   13  C9  UNL     1      15.464  12.556   5.318  1.00  0.00     0.203 C 
BRANCH  13  14
HETATM   14  C10 UNL     1      14.559  11.354   5.253  1.00  0.00     0.191 C 
BRANCH  14  15
HETATM   15  O4  UNL     1      13.251  11.785   5.386  1.00  0.00    -0.399 OA
ATOM     16  H4  UNL     1      13.106  12.027   6.293  1.00  0.00     0.209 HD
ENDBRANCH  14  15
ENDBRANCH  13  14
ENDBRANCH  12  13
ENDBRANCH  10  12
BRANCH  10  17
HETATM   17  C11 UNL     1      14.267  15.148   5.726  1.00  0.00     0.152 A 
HETATM   18  N9  UNL     1      12.947  15.034   5.389  1.00  0.00    -0.234 N 
HETATM   19  O5  UNL     1      12.690  15.814   4.371  1.00  0.00    -0.155 OA
ATOM     20  H9  UNL     1      12.268  14.435   5.858  1.00  0.00     0.197 HD
HETATM   21  N10 UNL     1      13.754  16.440   4.009  1.00  0.00    -0.224 N 
HETATM   22  C12 UNL     1      14.774  16.059   4.827  1.00  0.00     0.154 A 
ATOM     23  H10 UNL     1      13.821  17.107   3.240  1.00  0.00     0.198 HD
BRANCH  22  24
HETATM   24  N11 UNL     1      15.980  16.490   4.745  1.00  0.00    -0.382 N 
ATOM     25 2H11 UNL     1      16.659  16.193   4.044  1.00  0.00     0.157 HD
ATOM     26 1H11 UNL     1      16.439  17.175   5.346  1.00  0.00     0.157 HD
ENDBRANCH  22  24
ENDBRANCH  10  17
ENDBRANCH   7   9
BRANCH   8  27
HETATM   27  O6  UNL     1      16.605  17.105   7.685  1.00  0.00    -0.355 OA
ATOM     28  H6  UNL     1      17.388  17.439   8.105  1.00  0.00     0.218 HD
ENDBRANCH   8  27
BRANCH   4  29
HETATM   29  N6  UNL     1      11.880  17.589  10.181  1.00  0.00    -0.234 N 
ATOM     30  H62 UNL     1      11.709  18.399  10.777  1.00  0.00     0.174 HD
ATOM     31  H61 UNL     1      11.144  16.891  10.077  1.00  0.00     0.174 HD
ENDBRANCH   4  29
BRANCH   1  32
HETATM   32  C4  UNL     1      15.869  19.650   8.638  1.00  0.00     0.118 C 
HETATM   33  N4  UNL     1      15.981  20.000   7.343  1.00  0.00    -0.265 N 
ATOM     34  H4  UNL     1      15.467  19.433   6.670  1.00  0.00     0.194 HD
BRANCH  32  35
HETATM   35  C3  UNL     1      16.596  20.457   9.549  1.00  0.00     0.147 A 
HETATM   36  N3  UNL     1      17.963  20.563   9.372  1.00  0.00    -0.290 N 
HETATM   37  N2  UNL     1      18.757  21.264  10.125  1.00  0.00    -0.251 N 
ATOM     38  H3  UNL     1      18.379  20.055   8.592  1.00  0.00     0.187 HD
HETATM   39  C2  UNL     1      18.273  21.950  11.158  1.00  0.00     0.343 A 
ATOM     40  H2  UNL     1      19.757  21.288   9.924  1.00  0.00     0.191 HD
HETATM   41  N1  UNL     1      16.969  21.922  11.426  1.00  0.00    -0.268 N 
HETATM   42  O1  UNL     1      18.998  22.649  11.925  1.00  0.00    -0.245 OA
HETATM   43  C1  UNL     1      16.396  22.658  12.546  1.00  0.00     0.165 C 
HETATM   44  C14 UNL     1      16.134  21.171  10.614  1.00  0.00     0.281 A 
HETATM   45  O7  UNL     1      14.934  21.182  10.911  1.00  0.00    -0.265 OA
ENDBRANCH  32  35
BRANCH  33  46
HETATM   46  O2  UNL     1      16.691  21.005   6.854  1.00  0.00    -0.289 OA
ATOM     47  H2  UNL     1      16.835  21.204   5.936  1.00  0.00     0.244 HD
ENDBRANCH  33  46
ENDBRANCH   1  32
TORSDOF 12
ENDMDL
MODEL 4
REMARK VINA RESULT: -7.157195701      2.244      3.671
REMARK  12 active torsions:
REMARK  status: ('A' for Active; 'I' for Inactive)
REMARK    1  A    between atoms: C3_9  and  C4_10 
REMARK    2  A    between atoms: C4_10  and  C5_15 
REMARK    3  A    between atoms: N4_11  and  O2_13 
REMARK    4  A    between atoms: C6_18  and  N6_19 
REMARK    5  A    between atoms: C7_24  and  N8_25 
REMARK    6  A    between atoms: C8_27  and  O3_28 
REMARK    7  A    between atoms: C8_27  and  C11_33 
REMARK    8  A    between atoms: O3_28  and  C9_29 
REMARK    9  A    between atoms: C9_29  and  C10_30 
REMARK   10  A    between atoms: C10_30  and  O4_31 
REMARK   11  A    between atoms: C12_39  and  N11_40 
REMARK   12  A    between atoms: C13_43  and  O6_44 
ROOT
HETATM    1  C5  UNL     1      15.069  16.187   5.894  1.00  0.00     0.117 A 
HETATM    2  N5  UNL     1      15.831  16.474   4.860  1.00  0.00    -0.187 N 
ATOM      3  H5  UNL     1      16.711  16.952   5.058  1.00  0.00     0.184 HD
HETATM    4  C6  UNL     1      15.571  16.203   3.576  1.00  0.00     0.678 A 
HETATM    5  N7  UNL     1      14.428  15.576   3.266  1.00  0.00    -0.174 N 
ATOM      6  H7  UNL     1      14.214  15.363   2.292  1.00  0.00     0.186 HD
HETATM    7  C7  UNL     1      13.563  15.229   4.229  1.00  0.00     0.159 A 
HETATM    8  C13 UNL     1      13.873  15.529   5.548  1.00  0.00     0.140 A 
ENDROOT
BRANCH   7   9
HETATM    9  N8  UNL     1      12.350  14.569   3.909  1.00  0.00    -0.318 N 
HETATM   10  C8  UNL     1      12.184  13.346   3.631  1.00  0.00     0.177 C 
ATOM     11  H8  UNL     1      11.511  15.150   3.902  1.00  0.00     0.169 HD
BRANCH  10  12
HETATM   12  O3  UNL     1      10.889  12.940   3.352  1.00  0.00    -0.332 OA
BRANCH  12  13
HETATM   13  C9  UNL     1       9.798  13.805   3.254  1.00  0.00     0.203 C 
BRANCH  13  14
HETATM   14  C10 UNL     1       8.534  12.988   3.196  1.00  0.00     0.191 C 
BRANCH  14  15
HETATM   15  O4  UNL     1       8.789  11.749   3.758  1.00  0.00    -0.399 OA
ATOM     16  H4  UNL     1       9.451  11.856   4.431  1.00  0.00     0.209 HD
ENDBRANCH  14  15
ENDBRANCH  13  14
ENDBRANCH  12  13
ENDBRANCH  10  12
BRANCH  10  17
HETATM   17  C11 UNL     1      13.252  12.373   3.591  1.00  0.00     0.152 A 
HETATM   18  N9  UNL     1      13.721  11.732   4.704  1.00  0.00    -0.234 N 
HETATM   19  O5  UNL     1      14.681  10.914   4.362  1.00  0.00    -0.155 OA
ATOM     20  H9  UNL     1      13.375  11.871   5.653  1.00  0.00     0.197 HD
HETATM   21  N10 UNL     1      14.882  10.967   3.093  1.00  0.00    -0.224 N 
HETATM   22  C12 UNL     1      14.011  11.868   2.559  1.00  0.00     0.154 A 
ATOM     23  H10 UNL     1      15.575  10.427   2.575  1.00  0.00     0.198 HD
BRANCH  22  24
HETATM   24  N11 UNL     1      13.939  12.169   1.313  1.00  0.00    -0.382 N 
ATOM     25 2H11 UNL     1      13.579  13.051   0.947  1.00  0.00     0.157 HD
ATOM     26 1H11 UNL     1      14.218  11.597   0.517  1.00  0.00     0.157 HD
ENDBRANCH  22  24
ENDBRANCH  10  17
ENDBRANCH   7   9
BRANCH   8  27
HETATM   27  O6  UNL     1      12.993  15.177   6.546  1.00  0.00    -0.355 OA
ATOM     28  H6  UNL     1      12.945  14.268   6.818  1.00  0.00     0.218 HD
ENDBRANCH   8  27
BRANCH   4  29
HETATM   29  N6  UNL     1      16.399  16.533   2.627  1.00  0.00    -0.234 N 
ATOM     30  H62 UNL     1      17.240  17.063   2.856  1.00  0.00     0.174 HD
ATOM     31  H61 UNL     1      16.229  16.275   1.656  1.00  0.00     0.174 HD
ENDBRANCH   4  29
BRANCH   1  32
HETATM   32  C4  UNL     1      15.377  16.492   7.264  1.00  0.00     0.118 C 
HETATM   33  N4  UNL     1      15.408  15.383   8.026  1.00  0.00    -0.265 N 
ATOM     34  H4  UNL     1      15.216  14.498   7.556  1.00  0.00     0.194 HD
BRANCH  32  35
HETATM   35  C3  UNL     1      15.647  17.704   7.947  1.00  0.00     0.147 A 
HETATM   36  N3  UNL     1      16.850  18.337   7.693  1.00  0.00    -0.290 N 
HETATM   37  N2  UNL     1      17.233  19.451   8.242  1.00  0.00    -0.251 N 
ATOM     38  H3  UNL     1      17.483  17.898   7.026  1.00  0.00     0.187 HD
HETATM   39  C2  UNL     1      16.450  20.072   9.121  1.00  0.00     0.343 A 
ATOM     40  H2  UNL     1      18.139  19.851   7.999  1.00  0.00     0.191 HD
HETATM   41  N1  UNL     1      15.266  19.555   9.443  1.00  0.00    -0.268 N 
HETATM   42  O1  UNL     1      16.771  21.158   9.687  1.00  0.00    -0.245 OA
HETATM   43  C1  UNL     1      14.376  20.201  10.399  1.00  0.00     0.165 C 
HETATM   44  C14 UNL     1      14.870  18.367   8.849  1.00  0.00     0.281 A 
HETATM   45  O7  UNL     1      13.763  17.933   9.187  1.00  0.00    -0.265 OA
ENDBRANCH  32  35
BRANCH  33  46
HETATM   46  O2  UNL     1      15.662  15.322   9.324  1.00  0.00    -0.289 OA
ATOM     47  H2  UNL     1      16.291  14.754   9.754  1.00  0.00     0.244 HD
ENDBRANCH  33  46
ENDBRANCH   1  32
TORSDOF 12
ENDMDL
MODEL 5
REMARK VINA RESULT: -7.135362348      3.752      7.603
REMARK  12 active torsions:
REMARK  status: ('A' for Active; 'I' for Inactive)
REMARK    1  A    between atoms: C3_9  and  C4_10 
REMARK    2  A    between atoms: C4_10  and  C5_15 
REMARK    3  A    between atoms: N4_11  and  O2_13 
REMARK    4  A    between atoms: C6_18  and  N6_19 
REMARK    5  A    between atoms: C7_24  and  N8_25 
REMARK    6  A    between atoms: C8_27  and  O3_28 
REMARK    7  A    between atoms: C8_27  and  C11_33 
REMARK    8  A    between atoms: O3_28  and  C9_29 
REMARK    9  A    between atoms: C9_29  and  C10_30 
REMARK   10  A    between atoms: C10_30  and  O4_31 
REMARK   11  A    between atoms: C12_39  and  N11_40 
REMARK   12  A    between atoms: C13_43  and  O6_44 
ROOT
HETATM    1  C5  UNL     1      14.561  16.009   7.138  1.00  0.00     0.117 A 
HETATM    2  N5  UNL     1      14.763  16.119   5.843  1.00  0.00    -0.187 N 
ATOM      3  H5  UNL     1      14.184  15.535   5.238  1.00  0.00     0.184 HD
HETATM    4  C6  UNL     1      15.648  16.919   5.237  1.00  0.00     0.678 A 
HETATM    5  N7  UNL     1      16.431  17.705   5.990  1.00  0.00    -0.174 N 
ATOM      6  H7  UNL     1      17.112  18.320   5.544  1.00  0.00     0.186 HD
HETATM    7  C7  UNL     1      16.324  17.687   7.325  1.00  0.00     0.159 A 
HETATM    8  C13 UNL     1      15.392  16.843   7.912  1.00  0.00     0.140 A 
ENDROOT
BRANCH   7   9
HETATM    9  N8  UNL     1      17.150  18.512   8.129  1.00  0.00    -0.318 N 
HETATM   10  C8  UNL     1      16.891  19.667   8.575  1.00  0.00     0.177 C 
ATOM     11  H8  UNL     1      18.063  18.128   8.377  1.00  0.00     0.169 HD
BRANCH  10  12
HETATM   12  O3  UNL     1      17.871  20.274   9.344  1.00  0.00    -0.332 OA
BRANCH  12  13
HETATM   13  C9  UNL     1      17.615  21.215  10.342  1.00  0.00     0.203 C 
BRANCH  13  14
HETATM   14  C10 UNL     1      18.800  22.138  10.455  1.00  0.00     0.191 C 
BRANCH  14  15
HETATM   15  O4  UNL     1      19.041  22.375  11.798  1.00  0.00    -0.399 OA
ATOM     16  H4  UNL     1      19.908  22.754  11.884  1.00  0.00     0.209 HD
ENDBRANCH  14  15
ENDBRANCH  13  14
ENDBRANCH  12  13
ENDBRANCH  10  12
BRANCH  10  17
HETATM   17  C11 UNL     1      15.653  20.371   8.328  1.00  0.00     0.152 A 
HETATM   18  N9  UNL     1      15.507  21.299   7.335  1.00  0.00    -0.234 N 
HETATM   19  O5  UNL     1      14.286  21.765   7.351  1.00  0.00    -0.155 OA
ATOM     20  H9  UNL     1      16.238  21.584   6.682  1.00  0.00     0.197 HD
HETATM   21  N10 UNL     1      13.608  21.207   8.290  1.00  0.00    -0.224 N 
HETATM   22  C12 UNL     1      14.419  20.322   8.936  1.00  0.00     0.154 A 
ATOM     23  H10 UNL     1      12.630  21.395   8.514  1.00  0.00     0.198 HD
BRANCH  22  24
HETATM   24  N11 UNL     1      14.063  19.592   9.929  1.00  0.00    -0.382 N 
ATOM     25 2H11 UNL     1      14.340  19.752  10.898  1.00  0.00     0.157 HD
ATOM     26 1H11 UNL     1      13.470  18.762   9.912  1.00  0.00     0.157 HD
ENDBRANCH  22  24
ENDBRANCH  10  17
ENDBRANCH   7   9
BRANCH   8  27
HETATM   27  O6  UNL     1      15.273  16.816   9.283  1.00  0.00    -0.355 OA
ATOM     28  H6  UNL     1      16.051  16.932   9.815  1.00  0.00     0.218 HD
ENDBRANCH   8  27
BRANCH   4  29
HETATM   29  N6  UNL     1      15.766  16.949   3.941  1.00  0.00    -0.234 N 
ATOM     30  H62 UNL     1      15.679  16.084   3.408  1.00  0.00     0.174 HD
ATOM     31  H61 UNL     1      15.945  17.819   3.441  1.00  0.00     0.174 HD
ENDBRANCH   4  29
BRANCH   1  32
HETATM   32  C4  UNL     1      13.599  15.140   7.759  1.00  0.00     0.118 C 
HETATM   33  N4  UNL     1      14.150  13.967   8.123  1.00  0.00    -0.265 N 
ATOM     34  H4  UNL     1      15.143  13.846   7.922  1.00  0.00     0.194 HD
BRANCH  32  35
HETATM   35  C3  UNL     1      12.219  15.278   8.051  1.00  0.00     0.147 A 
HETATM   36  N3  UNL     1      11.338  14.403   7.444  1.00  0.00    -0.290 N 
HETATM   37  N2  UNL     1      10.049  14.409   7.616  1.00  0.00    -0.251 N 
ATOM     38  H3  UNL     1      11.727  13.701   6.815  1.00  0.00     0.187 HD
HETATM   39  C2  UNL     1       9.483  15.301   8.424  1.00  0.00     0.343 A 
ATOM     40  H2  UNL     1       9.469  13.726   7.128  1.00  0.00     0.191 HD
HETATM   41  N1  UNL     1      10.233  16.195   9.064  1.00  0.00    -0.268 N 
HETATM   42  O1  UNL     1       8.234  15.353   8.629  1.00  0.00    -0.245 OA
HETATM   43  C1  UNL     1       9.656  17.189   9.959  1.00  0.00     0.165 C 
HETATM   44  C14 UNL     1      11.606  16.176   8.871  1.00  0.00     0.281 A 
HETATM   45  O7  UNL     1      12.252  17.030   9.490  1.00  0.00    -0.265 OA
ENDBRANCH  32  35
BRANCH  33  46
HETATM   46  O2  UNL     1      13.537  12.955   8.716  1.00  0.00    -0.289 OA
ATOM     47  H2  UNL     1      13.884  12.410   9.413  1.00  0.00     0.244 HD
ENDBRANCH  33  46
ENDBRANCH   1  32
TORSDOF 12
ENDMDL
