MODEL 1
REMARK VINA RESULT: -7.493162034      0.000      0.000
REMARK  9 active torsions:
REMARK  status: ('A' for Active; 'I' for Inactive)
REMARK    1  A    between atoms: N1_1  and  C1_4 
REMARK    2  A    between atoms: C2_7  and  C3_8 
REMARK       I    between atoms: C3_8  and  N3_10 
REMARK    3  A    between atoms: N3_10  and  C4_12 
REMARK    4  A    between atoms: C4_12  and  O2_13 
REMARK    5  A    between atoms: C7_20  and  N5_21 
REMARK    6  A    between atoms: C9_23  and  C10_24 
REMARK    7  A    between atoms: C10_24  and  O4_25 
REMARK    8  A    between atoms: C11_31  and  N8_32 
REMARK    9  A    between atoms: N8_32  and  C12_34 
ROOT
HETATM    1  C3  UNL     1      14.060  14.461   6.307  1.00  0.00     0.273 C 
HETATM    2  O1  UNL     1      14.426  15.481   5.711  1.00  0.00    -0.266 OA
HETATM    3  N3  UNL     1      14.185  13.219   5.679  1.00  0.00    -0.320 N 
ATOM      4  H3  UNL     1      13.875  12.397   6.196  1.00  0.00     0.166 HD
ENDROOT
BRANCH   1   5
HETATM    5  C2  UNL     1      13.496  14.585   7.680  1.00  0.00     0.137 A 
HETATM    6  N2  UNL     1      12.293  14.148   7.987  1.00  0.00    -0.330 N 
HETATM    7  C1  UNL     1      11.841  14.286   9.230  1.00  0.00     0.144 A 
ATOM      8  H2  UNL     1      11.711  13.706   7.275  1.00  0.00     0.168 HD
HETATM    9  S1  UNL     1      13.115  15.050  10.032  1.00  0.00    -0.034 SA
HETATM   10  C11 UNL     1      14.220  15.169   8.694  1.00  0.00     0.126 A 
BRANCH   7  11
HETATM   11  N1  UNL     1      10.666  13.904   9.701  1.00  0.00    -0.380 N 
ATOM     12  H12 UNL     1       9.730  14.176   9.397  1.00  0.00     0.158 HD
ATOM     13  H11 UNL     1      10.489  13.257  10.469  1.00  0.00     0.158 HD
ENDBRANCH   7  11
BRANCH  10  14
HETATM   14  N8  UNL     1      15.520  15.740   8.731  1.00  0.00    -0.182 N 
ATOM     15  H8  UNL     1      16.311  15.214   9.099  1.00  0.00     0.185 HD
BRANCH  14  16
HETATM   16  C12 UNL     1      15.694  17.073   8.238  1.00  0.00     0.696 A 
HETATM   17  N9  UNL     1      15.188  18.052   8.882  1.00  0.00    -0.207 N 
HETATM   18  C13 UNL     1      15.269  19.436   8.529  1.00  0.00     0.280 A 
ATOM     19  H9  UNL     1      14.674  17.825   9.734  1.00  0.00     0.179 HD
HETATM   20  N10 UNL     1      16.015  19.607   7.318  1.00  0.00    -0.303 N 
HETATM   21  N11 UNL     1      16.549  18.529   6.644  1.00  0.00    -0.231 N 
ATOM     22  H10 UNL     1      16.154  20.547   6.946  1.00  0.00     0.183 HD
HETATM   23  N12 UNL     1      16.413  17.351   7.051  1.00  0.00    -0.118 N 
ATOM     24  H11 UNL     1      17.073  18.695   5.785  1.00  0.00     0.208 HD
ATOM     25  H12 UNL     1      16.827  16.584   6.522  1.00  0.00     0.207 HD
ENDBRANCH  14  16
ENDBRANCH  10  14
ENDBRANCH   1   5
BRANCH   3  26
HETATM   26  C4  UNL     1      14.718  13.010   4.358  1.00  0.00     0.182 C 
HETATM   27  C5  UNL     1      14.359  11.646   3.873  1.00  0.00     0.186 C 
HETATM   28  N4  UNL     1      15.538  11.175   3.194  1.00  0.00    -0.354 N 
HETATM   29  C6  UNL     1      16.638  11.856   3.753  1.00  0.00     0.247 C 
ATOM     30  H4  UNL     1      15.571  10.480   2.448  1.00  0.00     0.162 HD
HETATM   31  O3  UNL     1      17.826  11.411   3.828  1.00  0.00    -0.271 OA
HETATM   32  C7  UNL     1      16.194  13.186   4.249  1.00  0.00     0.257 C 
BRANCH  26  33
HETATM   33  O2  UNL     1      14.089  13.946   3.518  1.00  0.00    -0.367 OA
ATOM     34  H2  UNL     1      14.168  14.791   3.943  1.00  0.00     0.212 HD
ENDBRANCH  26  33
BRANCH  32  35
HETATM   35  N5  UNL     1      16.534  14.145   3.206  1.00  0.00    -0.268 N 
HETATM   36  C8  UNL     1      17.056  13.757   2.014  1.00  0.00     0.141 A 
HETATM   37  C9  UNL     1      17.274  14.875   1.235  1.00  0.00     0.067 A 
HETATM   38  N6  UNL     1      16.872  15.913   1.989  1.00  0.00    -0.287 N 
HETATM   39  N7  UNL     1      16.433  15.441   3.167  1.00  0.00    -0.240 N 
ATOM     40  H6  UNL     1      16.896  16.895   1.713  1.00  0.00     0.188 HD
ATOM     41  H7  UNL     1      16.069  16.019   3.925  1.00  0.00     0.208 HD
BRANCH  37  42
HETATM   42  C10 UNL     1      17.837  14.863  -0.141  1.00  0.00     0.224 C 
BRANCH  42  43
HETATM   43  O4  UNL     1      18.991  14.106  -0.202  1.00  0.00    -0.395 OA
ATOM     44  H4  UNL     1      18.929  13.438  -0.874  1.00  0.00     0.209 HD
ENDBRANCH  42  43
ENDBRANCH  37  42
ENDBRANCH  32  35
ENDBRANCH   3  26
TORSDOF 9
ENDMDL
MODEL 2
REMARK VINA RESULT: -7.143985872      1.481      1.656
REMARK  9 active torsions:
REMARK  status: ('A' for Active; 'I' for Inactive)
REMARK    1  A    between atoms: N1_1  and  C1_4 
REMARK    2  A    between atoms: C2_7  and  C3_8 
REMARK       I    between atoms: C3_8  and  N3_10 
REMARK    3  A    between atoms: N3_10  and  C4_12 
REMARK    4  A    between atoms: C4_12  and  O2_13 
REMARK    5  A    between atoms: C7_20  and  N5_21 
REMARK    6  A    between atoms: C9_23  and  C10_24 
REMARK    7  A    between atoms: C10_24  and  O4_25 
REMARK    8  A    between atoms: C11_31  and  N8_32 
REMARK    9  A    between atoms: N8_32  and  C12_34 
ROOT
HETATM    1  C3  UNL     1      13.856  15.223   7.008  1.00  0.00     0.273 C 
HETATM    2  O1  UNL     1      14.697  15.904   6.410  1.00  0.00    -0.266 OA
HETATM    3  N3  UNL     1      13.406  14.031   6.434  1.00  0.00    -0.320 N 
ATOM      4  H3  UNL     1      12.713  13.491   6.952  1.00  0.00     0.166 HD
ENDROOT
BRANCH   1   5
HETATM    5  C2  UNL     1      13.345  15.692   8.326  1.00  0.00     0.137 A 
HETATM    6  N2  UNL     1      12.878  14.863   9.235  1.00  0.00    -0.330 N 
HETATM    7  C1  UNL     1      12.435  15.338  10.394  1.00  0.00     0.144 A 
ATOM      8  H2  UNL     1      12.856  13.860   9.050  1.00  0.00     0.168 HD
HETATM    9  S1  UNL     1      12.662  17.006  10.251  1.00  0.00    -0.034 SA
HETATM   10  C11 UNL     1      13.342  17.030   8.650  1.00  0.00     0.126 A 
BRANCH   7  11
HETATM   11  N1  UNL     1      11.938  14.647  11.406  1.00  0.00    -0.380 N 
ATOM     12  H12 UNL     1      11.492  13.729  11.403  1.00  0.00     0.158 HD
ATOM     13  H11 UNL     1      11.914  14.920  12.388  1.00  0.00     0.158 HD
ENDBRANCH   7  11
BRANCH  10  14
HETATM   14  N8  UNL     1      13.759  18.185   7.936  1.00  0.00    -0.182 N 
ATOM     15  H8  UNL     1      13.170  18.591   7.209  1.00  0.00     0.185 HD
BRANCH  14  16
HETATM   16  C12 UNL     1      15.027  18.766   8.259  1.00  0.00     0.696 A 
HETATM   17  N9  UNL     1      15.079  19.742   9.081  1.00  0.00    -0.207 N 
HETATM   18  C13 UNL     1      16.257  20.431   9.509  1.00  0.00     0.280 A 
ATOM     19  H9  UNL     1      14.192  20.062   9.470  1.00  0.00     0.179 HD
HETATM   20  N10 UNL     1      17.423  19.879   8.885  1.00  0.00    -0.303 N 
HETATM   21  N11 UNL     1      17.333  18.824   8.001  1.00  0.00    -0.231 N 
ATOM     22  H10 UNL     1      18.338  20.275   9.099  1.00  0.00     0.183 HD
HETATM   23  N12 UNL     1      16.238  18.295   7.699  1.00  0.00    -0.118 N 
ATOM     24  H11 UNL     1      18.188  18.462   7.579  1.00  0.00     0.208 HD
ATOM     25  H12 UNL     1      16.219  17.516   7.041  1.00  0.00     0.207 HD
ENDBRANCH  14  16
ENDBRANCH  10  14
ENDBRANCH   1   5
BRANCH   3  26
HETATM   26  C4  UNL     1      13.846  13.505   5.168  1.00  0.00     0.182 C 
HETATM   27  C5  UNL     1      12.955  12.387   4.743  1.00  0.00     0.186 C 
HETATM   28  N4  UNL     1      13.842  11.405   4.177  1.00  0.00    -0.354 N 
HETATM   29  C6  UNL     1      15.107  11.598   4.769  1.00  0.00     0.247 C 
ATOM     30  H4  UNL     1      13.602  10.701   3.478  1.00  0.00     0.162 HD
HETATM   31  O3  UNL     1      15.985  10.699   4.952  1.00  0.00    -0.271 OA
HETATM   32  C7  UNL     1      15.258  13.027   5.151  1.00  0.00     0.257 C 
BRANCH  26  33
HETATM   33  O2  UNL     1      13.710  14.545   4.232  1.00  0.00    -0.367 OA
ATOM     34  H2  UNL     1      14.230  15.271   4.553  1.00  0.00     0.212 HD
ENDBRANCH  26  33
BRANCH  32  35
HETATM   35  N5  UNL     1      16.014  13.660   4.078  1.00  0.00    -0.268 N 
HETATM   36  C8  UNL     1      16.270  13.023   2.906  1.00  0.00     0.141 A 
HETATM   37  C9  UNL     1      16.999  13.863   2.090  1.00  0.00     0.067 A 
HETATM   38  N6  UNL     1      17.161  14.992   2.802  1.00  0.00    -0.287 N 
HETATM   39  N7  UNL     1      16.558  14.838   3.991  1.00  0.00    -0.240 N 
ATOM     40  H6  UNL     1      17.659  15.827   2.491  1.00  0.00     0.188 HD
ATOM     41  H7  UNL     1      16.529  15.547   4.724  1.00  0.00     0.208 HD
BRANCH  37  42
HETATM   42  C10 UNL     1      17.474  13.528   0.721  1.00  0.00     0.224 C 
BRANCH  42  43
HETATM   43  O4  UNL     1      18.713  14.085   0.472  1.00  0.00    -0.395 OA
ATOM     44  H4  UNL     1      18.722  14.545  -0.359  1.00  0.00     0.209 HD
ENDBRANCH  42  43
ENDBRANCH  37  42
ENDBRANCH  32  35
ENDBRANCH   3  26
TORSDOF 9
ENDMDL
MODEL 3
REMARK VINA RESULT: -6.964995395      3.397      7.650
REMARK  9 active torsions:
REMARK  status: ('A' for Active; 'I' for Inactive)
REMARK    1  A    between atoms: N1_1  and  C1_4 
REMARK    2  A    between atoms: C2_7  and  C3_8 
REMARK       I    between atoms: C3_8  and  N3_10 
REMARK    3  A    between atoms: N3_10  and  C4_12 
REMARK    4  A    between atoms: C4_12  and  O2_13 
REMARK    5  A    between atoms: C7_20  and  N5_21 
REMARK    6  A    between atoms: C9_23  and  C10_24 
REMARK    7  A    between atoms: C10_24  and  O4_25 
REMARK    8  A    between atoms: C11_31  and  N8_32 
REMARK    9  A    between atoms: N8_32  and  C12_34 
ROOT
HETATM    1  C3  UNL     1      12.568  14.326   5.255  1.00  0.00     0.273 C 
HETATM    2  O1  UNL     1      11.622  14.029   5.995  1.00  0.00    -0.266 OA
HETATM    3  N3  UNL     1      13.648  15.042   5.779  1.00  0.00    -0.320 N 
ATOM      4  H3  UNL     1      14.412  15.273   5.145  1.00  0.00     0.166 HD
ENDROOT
BRANCH   1   5
HETATM    5  C2  UNL     1      12.530  13.912   3.825  1.00  0.00     0.137 A 
HETATM    6  N2  UNL     1      11.707  14.461   2.957  1.00  0.00    -0.330 N 
HETATM    7  C1  UNL     1      11.717  14.051   1.692  1.00  0.00     0.144 A 
ATOM      8  H2  UNL     1      11.066  15.196   3.253  1.00  0.00     0.168 HD
HETATM    9  S1  UNL     1      12.909  12.854   1.673  1.00  0.00    -0.034 SA
HETATM   10  C11 UNL     1      13.365  12.927   3.350  1.00  0.00     0.126 A 
BRANCH   7  11
HETATM   11  N1  UNL     1      10.962  14.493   0.701  1.00  0.00    -0.380 N 
ATOM     12  H12 UNL     1      10.430  15.361   0.633  1.00  0.00     0.158 HD
ATOM     13  H11 UNL     1      10.777  14.030  -0.189  1.00  0.00     0.158 HD
ENDBRANCH   7  11
BRANCH  10  14
HETATM   14  N8  UNL     1      14.359  12.133   3.982  1.00  0.00    -0.182 N 
ATOM     15  H8  UNL     1      14.101  11.317   4.537  1.00  0.00     0.185 HD
BRANCH  14  16
HETATM   16  C12 UNL     1      15.733  12.504   3.822  1.00  0.00     0.696 A 
HETATM   17  N9  UNL     1      16.569  11.642   3.389  1.00  0.00    -0.207 N 
HETATM   18  C13 UNL     1      17.968  11.848   3.173  1.00  0.00     0.280 A 
ATOM     19  H9  UNL     1      16.204  10.713   3.177  1.00  0.00     0.179 HD
HETATM   20  N10 UNL     1      18.341  13.190   3.511  1.00  0.00    -0.303 N 
HETATM   21  N11 UNL     1      17.413  14.098   3.976  1.00  0.00    -0.231 N 
ATOM     22  H10 UNL     1      19.313  13.479   3.405  1.00  0.00     0.183 HD
HETATM   23  N12 UNL     1      16.204  13.802   4.126  1.00  0.00    -0.118 N 
ATOM     24  H11 UNL     1      17.721  15.043   4.206  1.00  0.00     0.208 HD
ATOM     25  H12 UNL     1      15.553  14.507   4.472  1.00  0.00     0.207 HD
ENDBRANCH  14  16
ENDBRANCH  10  14
ENDBRANCH   1   5
BRANCH   3  26
HETATM   26  C4  UNL     1      13.765  15.481   7.146  1.00  0.00     0.182 C 
HETATM   27  C5  UNL     1      14.899  16.441   7.278  1.00  0.00     0.186 C 
HETATM   28  N4  UNL     1      15.531  16.092   8.524  1.00  0.00    -0.354 N 
HETATM   29  C6  UNL     1      15.246  14.734   8.768  1.00  0.00     0.247 C 
ATOM     30  H4  UNL     1      16.082  16.712   9.119  1.00  0.00     0.162 HD
HETATM   31  O3  UNL     1      15.978  13.928   9.423  1.00  0.00    -0.271 OA
HETATM   32  C7  UNL     1      13.946  14.382   8.137  1.00  0.00     0.257 C 
BRANCH  26  33
HETATM   33  O2  UNL     1      12.578  16.171   7.450  1.00  0.00    -0.367 OA
ATOM     34  H2  UNL     1      12.625  16.401   8.370  1.00  0.00     0.212 HD
ENDBRANCH  26  33
BRANCH  32  35
HETATM   35  N5  UNL     1      12.945  14.456   9.193  1.00  0.00    -0.268 N 
HETATM   36  C8  UNL     1      13.228  14.972  10.417  1.00  0.00     0.141 A 
HETATM   37  C9  UNL     1      12.094  14.910  11.201  1.00  0.00     0.067 A 
HETATM   38  N6  UNL     1      11.154  14.354  10.417  1.00  0.00    -0.287 N 
HETATM   39  N7  UNL     1      11.696  14.093   9.218  1.00  0.00    -0.240 N 
ATOM     40  H6  UNL     1      10.189  14.162  10.689  1.00  0.00     0.188 HD
ATOM     41  H7  UNL     1      11.198  13.670   8.434  1.00  0.00     0.208 HD
BRANCH  37  42
HETATM   42  C10 UNL     1      12.000  15.379  12.609  1.00  0.00     0.224 C 
BRANCH  42  43
HETATM   43  O4  UNL     1      10.825  14.955  13.199  1.00  0.00    -0.395 OA
ATOM     44  H4  UNL     1      10.069  15.338  12.772  1.00  0.00     0.209 HD
ENDBRANCH  42  43
ENDBRANCH  37  42
ENDBRANCH  32  35
ENDBRANCH   3  26
TORSDOF 9
ENDMDL
MODEL 4
REMARK VINA RESULT: -6.927018140      2.325      2.987
REMARK  9 active torsions:
REMARK  status: ('A' for Active; 'I' for Inactive)
REMARK    1  A    between atoms: N1_1  and  C1_4 
REMARK    2  A    between atoms: C2_7  and  C3_8 
REMARK       I    between atoms: C3_8  and  N3_10 
REMARK    3  A    between atoms: N3_10  and  C4_12 
REMARK    4  A    between atoms: C4_12  and  O2_13 
REMARK    5  A    between atoms: C7_20  and  N5_21 
REMARK    6  A    between atoms: C9_23  and  C10_24 
REMARK    7  A    between atoms: C10_24  and  O4_25 
REMARK    8  A    between atoms: C11_31  and  N8_32 
REMARK    9  A    between atoms: N8_32  and  C12_34 
ROOT
HETATM    1  C3  UNL     1      13.644  13.794   6.260  1.00  0.00     0.273 C 
HETATM    2  O1  UNL     1      12.826  13.950   5.346  1.00  0.00    -0.266 OA
HETATM    3  N3  UNL     1      14.796  13.037   6.026  1.00  0.00    -0.320 N 
ATOM      4  H3  UNL     1      15.452  12.927   6.798  1.00  0.00     0.166 HD
ENDROOT
BRANCH   1   5
HETATM    5  C2  UNL     1      13.380  14.416   7.587  1.00  0.00     0.137 A 
HETATM    6  N2  UNL     1      12.409  14.006   8.375  1.00  0.00    -0.330 N 
HETATM    7  C1  UNL     1      12.219  14.600   9.549  1.00  0.00     0.144 A 
ATOM      8  H2  UNL     1      11.805  13.237   8.086  1.00  0.00     0.168 HD
HETATM    9  S1  UNL     1      13.424  15.783   9.593  1.00  0.00    -0.034 SA
HETATM   10  C11 UNL     1      14.152  15.459   8.047  1.00  0.00     0.126 A 
BRANCH   7  11
HETATM   11  N1  UNL     1      11.297  14.313  10.452  1.00  0.00    -0.380 N 
ATOM     12  H12 UNL     1      10.821  14.934  11.107  1.00  0.00     0.158 HD
ATOM     13  H11 UNL     1      10.893  13.399  10.653  1.00  0.00     0.158 HD
ENDBRANCH   7  11
BRANCH  10  14
HETATM   14  N8  UNL     1      15.259  16.147   7.483  1.00  0.00    -0.182 N 
ATOM     15  H8  UNL     1      16.130  16.250   8.003  1.00  0.00     0.185 HD
BRANCH  14  16
HETATM   16  C12 UNL     1      15.125  16.693   6.166  1.00  0.00     0.696 A 
HETATM   17  N9  UNL     1      14.120  17.432   5.893  1.00  0.00    -0.207 N 
HETATM   18  C13 UNL     1      13.838  18.052   4.635  1.00  0.00     0.280 A 
ATOM     19  H9  UNL     1      13.452  17.596   6.646  1.00  0.00     0.179 HD
HETATM   20  N10 UNL     1      14.855  17.738   3.675  1.00  0.00    -0.303 N 
HETATM   21  N11 UNL     1      15.928  16.936   4.002  1.00  0.00    -0.231 N 
ATOM     22  H10 UNL     1      14.783  18.115   2.730  1.00  0.00     0.183 HD
HETATM   23  N12 UNL     1      16.072  16.444   5.146  1.00  0.00    -0.118 N 
ATOM     24  H11 UNL     1      16.629  16.736   3.288  1.00  0.00     0.208 HD
ATOM     25  H12 UNL     1      16.883  15.857   5.343  1.00  0.00     0.207 HD
ENDBRANCH  14  16
ENDBRANCH  10  14
ENDBRANCH   1   5
BRANCH   3  26
HETATM   26  C4  UNL     1      15.128  12.402   4.777  1.00  0.00     0.182 C 
HETATM   27  C5  UNL     1      16.224  11.412   4.984  1.00  0.00     0.186 C 
HETATM   28  N4  UNL     1      17.078  11.562   3.834  1.00  0.00    -0.354 N 
HETATM   29  C6  UNL     1      16.900  12.876   3.355  1.00  0.00     0.247 C 
ATOM     30  H4  UNL     1      17.695  10.852   3.440  1.00  0.00     0.162 HD
HETATM   31  O3  UNL     1      17.770  13.563   2.735  1.00  0.00    -0.271 OA
HETATM   32  C7  UNL     1      15.528  13.341   3.690  1.00  0.00     0.257 C 
BRANCH  26  33
HETATM   33  O2  UNL     1      13.983  11.698   4.366  1.00  0.00    -0.367 OA
ATOM     34  H2  UNL     1      13.260  12.314   4.392  1.00  0.00     0.212 HD
ENDBRANCH  26  33
BRANCH  32  35
HETATM   35  N5  UNL     1      14.723  13.133   2.493  1.00  0.00    -0.268 N 
HETATM   36  C8  UNL     1      13.858  14.075   2.036  1.00  0.00     0.141 A 
HETATM   37  C9  UNL     1      13.241  13.601   0.896  1.00  0.00     0.067 A 
HETATM   38  N6  UNL     1      13.759  12.376   0.700  1.00  0.00    -0.287 N 
HETATM   39  N7  UNL     1      14.646  12.125   1.676  1.00  0.00    -0.240 N 
ATOM     40  H6  UNL     1      13.519  11.742  -0.063  1.00  0.00     0.188 HD
ATOM     41  H7  UNL     1      15.185  11.263   1.764  1.00  0.00     0.208 HD
BRANCH  37  42
HETATM   42  C10 UNL     1      12.226  14.341   0.100  1.00  0.00     0.224 C 
BRANCH  42  43
HETATM   43  O4  UNL     1      11.111  13.561  -0.136  1.00  0.00    -0.395 OA
ATOM     44  H4  UNL     1      10.764  13.712  -1.007  1.00  0.00     0.209 HD
ENDBRANCH  42  43
ENDBRANCH  37  42
ENDBRANCH  32  35
ENDBRANCH   3  26
TORSDOF 9
ENDMDL
MODEL 5
REMARK VINA RESULT: -6.922873343      3.663      8.032
REMARK  9 active torsions:
REMARK  status: ('A' for Active; 'I' for Inactive)
REMARK    1  A    between atoms: N1_1  and  C1_4 
REMARK    2  A    between atoms: C2_7  and  C3_8 
REMARK       I    between atoms: C3_8  and  N3_10 
REMARK    3  A    between atoms: N3_10  and  C4_12 
REMARK    4  A    between atoms: C4_12  and  O2_13 
REMARK    5  A    between atoms: C7_20  and  N5_21 
REMARK    6  A    between atoms: C9_23  and  C10_24 
REMARK    7  A    between atoms: C10_24  and  O4_25 
REMARK    8  A    between atoms: C11_31  and  N8_32 
REMARK    9  A    between atoms: N8_32  and  C12_34 
ROOT
HETATM    1  C3  UNL     1      15.371  17.805   5.985  1.00  0.00     0.273 C 
HETATM    2  O1  UNL     1      16.537  17.860   6.393  1.00  0.00    -0.266 OA
HETATM    3  N3  UNL     1      14.359  18.436   6.715  1.00  0.00    -0.320 N 
ATOM      4  H3  UNL     1      13.408  18.373   6.353  1.00  0.00     0.166 HD
ENDROOT
BRANCH   1   5
HETATM    5  C2  UNL     1      15.076  17.068   4.725  1.00  0.00     0.137 A 
HETATM    6  N2  UNL     1      14.892  17.684   3.577  1.00  0.00    -0.330 N 
HETATM    7  C1  UNL     1      14.631  16.974   2.484  1.00  0.00     0.144 A 
ATOM      8  H2  UNL     1      14.949  18.701   3.527  1.00  0.00     0.168 HD
HETATM    9  S1  UNL     1      14.635  15.379   3.038  1.00  0.00    -0.034 SA
HETATM   10  C11 UNL     1      14.982  15.695   4.712  1.00  0.00     0.126 A 
BRANCH   7  11
HETATM   11  N1  UNL     1      14.423  17.434   1.261  1.00  0.00    -0.380 N 
ATOM     12  H12 UNL     1      13.558  17.461   0.722  1.00  0.00     0.158 HD
ATOM     13  H11 UNL     1      15.109  17.850   0.633  1.00  0.00     0.158 HD
ENDBRANCH   7  11
BRANCH  10  14
HETATM   14  N8  UNL     1      15.118  14.720   5.737  1.00  0.00    -0.182 N 
ATOM     15  H8  UNL     1      15.545  13.815   5.543  1.00  0.00     0.185 HD
BRANCH  14  16
HETATM   16  C12 UNL     1      14.643  15.039   7.049  1.00  0.00     0.696 A 
HETATM   17  N9  UNL     1      13.385  15.120   7.258  1.00  0.00    -0.207 N 
HETATM   18  C13 UNL     1      12.749  15.427   8.502  1.00  0.00     0.280 A 
ATOM     19  H9  UNL     1      12.775  14.951   6.459  1.00  0.00     0.179 HD
HETATM   20  N10 UNL     1      13.722  15.640   9.531  1.00  0.00    -0.303 N 
HETATM   21  N11 UNL     1      15.074  15.544   9.273  1.00  0.00    -0.231 N 
ATOM     22  H10 UNL     1      13.409  15.867  10.475  1.00  0.00     0.183 HD
HETATM   23  N12 UNL     1      15.520  15.267   8.135  1.00  0.00    -0.118 N 
ATOM     24  H11 UNL     1      15.733  15.705  10.035  1.00  0.00     0.208 HD
ATOM     25  H12 UNL     1      16.528  15.206   7.990  1.00  0.00     0.207 HD
ENDBRANCH  14  16
ENDBRANCH  10  14
ENDBRANCH   1   5
BRANCH   3  26
HETATM   26  C4  UNL     1      14.557  19.168   7.939  1.00  0.00     0.182 C 
HETATM   27  C5  UNL     1      13.243  19.414   8.604  1.00  0.00     0.186 C 
HETATM   28  N4  UNL     1      13.335  20.758   9.112  1.00  0.00    -0.354 N 
HETATM   29  C6  UNL     1      14.274  21.441   8.311  1.00  0.00     0.247 C 
ATOM     30  H4  UNL     1      12.819  21.144   9.902  1.00  0.00     0.162 HD
HETATM   31  O3  UNL     1      14.279  22.689   8.077  1.00  0.00    -0.271 OA
HETATM   32  C7  UNL     1      15.265  20.469   7.777  1.00  0.00     0.257 C 
BRANCH  26  33
HETATM   33  O2  UNL     1      15.318  18.341   8.784  1.00  0.00    -0.367 OA
ATOM     34  H2  UNL     1      15.832  18.917   9.339  1.00  0.00     0.212 HD
ENDBRANCH  26  33
BRANCH  32  35
HETATM   35  N5  UNL     1      16.427  20.548   8.653  1.00  0.00    -0.268 N 
HETATM   36  C8  UNL     1      16.447  21.346   9.752  1.00  0.00     0.141 A 
HETATM   37  C9  UNL     1      17.668  21.213  10.379  1.00  0.00     0.067 A 
HETATM   38  N6  UNL     1      18.354  20.331   9.632  1.00  0.00    -0.287 N 
HETATM   39  N7  UNL     1      17.581  19.950   8.602  1.00  0.00    -0.240 N 
ATOM     40  H6  UNL     1      19.303  20.005   9.815  1.00  0.00     0.188 HD
ATOM     41  H7  UNL     1      17.859  19.284   7.882  1.00  0.00     0.208 HD
BRANCH  37  42
HETATM   42  C10 UNL     1      18.076  21.925  11.620  1.00  0.00     0.224 C 
BRANCH  42  43
HETATM   43  O4  UNL     1      19.272  22.594  11.441  1.00  0.00    -0.395 OA
ATOM     44  H4  UNL     1      19.193  23.509  11.681  1.00  0.00     0.209 HD
ENDBRANCH  42  43
ENDBRANCH  37  42
ENDBRANCH  32  35
ENDBRANCH   3  26
TORSDOF 9
ENDMDL
