MODEL 1
REMARK VINA RESULT: -7.717491840      0.000      0.000
REMARK  8 active torsions:
REMARK  status: ('A' for Active; 'I' for Inactive)
REMARK    1  A    between atoms: C2_2  and  O1_3 
REMARK    2  A    between atoms: C2_2  and  C3_5 
REMARK    3  A    between atoms: C2_2  and  C4_14 
REMARK    4  A    between atoms: N6_17  and  C5_18 
REMARK    5  A    between atoms: C5_18  and  C6_19 
REMARK       I    between atoms: C6_19  and  N7_21 
REMARK       I    between atoms: N7_21  and  C7_22 
REMARK    6  A    between atoms: N7_21  and  C8_31 
REMARK       I    between atoms: C7_22  and  N8_23 
REMARK       I    between atoms: C7_22  and  N9_27 
REMARK    7  A    between atoms: N8_23  and  O3_25 
REMARK    8  A    between atoms: N9_27  and  O4_29 
ROOT
HETATM    1  C5  UNL     1      12.243  15.894   6.097  1.00  0.00     0.255 C 
ENDROOT
BRANCH   1   2
HETATM    2  N6  UNL     1      12.468  14.855   5.058  1.00  0.00    -0.261 N 
HETATM    3  N5  UNL     1      13.353  13.958   5.182  1.00  0.00    -0.290 N 
HETATM    4  C4  UNL     1      13.502  13.031   4.249  1.00  0.00     0.112 A 
ATOM      5  H5  UNL     1      13.954  13.948   6.005  1.00  0.00     0.187 HD
HETATM    6  S1  UNL     1      12.296  13.486   3.131  1.00  0.00    -0.035 SA
HETATM    7  C10 UNL     1      11.691  14.847   3.968  1.00  0.00     0.161 A 
HETATM    8  N13 UNL     1      10.729  15.683   3.658  1.00  0.00    -0.378 N 
ATOM      9 2H13 UNL     1      10.367  16.496   4.157  1.00  0.00     0.158 HD
ATOM     10 1H13 UNL     1      10.137  15.677   2.827  1.00  0.00     0.158 HD
BRANCH   4  11
HETATM   11  C2  UNL     1      14.447  11.864   4.171  1.00  0.00     0.165 C 
HETATM   12  C1  UNL     1      14.339  11.092   5.484  1.00  0.00     0.062 C 
BRANCH  11  13
HETATM   13  O1  UNL     1      13.988  10.991   3.160  1.00  0.00    -0.375 OA
ATOM     14  H1  UNL     1      14.607  11.065   2.444  1.00  0.00     0.211 HD
ENDBRANCH  11  13
BRANCH  11  15
HETATM   15  C3  UNL     1      15.835  12.269   3.886  1.00  0.00     0.154 A 
HETATM   16  N1  UNL     1      16.587  13.202   4.481  1.00  0.00    -0.269 N 
HETATM   17  N2  UNL     1      17.795  13.242   3.900  1.00  0.00    -0.227 N 
ATOM     18  H1  UNL     1      16.288  13.791   5.258  1.00  0.00     0.190 HD
HETATM   19  N3  UNL     1      17.782  12.347   2.961  1.00  0.00    -0.227 N 
ATOM     20  H2  UNL     1      18.571  13.856   4.147  1.00  0.00     0.210 HD
HETATM   21  N4  UNL     1      16.608  11.736   2.924  1.00  0.00    -0.269 N 
ATOM     22  H3  UNL     1      18.565  12.142   2.340  1.00  0.00     0.210 HD
ATOM     23  H4  UNL     1      16.338  10.992   2.279  1.00  0.00     0.190 HD
ENDBRANCH  11  15
ENDBRANCH   4  11
ENDBRANCH   1   2
BRANCH   1  24
HETATM   24  C6  UNL     1      11.283  15.361   7.091  1.00  0.00     0.264 C 
HETATM   25  O2  UNL     1      10.072  15.494   6.833  1.00  0.00    -0.270 OA
HETATM   26  N7  UNL     1      11.700  14.740   8.266  1.00  0.00    -0.089 N 
HETATM   27  C7  UNL     1      10.735  14.216   9.175  1.00  0.00     0.732 C 
HETATM   28  N8  UNL     1       9.463  14.307   8.877  1.00  0.00    -0.096 N 
HETATM   29  N9  UNL     1      11.092  13.603  10.416  1.00  0.00    -0.096 N 
ATOM     30  H8  UNL     1       9.224  14.755   7.993  1.00  0.00     0.213 HD
ATOM     31  H9  UNL     1      11.918  13.013  10.513  1.00  0.00     0.213 HD
BRANCH  26  32
HETATM   32  C8  UNL     1      13.072  14.569   8.652  1.00  0.00     0.199 A 
HETATM   33  N10 UNL     1      13.861  13.491   8.517  1.00  0.00    -0.221 N 
HETATM   34  O5  UNL     1      15.038  13.758   9.012  1.00  0.00    -0.153 OA
ATOM     35  H10 UNL     1      13.583  12.605   8.095  1.00  0.00     0.198 HD
HETATM   36  N11 UNL     1      15.072  14.956   9.468  1.00  0.00    -0.222 N 
HETATM   37  C9  UNL     1      13.871  15.526   9.277  1.00  0.00     0.168 A 
ATOM     38  H11 UNL     1      15.879  15.402   9.904  1.00  0.00     0.198 HD
HETATM   39  N12 UNL     1      13.525  16.735   9.601  1.00  0.00    -0.381 N 
ATOM     40 2H12 UNL     1      12.613  17.168   9.456  1.00  0.00     0.157 HD
ATOM     41 1H12 UNL     1      14.110  17.435  10.058  1.00  0.00     0.157 HD
ENDBRANCH  26  32
BRANCH  28  42
HETATM   42  O3  UNL     1       8.444  13.861   9.636  1.00  0.00    -0.276 OA
ATOM     43  H3  UNL     1       7.646  13.460   9.312  1.00  0.00     0.245 HD
ENDBRANCH  28  42
BRANCH  29  44
HETATM   44  O4  UNL     1      10.253  13.861  11.462  1.00  0.00    -0.276 OA
ATOM     45  H4  UNL     1      10.179  14.775  11.710  1.00  0.00     0.245 HD
ENDBRANCH  29  44
ENDBRANCH   1  24
TORSDOF 8
ENDMDL
MODEL 2
REMARK VINA RESULT: -7.674927252      3.153      7.167
REMARK  8 active torsions:
REMARK  status: ('A' for Active; 'I' for Inactive)
REMARK    1  A    between atoms: C2_2  and  O1_3 
REMARK    2  A    between atoms: C2_2  and  C3_5 
REMARK    3  A    between atoms: C2_2  and  C4_14 
REMARK    4  A    between atoms: N6_17  and  C5_18 
REMARK    5  A    between atoms: C5_18  and  C6_19 
REMARK       I    between atoms: C6_19  and  N7_21 
REMARK       I    between atoms: N7_21  and  C7_22 
REMARK    6  A    between atoms: N7_21  and  C8_31 
REMARK       I    between atoms: C7_22  and  N8_23 
REMARK       I    between atoms: C7_22  and  N9_27 
REMARK    7  A    between atoms: N8_23  and  O3_25 
REMARK    8  A    between atoms: N9_27  and  O4_29 
ROOT
HETATM    1  C5  UNL     1      13.913  13.254   4.079  1.00  0.00     0.255 C 
ENDROOT
BRANCH   1   2
HETATM    2  N6  UNL     1      13.534  13.751   5.427  1.00  0.00    -0.261 N 
HETATM    3  N5  UNL     1      14.397  14.077   6.294  1.00  0.00    -0.290 N 
HETATM    4  C4  UNL     1      14.020  14.545   7.473  1.00  0.00     0.112 A 
ATOM      5  H5  UNL     1      15.390  13.978   6.083  1.00  0.00     0.187 HD
HETATM    6  S1  UNL     1      12.321  14.510   7.317  1.00  0.00    -0.035 SA
HETATM    7  C10 UNL     1      12.236  13.889   5.728  1.00  0.00     0.161 A 
HETATM    8  N13 UNL     1      11.200  13.608   4.974  1.00  0.00    -0.378 N 
ATOM      9 2H13 UNL     1      11.149  13.238   4.025  1.00  0.00     0.158 HD
ATOM     10 1H13 UNL     1      10.212  13.714   5.203  1.00  0.00     0.158 HD
BRANCH   4  11
HETATM   11  C2  UNL     1      14.836  15.015   8.645  1.00  0.00     0.165 C 
HETATM   12  C1  UNL     1      14.003  14.798   9.906  1.00  0.00     0.062 C 
BRANCH  11  13
HETATM   13  O1  UNL     1      15.962  14.172   8.765  1.00  0.00    -0.375 OA
ATOM     14  H1  UNL     1      15.982  13.642   7.977  1.00  0.00     0.211 HD
ENDBRANCH  11  13
BRANCH  11  15
HETATM   15  C3  UNL     1      15.275  16.416   8.512  1.00  0.00     0.154 A 
HETATM   16  N1  UNL     1      16.362  16.911   7.908  1.00  0.00    -0.269 N 
HETATM   17  N2  UNL     1      16.373  18.247   8.030  1.00  0.00    -0.227 N 
ATOM     18  H1  UNL     1      17.072  16.358   7.428  1.00  0.00     0.190 HD
HETATM   19  N3  UNL     1      15.308  18.564   8.699  1.00  0.00    -0.227 N 
ATOM     20  H2  UNL     1      17.079  18.887   7.667  1.00  0.00     0.210 HD
HETATM   21  N4  UNL     1      14.617  17.478   9.009  1.00  0.00    -0.269 N 
ATOM     22  H3  UNL     1      15.041  19.515   8.951  1.00  0.00     0.210 HD
ATOM     23  H4  UNL     1      13.741  17.451   9.531  1.00  0.00     0.190 HD
ENDBRANCH  11  15
ENDBRANCH   4  11
ENDBRANCH   1   2
BRANCH   1  24
HETATM   24  C6  UNL     1      14.321  14.411   3.251  1.00  0.00     0.264 C 
HETATM   25  O2  UNL     1      13.444  15.261   2.999  1.00  0.00    -0.270 OA
HETATM   26  N7  UNL     1      15.618  14.557   2.766  1.00  0.00    -0.089 N 
HETATM   27  C7  UNL     1      15.967  15.706   1.998  1.00  0.00     0.732 C 
HETATM   28  N8  UNL     1      15.060  16.626   1.781  1.00  0.00    -0.096 N 
HETATM   29  N9  UNL     1      17.267  15.899   1.438  1.00  0.00    -0.096 N 
ATOM     30  H8  UNL     1      14.135  16.471   2.180  1.00  0.00     0.213 HD
ATOM     31  H9  UNL     1      18.117  15.621   1.928  1.00  0.00     0.213 HD
BRANCH  26  32
HETATM   32  C8  UNL     1      16.678  13.614   2.986  1.00  0.00     0.199 A 
HETATM   33  N10 UNL     1      17.629  13.617   3.934  1.00  0.00    -0.221 N 
HETATM   34  O5  UNL     1      18.402  12.580   3.768  1.00  0.00    -0.153 OA
ATOM     35  H10 UNL     1      17.729  14.318   4.669  1.00  0.00     0.198 HD
HETATM   36  N11 UNL     1      18.016  11.890   2.758  1.00  0.00    -0.222 N 
HETATM   37  C9  UNL     1      16.938  12.480   2.217  1.00  0.00     0.168 A 
ATOM     38  H11 UNL     1      18.455  11.033   2.421  1.00  0.00     0.198 HD
HETATM   39  N12 UNL     1      16.263  12.070   1.186  1.00  0.00    -0.381 N 
ATOM     40 2H12 UNL     1      15.444  12.518   0.775  1.00  0.00     0.157 HD
ATOM     41 1H12 UNL     1      16.453  11.241   0.624  1.00  0.00     0.157 HD
ENDBRANCH  26  32
BRANCH  28  42
HETATM   42  O3  UNL     1      15.243  17.760   1.077  1.00  0.00    -0.276 OA
ATOM     43  H3  UNL     1      16.082  18.157   0.875  1.00  0.00     0.245 HD
ENDBRANCH  28  42
BRANCH  29  44
HETATM   44  O4  UNL     1      17.295  16.480   0.203  1.00  0.00    -0.276 OA
ATOM     45  H4  UNL     1      16.949  17.364   0.159  1.00  0.00     0.245 HD
ENDBRANCH  29  44
ENDBRANCH   1  24
TORSDOF 8
ENDMDL
MODEL 3
REMARK VINA RESULT: -7.664378918      1.362      1.795
REMARK  8 active torsions:
REMARK  status: ('A' for Active; 'I' for Inactive)
REMARK    1  A    between atoms: C2_2  and  O1_3 
REMARK    2  A    between atoms: C2_2  and  C3_5 
REMARK    3  A    between atoms: C2_2  and  C4_14 
REMARK    4  A    between atoms: N6_17  and  C5_18 
REMARK    5  A    between atoms: C5_18  and  C6_19 
REMARK       I    between atoms: C6_19  and  N7_21 
REMARK       I    between atoms: N7_21  and  C7_22 
REMARK    6  A    between atoms: N7_21  and  C8_31 
REMARK       I    between atoms: C7_22  and  N8_23 
REMARK       I    between atoms: C7_22  and  N9_27 
REMARK    7  A    between atoms: N8_23  and  O3_25 
REMARK    8  A    between atoms: N9_27  and  O4_29 
ROOT
HETATM    1  C5  UNL     1      11.703  16.012   6.498  1.00  0.00     0.255 C 
ENDROOT
BRANCH   1   2
HETATM    2  N6  UNL     1      11.933  14.989   5.444  1.00  0.00    -0.261 N 
HETATM    3  N5  UNL     1      12.964  14.254   5.430  1.00  0.00    -0.290 N 
HETATM    4  C4  UNL     1      13.118  13.333   4.493  1.00  0.00     0.112 A 
ATOM      5  H5  UNL     1      13.680  14.372   6.147  1.00  0.00     0.187 HD
HETATM    6  S1  UNL     1      11.691  13.545   3.581  1.00  0.00    -0.035 SA
HETATM    7  C10 UNL     1      11.006  14.816   4.493  1.00  0.00     0.161 A 
HETATM    8  N13 UNL     1       9.881  15.472   4.336  1.00  0.00    -0.378 N 
ATOM      9 2H13 UNL     1       9.472  16.230   4.881  1.00  0.00     0.158 HD
ATOM     10 1H13 UNL     1       9.175  15.340   3.611  1.00  0.00     0.158 HD
BRANCH   4  11
HETATM   11  C2  UNL     1      14.221  12.335   4.273  1.00  0.00     0.165 C 
HETATM   12  C1  UNL     1      14.210  11.365   5.452  1.00  0.00     0.062 C 
BRANCH  11  13
HETATM   13  O1  UNL     1      13.902  11.570   3.129  1.00  0.00    -0.375 OA
ATOM     14  H1  UNL     1      14.150  12.098   2.379  1.00  0.00     0.211 HD
ENDBRANCH  11  13
BRANCH  11  15
HETATM   15  C3  UNL     1      15.540  12.969   4.096  1.00  0.00     0.154 A 
HETATM   16  N1  UNL     1      15.871  14.056   3.390  1.00  0.00    -0.269 N 
HETATM   17  N2  UNL     1      17.190  14.278   3.502  1.00  0.00    -0.227 N 
ATOM     18  H1  UNL     1      15.222  14.627   2.849  1.00  0.00     0.190 HD
HETATM   19  N3  UNL     1      17.657  13.340   4.266  1.00  0.00    -0.227 N 
ATOM     20  H2  UNL     1      17.719  15.036   3.071  1.00  0.00     0.210 HD
HETATM   21  N4  UNL     1      16.684  12.527   4.646  1.00  0.00    -0.269 N 
ATOM     22  H3  UNL     1      18.636  13.242   4.535  1.00  0.00     0.210 HD
ATOM     23  H4  UNL     1      16.785  11.710   5.249  1.00  0.00     0.190 HD
ENDBRANCH  11  15
ENDBRANCH   4  11
ENDBRANCH   1   2
BRANCH   1  24
HETATM   24  C6  UNL     1      11.469  15.315   7.783  1.00  0.00     0.264 C 
HETATM   25  O2  UNL     1      10.377  14.730   7.917  1.00  0.00    -0.270 OA
HETATM   26  N7  UNL     1      12.414  15.307   8.806  1.00  0.00    -0.089 N 
HETATM   27  C7  UNL     1      12.152  14.595  10.013  1.00  0.00     0.732 C 
HETATM   28  N8  UNL     1      11.028  13.934  10.131  1.00  0.00    -0.096 N 
HETATM   29  N9  UNL     1      13.060  14.578  11.116  1.00  0.00    -0.096 N 
ATOM     30  H8  UNL     1      10.386  13.962   9.339  1.00  0.00     0.213 HD
ATOM     31  H9  UNL     1      14.071  14.549  10.988  1.00  0.00     0.213 HD
BRANCH  26  32
HETATM   32  C8  UNL     1      13.683  15.976   8.745  1.00  0.00     0.199 A 
HETATM   33  N10 UNL     1      13.985  17.246   9.060  1.00  0.00    -0.221 N 
HETATM   34  O5  UNL     1      15.257  17.448   8.849  1.00  0.00    -0.153 OA
ATOM     35  H10 UNL     1      13.326  17.941   9.410  1.00  0.00     0.198 HD
HETATM   36  N11 UNL     1      15.813  16.380   8.408  1.00  0.00    -0.222 N 
HETATM   37  C9  UNL     1      14.885  15.414   8.318  1.00  0.00     0.168 A 
ATOM     38  H11 UNL     1      16.800  16.280   8.167  1.00  0.00     0.198 HD
HETATM   39  N12 UNL     1      15.072  14.192   7.919  1.00  0.00    -0.381 N 
ATOM     40 2H12 UNL     1      14.367  13.458   7.850  1.00  0.00     0.157 HD
ATOM     41 1H12 UNL     1      15.951  13.780   7.606  1.00  0.00     0.157 HD
ENDBRANCH  26  32
BRANCH  28  42
HETATM   42  O3  UNL     1      10.645  13.220  11.207  1.00  0.00    -0.276 OA
ATOM     43  H3  UNL     1       9.832  12.735  11.290  1.00  0.00     0.245 HD
ENDBRANCH  28  42
BRANCH  29  44
HETATM   44  O4  UNL     1      12.483  14.604  12.353  1.00  0.00    -0.276 OA
ATOM     45  H4  UNL     1      12.969  15.072  13.021  1.00  0.00     0.245 HD
ENDBRANCH  29  44
ENDBRANCH   1  24
TORSDOF 8
ENDMDL
MODEL 4
REMARK VINA RESULT: -7.663231756      3.226      7.132
REMARK  8 active torsions:
REMARK  status: ('A' for Active; 'I' for Inactive)
REMARK    1  A    between atoms: C2_2  and  O1_3 
REMARK    2  A    between atoms: C2_2  and  C3_5 
REMARK    3  A    between atoms: C2_2  and  C4_14 
REMARK    4  A    between atoms: N6_17  and  C5_18 
REMARK    5  A    between atoms: C5_18  and  C6_19 
REMARK       I    between atoms: C6_19  and  N7_21 
REMARK       I    between atoms: N7_21  and  C7_22 
REMARK    6  A    between atoms: N7_21  and  C8_31 
REMARK       I    between atoms: C7_22  and  N8_23 
REMARK       I    between atoms: C7_22  and  N9_27 
REMARK    7  A    between atoms: N8_23  and  O3_25 
REMARK    8  A    between atoms: N9_27  and  O4_29 
ROOT
HETATM    1  C5  UNL     1      13.991  11.517   4.985  1.00  0.00     0.255 C 
ENDROOT
BRANCH   1   2
HETATM    2  N6  UNL     1      13.643  12.764   5.715  1.00  0.00    -0.261 N 
HETATM    3  N5  UNL     1      14.434  13.305   6.541  1.00  0.00    -0.290 N 
HETATM    4  C4  UNL     1      14.100  14.433   7.149  1.00  0.00     0.112 A 
ATOM      5  H5  UNL     1      15.334  12.870   6.741  1.00  0.00     0.187 HD
HETATM    6  S1  UNL     1      12.555  14.723   6.486  1.00  0.00    -0.035 SA
HETATM    7  C10 UNL     1      12.466  13.353   5.469  1.00  0.00     0.161 A 
HETATM    8  N13 UNL     1      11.518  12.952   4.656  1.00  0.00    -0.378 N 
ATOM      9 2H13 UNL     1      11.465  12.134   4.048  1.00  0.00     0.158 HD
ATOM     10 1H13 UNL     1      10.621  13.401   4.469  1.00  0.00     0.158 HD
BRANCH   4  11
HETATM   11  C2  UNL     1      14.859  15.273   8.138  1.00  0.00     0.165 C 
HETATM   12  C1  UNL     1      13.861  15.780   9.177  1.00  0.00     0.062 C 
BRANCH  11  13
HETATM   13  O1  UNL     1      15.759  14.433   8.831  1.00  0.00    -0.375 OA
ATOM     14  H1  UNL     1      16.520  14.965   9.029  1.00  0.00     0.211 HD
ENDBRANCH  11  13
BRANCH  11  15
HETATM   15  C3  UNL     1      15.599  16.378   7.503  1.00  0.00     0.154 A 
HETATM   16  N1  UNL     1      16.280  17.381   8.070  1.00  0.00    -0.269 N 
HETATM   17  N2  UNL     1      16.798  18.167   7.115  1.00  0.00    -0.227 N 
ATOM     18  H1  UNL     1      16.388  17.525   9.074  1.00  0.00     0.190 HD
HETATM   19  N3  UNL     1      16.439  17.653   5.980  1.00  0.00    -0.227 N 
ATOM     20  H2  UNL     1      17.363  19.004   7.254  1.00  0.00     0.210 HD
HETATM   21  N4  UNL     1      15.710  16.565   6.176  1.00  0.00    -0.269 N 
ATOM     22  H3  UNL     1      16.683  18.032   5.065  1.00  0.00     0.210 HD
ATOM     23  H4  UNL     1      15.304  15.974   5.450  1.00  0.00     0.190 HD
ENDBRANCH  11  15
ENDBRANCH   4  11
ENDBRANCH   1   2
BRANCH   1  24
HETATM   24  C6  UNL     1      15.352  11.669   4.421  1.00  0.00     0.264 C 
HETATM   25  O2  UNL     1      16.300  11.261   5.118  1.00  0.00    -0.270 OA
HETATM   26  N7  UNL     1      15.577  12.243   3.172  1.00  0.00    -0.089 N 
HETATM   27  C7  UNL     1      16.905  12.338   2.661  1.00  0.00     0.732 C 
HETATM   28  N8  UNL     1      17.896  11.858   3.369  1.00  0.00    -0.096 N 
HETATM   29  N9  UNL     1      17.211  12.950   1.406  1.00  0.00    -0.096 N 
ATOM     30  H8  UNL     1      17.663  11.432   4.267  1.00  0.00     0.213 HD
ATOM     31  H9  UNL     1      16.604  12.855   0.593  1.00  0.00     0.213 HD
BRANCH  26  32
HETATM   32  C8  UNL     1      14.547  12.763   2.318  1.00  0.00     0.199 A 
HETATM   33  N10 UNL     1      13.826  12.128   1.380  1.00  0.00    -0.221 N 
HETATM   34  O5  UNL     1      13.001  12.974   0.828  1.00  0.00    -0.153 OA
ATOM     35  H10 UNL     1      13.910  11.140   1.137  1.00  0.00     0.198 HD
HETATM   36  N11 UNL     1      13.137  14.138   1.350  1.00  0.00    -0.222 N 
HETATM   37  C9  UNL     1      14.091  14.080   2.294  1.00  0.00     0.168 A 
ATOM     38  H11 UNL     1      12.607  14.970   1.092  1.00  0.00     0.198 HD
HETATM   39  N12 UNL     1      14.502  15.058   3.043  1.00  0.00    -0.381 N 
ATOM     40 2H12 UNL     1      15.227  15.014   3.760  1.00  0.00     0.157 HD
ATOM     41 1H12 UNL     1      14.169  16.022   3.025  1.00  0.00     0.157 HD
ENDBRANCH  26  32
BRANCH  28  42
HETATM   42  O3  UNL     1      19.196  11.877   3.018  1.00  0.00    -0.276 OA
ATOM     43  H3  UNL     1      19.652  11.193   2.541  1.00  0.00     0.245 HD
ENDBRANCH  28  42
BRANCH  29  44
HETATM   44  O4  UNL     1      18.370  13.670   1.371  1.00  0.00    -0.276 OA
ATOM     45  H4  UNL     1      18.369  14.418   0.785  1.00  0.00     0.245 HD
ENDBRANCH  29  44
ENDBRANCH   1  24
TORSDOF 8
ENDMDL
MODEL 5
REMARK VINA RESULT: -7.632148584      3.104      6.848
REMARK  8 active torsions:
REMARK  status: ('A' for Active; 'I' for Inactive)
REMARK    1  A    between atoms: C2_2  and  O1_3 
REMARK    2  A    between atoms: C2_2  and  C3_5 
REMARK    3  A    between atoms: C2_2  and  C4_14 
REMARK    4  A    between atoms: N6_17  and  C5_18 
REMARK    5  A    between atoms: C5_18  and  C6_19 
REMARK       I    between atoms: C6_19  and  N7_21 
REMARK       I    between atoms: N7_21  and  C7_22 
REMARK    6  A    between atoms: N7_21  and  C8_31 
REMARK       I    between atoms: C7_22  and  N8_23 
REMARK       I    between atoms: C7_22  and  N9_27 
REMARK    7  A    between atoms: N8_23  and  O3_25 
REMARK    8  A    between atoms: N9_27  and  O4_29 
ROOT
HETATM    1  C5  UNL     1      12.859  14.344   3.860  1.00  0.00     0.255 C 
ENDROOT
BRANCH   1   2
HETATM    2  N6  UNL     1      12.790  14.856   5.253  1.00  0.00    -0.261 N 
HETATM    3  N5  UNL     1      13.820  14.975   5.980  1.00  0.00    -0.290 N 
HETATM    4  C4  UNL     1      13.723  15.465   7.206  1.00  0.00     0.112 A 
ATOM      5  H5  UNL     1      14.731  14.693   5.619  1.00  0.00     0.187 HD
HETATM    6  S1  UNL     1      12.046  15.767   7.311  1.00  0.00    -0.035 SA
HETATM    7  C10 UNL     1      11.605  15.233   5.750  1.00  0.00     0.161 A 
HETATM    8  N13 UNL     1      10.433  15.187   5.161  1.00  0.00    -0.378 N 
ATOM      9 2H13 UNL     1      10.170  14.868   4.229  1.00  0.00     0.158 HD
ATOM     10 1H13 UNL     1       9.530  15.474   5.540  1.00  0.00     0.158 HD
BRANCH   4  11
HETATM   11  C2  UNL     1      14.780  15.724   8.243  1.00  0.00     0.165 C 
HETATM   12  C1  UNL     1      14.120  15.614   9.615  1.00  0.00     0.062 C 
BRANCH  11  13
HETATM   13  O1  UNL     1      15.729  14.680   8.175  1.00  0.00    -0.375 OA
ATOM     14  H1  UNL     1      15.236  13.869   8.229  1.00  0.00     0.211 HD
ENDBRANCH  11  13
BRANCH  11  15
HETATM   15  C3  UNL     1      15.455  17.022   8.060  1.00  0.00     0.154 A 
HETATM   16  N1  UNL     1      16.397  17.372   7.177  1.00  0.00    -0.269 N 
HETATM   17  N2  UNL     1      16.733  18.657   7.367  1.00  0.00    -0.227 N 
ATOM     18  H1  UNL     1      16.798  16.757   6.469  1.00  0.00     0.190 HD
HETATM   19  N3  UNL     1      16.007  19.086   8.352  1.00  0.00    -0.227 N 
ATOM     20  H2  UNL     1      17.424  19.191   6.839  1.00  0.00     0.210 HD
HETATM   21  N4  UNL     1      15.218  18.121   8.798  1.00  0.00    -0.269 N 
ATOM     22  H3  UNL     1      16.038  20.033   8.729  1.00  0.00     0.210 HD
ATOM     23  H4  UNL     1      14.550  18.197   9.565  1.00  0.00     0.190 HD
ENDBRANCH  11  15
ENDBRANCH   4  11
ENDBRANCH   1   2
BRANCH   1  24
HETATM   24  C6  UNL     1      14.095  14.862   3.231  1.00  0.00     0.264 C 
HETATM   25  O2  UNL     1      14.082  16.050   2.858  1.00  0.00    -0.270 OA
HETATM   26  N7  UNL     1      15.226  14.069   3.055  1.00  0.00    -0.089 N 
HETATM   27  C7  UNL     1      16.402  14.625   2.472  1.00  0.00     0.732 C 
HETATM   28  N8  UNL     1      16.407  15.890   2.131  1.00  0.00    -0.096 N 
HETATM   29  N9  UNL     1      17.583  13.859   2.226  1.00  0.00    -0.096 N 
ATOM     30  H8  UNL     1      15.554  16.422   2.304  1.00  0.00     0.213 HD
ATOM     31  H9  UNL     1      17.904  13.135   2.868  1.00  0.00     0.213 HD
BRANCH  26  32
HETATM   32  C8  UNL     1      15.316  12.686   3.430  1.00  0.00     0.199 A 
HETATM   33  N10 UNL     1      14.962  11.595   2.732  1.00  0.00    -0.221 N 
HETATM   34  O5  UNL     1      15.202  10.532   3.449  1.00  0.00    -0.153 OA
ATOM     35  H10 UNL     1      14.569  11.598   1.791  1.00  0.00     0.198 HD
HETATM   36  N11 UNL     1      15.695  10.860   4.586  1.00  0.00    -0.222 N 
HETATM   37  C9  UNL     1      15.795  12.198   4.645  1.00  0.00     0.168 A 
ATOM     38  H11 UNL     1      15.968  10.211   5.325  1.00  0.00     0.198 HD
HETATM   39  N12 UNL     1      16.256  12.899   5.637  1.00  0.00    -0.381 N 
ATOM     40 2H12 UNL     1      16.332  13.915   5.681  1.00  0.00     0.157 HD
ATOM     41 1H12 UNL     1      16.607  12.542   6.525  1.00  0.00     0.157 HD
ENDBRANCH  26  32
BRANCH  28  42
HETATM   42  O3  UNL     1      17.439  16.549   1.571  1.00  0.00    -0.276 OA
ATOM     43  H3  UNL     1      18.319  16.605   1.926  1.00  0.00     0.245 HD
ENDBRANCH  28  42
BRANCH  29  44
HETATM   44  O4  UNL     1      18.251  14.161   1.074  1.00  0.00    -0.276 OA
ATOM     45  H4  UNL     1      17.792  14.738   0.475  1.00  0.00     0.245 HD
ENDBRANCH  29  44
ENDBRANCH   1  24
TORSDOF 8
ENDMDL
