MODEL 1
REMARK VINA RESULT: -7.877328561      0.000      0.000
REMARK  10 active torsions:
REMARK  status: ('A' for Active; 'I' for Inactive)
REMARK    1  A    between atoms: C2_2  and  N1_3 
REMARK    2  A    between atoms: C2_2  and  C14_42 
REMARK    3  A    between atoms: N1_3  and  C3_5 
REMARK    4  A    between atoms: C3_5  and  C4_6 
REMARK    5  A    between atoms: C3_5  and  C8_20 
REMARK       I    between atoms: C4_6  and  N2_8 
REMARK    6  A    between atoms: N7_22  and  C10_23 
REMARK    7  A    between atoms: C12_28  and  N10_29 
REMARK    8  A    between atoms: C13_34  and  N12_35 
REMARK    9  A    between atoms: C14_42  and  N15_43 
REMARK   10  A    between atoms: C14_42  and  O2_47 
ROOT
HETATM    1  C3  UNL     1      14.535  19.205  12.751  1.00  0.00     0.229 C 
ENDROOT
BRANCH   1   2
HETATM    2  N1  UNL     1      13.517  19.881  13.462  1.00  0.00    -0.375 N 
ATOM      3  H1  UNL     1      12.566  19.722  13.129  1.00  0.00     0.160 HD
BRANCH   2   4
HETATM    4  C2  UNL     1      13.625  20.651  14.448  1.00  0.00     0.035 C 
HETATM    5  C1  UNL     1      12.429  21.404  14.902  1.00  0.00     0.067 C 
BRANCH   4   6
HETATM    6  C14 UNL     1      14.911  20.809  15.146  1.00  0.00     0.362 C 
BRANCH   6   7
HETATM    7  N15 UNL     1      14.718  21.119  16.563  1.00  0.00    -0.048 N 
ATOM      8 3H15 UNL     1      13.738  21.035  16.833  1.00  0.00     0.277 HD
ATOM      9 2H15 UNL     1      15.110  20.392  17.161  1.00  0.00     0.277 HD
ATOM     10 1H15 UNL     1      15.093  22.038  16.799  1.00  0.00     0.277 HD
ENDBRANCH   6   7
BRANCH   6  11
HETATM   11  O2  UNL     1      15.584  21.886  14.571  1.00  0.00    -0.366 OA
ATOM     12  H2  UNL     1      15.818  22.490  15.266  1.00  0.00     0.212 HD
ENDBRANCH   6  11
ENDBRANCH   4   6
ENDBRANCH   2   4
ENDBRANCH   1   2
BRANCH   1  13
HETATM   13  C4  UNL     1      14.809  19.927  11.498  1.00  0.00     0.273 C 
HETATM   14  O1  UNL     1      13.942  19.969  10.604  1.00  0.00    -0.268 OA
HETATM   15  N2  UNL     1      16.055  20.576  11.298  1.00  0.00    -0.202 N 
HETATM   16  N3  UNL     1      17.087  20.644  12.122  1.00  0.00    -0.231 N 
HETATM   17  C7  UNL     1      16.424  21.269  10.191  1.00  0.00     0.124 A 
HETATM   18  N4  UNL     1      18.075  21.336  11.593  1.00  0.00    -0.267 N 
ATOM     19  H3  UNL     1      17.115  20.216  13.047  1.00  0.00     0.209 HD
HETATM   20  C5  UNL     1      17.697  21.746  10.378  1.00  0.00     0.166 A 
ATOM     21  H4  UNL     1      18.975  21.525  12.035  1.00  0.00     0.190 HD
HETATM   22  N5  UNL     1      18.090  22.443   9.283  1.00  0.00    -0.283 N 
HETATM   23  N6  UNL     1      17.088  22.395   8.448  1.00  0.00    -0.308 N 
ATOM     24  H5  UNL     1      18.986  22.910   9.141  1.00  0.00     0.188 HD
HETATM   25  C6  UNL     1      16.051  21.703   8.931  1.00  0.00     0.142 A 
ATOM     26  H6  UNL     1      17.095  22.837   7.528  1.00  0.00     0.186 HD
ENDBRANCH   1  13
BRANCH   1  27
HETATM   27  C8  UNL     1      14.069  17.818  12.468  1.00  0.00     0.076 A 
HETATM   28  C9  UNL     1      12.978  17.366  11.761  1.00  0.00     0.147 A 
HETATM   29  N7  UNL     1      12.970  16.006  11.778  1.00  0.00    -0.244 N 
HETATM   30  N13 UNL     1      14.038  15.670  12.481  1.00  0.00    -0.236 N 
HETATM   31  N14 UNL     1      14.700  16.724  12.898  1.00  0.00    -0.286 N 
ATOM     32  H13 UNL     1      14.314  14.707  12.676  1.00  0.00     0.209 HD
ATOM     33  H14 UNL     1      15.554  16.709  13.456  1.00  0.00     0.188 HD
BRANCH  29  34
HETATM   34  C10 UNL     1      12.006  15.151  11.161  1.00  0.00     0.142 A 
HETATM   35  C11 UNL     1      10.917  14.748  11.909  1.00  0.00     0.164 A 
HETATM   36  N8  UNL     1      10.771  15.180  13.254  1.00  0.00    -0.080 NA
HETATM   37  N9  UNL     1       9.960  13.935  11.386  1.00  0.00    -0.177 N 
HETATM   38  C12 UNL     1      10.068  13.509  10.120  1.00  0.00     0.678 A 
ATOM     39  H9  UNL     1       9.164  13.651  11.956  1.00  0.00     0.185 HD
HETATM   40  N11 UNL     1      11.135  13.897   9.368  1.00  0.00    -0.175 N 
HETATM   41  C13 UNL     1      12.092  14.705   9.876  1.00  0.00     0.147 A 
ATOM     42  H11 UNL     1      11.214  13.573   8.405  1.00  0.00     0.186 HD
BRANCH  38  43
HETATM   43  N10 UNL     1       9.158  12.741   9.637  1.00  0.00    -0.234 N 
ATOM     44 2H10 UNL     1       8.255  12.634  10.100  1.00  0.00     0.174 HD
ATOM     45 1H10 UNL     1       9.344  12.229   8.775  1.00  0.00     0.174 HD
ENDBRANCH  38  43
BRANCH  41  46
HETATM   46  N12 UNL     1      13.101  15.070   9.166  1.00  0.00    -0.383 N 
ATOM     47 2H12 UNL     1      13.675  15.870   9.435  1.00  0.00     0.157 HD
ATOM     48 1H12 UNL     1      13.318  14.542   8.321  1.00  0.00     0.157 HD
ENDBRANCH  41  46
ENDBRANCH  29  34
ENDBRANCH   1  27
TORSDOF 10
ENDMDL
MODEL 2
REMARK VINA RESULT: -7.843439628      5.802      9.217
REMARK  10 active torsions:
REMARK  status: ('A' for Active; 'I' for Inactive)
REMARK    1  A    between atoms: C2_2  and  N1_3 
REMARK    2  A    between atoms: C2_2  and  C14_42 
REMARK    3  A    between atoms: N1_3  and  C3_5 
REMARK    4  A    between atoms: C3_5  and  C4_6 
REMARK    5  A    between atoms: C3_5  and  C8_20 
REMARK       I    between atoms: C4_6  and  N2_8 
REMARK    6  A    between atoms: N7_22  and  C10_23 
REMARK    7  A    between atoms: C12_28  and  N10_29 
REMARK    8  A    between atoms: C13_34  and  N12_35 
REMARK    9  A    between atoms: C14_42  and  N15_43 
REMARK   10  A    between atoms: C14_42  and  O2_47 
ROOT
HETATM    1  C3  UNL     1      12.446  14.457   5.183  1.00  0.00     0.229 C 
ENDROOT
BRANCH   1   2
HETATM    2  N1  UNL     1      11.171  13.844   5.215  1.00  0.00    -0.375 N 
ATOM      3  H1  UNL     1      11.079  13.050   5.848  1.00  0.00     0.160 HD
BRANCH   2   4
HETATM    4  C2  UNL     1      10.138  14.146   4.568  1.00  0.00     0.035 C 
HETATM    5  C1  UNL     1       9.416  15.395   4.915  1.00  0.00     0.067 C 
BRANCH   4   6
HETATM    6  C14 UNL     1       9.647  13.281   3.483  1.00  0.00     0.362 C 
BRANCH   6   7
HETATM    7  N15 UNL     1       8.692  12.289   3.978  1.00  0.00    -0.048 N 
ATOM      8 3H15 UNL     1       9.167  11.470   4.358  1.00  0.00     0.277 HD
ATOM      9 2H15 UNL     1       8.228  12.610   4.828  1.00  0.00     0.277 HD
ATOM     10 1H15 UNL     1       8.016  12.029   3.259  1.00  0.00     0.277 HD
ENDBRANCH   6   7
BRANCH   6  11
HETATM   11  O2  UNL     1      10.736  12.586   2.960  1.00  0.00    -0.366 OA
ATOM     12  H2  UNL     1      10.521  11.661   2.959  1.00  0.00     0.212 HD
ENDBRANCH   6  11
ENDBRANCH   4   6
ENDBRANCH   2   4
ENDBRANCH   1   2
BRANCH   1  13
HETATM   13  C4  UNL     1      13.454  13.454   4.801  1.00  0.00     0.273 C 
HETATM   14  O1  UNL     1      13.168  12.242   4.839  1.00  0.00    -0.268 OA
HETATM   15  N2  UNL     1      14.750  13.857   4.388  1.00  0.00    -0.202 N 
HETATM   16  N3  UNL     1      15.234  15.083   4.283  1.00  0.00    -0.231 N 
HETATM   17  C7  UNL     1      15.760  13.031   4.015  1.00  0.00     0.124 A 
HETATM   18  N4  UNL     1      16.483  15.069   3.867  1.00  0.00    -0.267 N 
ATOM     19  H3  UNL     1      14.708  15.931   4.495  1.00  0.00     0.209 HD
HETATM   20  C5  UNL     1      16.851  13.796   3.687  1.00  0.00     0.166 A 
ATOM     21  H4  UNL     1      17.070  15.889   3.709  1.00  0.00     0.190 HD
HETATM   22  N5  UNL     1      17.877  12.992   3.309  1.00  0.00    -0.283 N 
HETATM   23  N6  UNL     1      17.428  11.770   3.403  1.00  0.00    -0.308 N 
ATOM     24  H5  UNL     1      18.808  13.283   3.013  1.00  0.00     0.188 HD
HETATM   25  C6  UNL     1      16.160  11.720   3.822  1.00  0.00     0.142 A 
ATOM     26  H6  UNL     1      17.984  10.943   3.180  1.00  0.00     0.186 HD
ENDBRANCH   1  13
BRANCH   1  27
HETATM   27  C8  UNL     1      12.737  15.005   6.539  1.00  0.00     0.076 A 
HETATM   28  C9  UNL     1      13.003  14.362   7.727  1.00  0.00     0.147 A 
HETATM   29  N7  UNL     1      13.206  15.293   8.698  1.00  0.00    -0.244 N 
HETATM   30  N13 UNL     1      13.064  16.457   8.088  1.00  0.00    -0.236 N 
HETATM   31  N14 UNL     1      12.786  16.309   6.813  1.00  0.00    -0.286 N 
ATOM     32  H13 UNL     1      13.158  17.360   8.552  1.00  0.00     0.209 HD
ATOM     33  H14 UNL     1      12.634  17.065   6.146  1.00  0.00     0.188 HD
BRANCH  29  34
HETATM   34  C10 UNL     1      13.509  15.039  10.072  1.00  0.00     0.142 A 
HETATM   35  C11 UNL     1      14.761  14.549  10.384  1.00  0.00     0.164 A 
HETATM   36  N8  UNL     1      15.714  14.307   9.360  1.00  0.00    -0.080 NA
HETATM   37  N9  UNL     1      15.117  14.285  11.670  1.00  0.00    -0.177 N 
HETATM   38  C12 UNL     1      14.241  14.501  12.662  1.00  0.00     0.678 A 
ATOM     39  H9  UNL     1      16.049  13.924  11.878  1.00  0.00     0.185 HD
HETATM   40  N11 UNL     1      13.002  14.985  12.370  1.00  0.00    -0.175 N 
HETATM   41  C13 UNL     1      12.637  15.251  11.097  1.00  0.00     0.147 A 
ATOM     42  H11 UNL     1      12.339  15.149  13.126  1.00  0.00     0.186 HD
BRANCH  38  43
HETATM   43  N10 UNL     1      14.590  14.247  13.872  1.00  0.00    -0.234 N 
ATOM     44 2H10 UNL     1      15.361  14.746  14.317  1.00  0.00     0.174 HD
ATOM     45 1H10 UNL     1      14.085  13.533  14.396  1.00  0.00     0.174 HD
ENDBRANCH  38  43
BRANCH  41  46
HETATM   46  N12 UNL     1      11.465  15.707  10.822  1.00  0.00    -0.383 N 
ATOM     47 2H12 UNL     1      10.776  15.134  10.334  1.00  0.00     0.157 HD
ATOM     48 1H12 UNL     1      11.235  16.660  11.104  1.00  0.00     0.157 HD
ENDBRANCH  41  46
ENDBRANCH  29  34
ENDBRANCH   1  27
TORSDOF 10
ENDMDL
MODEL 3
REMARK VINA RESULT: -7.735558250      0.611      1.612
REMARK  10 active torsions:
REMARK  status: ('A' for Active; 'I' for Inactive)
REMARK    1  A    between atoms: C2_2  and  N1_3 
REMARK    2  A    between atoms: C2_2  and  C14_42 
REMARK    3  A    between atoms: N1_3  and  C3_5 
REMARK    4  A    between atoms: C3_5  and  C4_6 
REMARK    5  A    between atoms: C3_5  and  C8_20 
REMARK       I    between atoms: C4_6  and  N2_8 
REMARK    6  A    between atoms: N7_22  and  C10_23 
REMARK    7  A    between atoms: C12_28  and  N10_29 
REMARK    8  A    between atoms: C13_34  and  N12_35 
REMARK    9  A    between atoms: C14_42  and  N15_43 
REMARK   10  A    between atoms: C14_42  and  O2_47 
ROOT
HETATM    1  C3  UNL     1      14.418  19.199  13.030  1.00  0.00     0.229 C 
ENDROOT
BRANCH   1   2
HETATM    2  N1  UNL     1      13.271  19.893  13.478  1.00  0.00    -0.375 N 
ATOM      3  H1  UNL     1      12.397  19.650  13.010  1.00  0.00     0.160 HD
BRANCH   2   4
HETATM    4  C2  UNL     1      13.181  20.769  14.373  1.00  0.00     0.035 C 
HETATM    5  C1  UNL     1      11.898  21.498  14.535  1.00  0.00     0.067 C 
BRANCH   4   6
HETATM    6  C14 UNL     1      14.323  21.071  15.251  1.00  0.00     0.362 C 
BRANCH   6   7
HETATM    7  N15 UNL     1      13.882  21.468  16.588  1.00  0.00    -0.048 N 
ATOM      8 3H15 UNL     1      14.058  22.457  16.761  1.00  0.00     0.277 HD
ATOM      9 2H15 UNL     1      12.864  21.474  16.659  1.00  0.00     0.277 HD
ATOM     10 1H15 UNL     1      14.302  20.882  17.310  1.00  0.00     0.277 HD
ENDBRANCH   6   7
BRANCH   6  11
HETATM   11  O2  UNL     1      15.013  22.151  14.702  1.00  0.00    -0.366 OA
ATOM     12  H2  UNL     1      15.915  21.886  14.570  1.00  0.00     0.212 HD
ENDBRANCH   6  11
ENDBRANCH   4   6
ENDBRANCH   2   4
ENDBRANCH   1   2
BRANCH   1  13
HETATM   13  C4  UNL     1      15.010  19.926  11.895  1.00  0.00     0.273 C 
HETATM   14  O1  UNL     1      14.366  20.054  10.837  1.00  0.00    -0.268 OA
HETATM   15  N2  UNL     1      16.311  20.485  11.997  1.00  0.00    -0.202 N 
HETATM   16  N3  UNL     1      17.139  20.455  13.028  1.00  0.00    -0.231 N 
HETATM   17  C7  UNL     1      16.961  21.172  11.025  1.00  0.00     0.124 A 
HETATM   18  N4  UNL     1      18.264  21.082  12.754  1.00  0.00    -0.267 N 
ATOM     19  H3  UNL     1      16.933  20.005  13.920  1.00  0.00     0.209 HD
HETATM   20  C5  UNL     1      18.191  21.548  11.503  1.00  0.00     0.166 A 
ATOM     21  H4  UNL     1      19.055  21.193  13.389  1.00  0.00     0.190 HD
HETATM   22  N5  UNL     1      18.863  22.238  10.548  1.00  0.00    -0.283 N 
HETATM   23  N6  UNL     1      18.068  22.285   9.513  1.00  0.00    -0.308 N 
ATOM     24  H5  UNL     1      19.798  22.639  10.622  1.00  0.00     0.188 HD
HETATM   25  C6  UNL     1      16.905  21.663   9.731  1.00  0.00     0.142 A 
ATOM     26  H6  UNL     1      18.307  22.746   8.634  1.00  0.00     0.186 HD
ENDBRANCH   1  13
BRANCH   1  27
HETATM   27  C8  UNL     1      14.006  17.827  12.618  1.00  0.00     0.076 A 
HETATM   28  C9  UNL     1      12.834  17.374  12.056  1.00  0.00     0.147 A 
HETATM   29  N7  UNL     1      12.928  16.032  11.857  1.00  0.00    -0.244 N 
HETATM   30  N13 UNL     1      14.132  15.707  12.293  1.00  0.00    -0.236 N 
HETATM   31  N14 UNL     1      14.785  16.752  12.746  1.00  0.00    -0.286 N 
ATOM     32  H13 UNL     1      14.509  14.759  12.279  1.00  0.00     0.209 HD
ATOM     33  H14 UNL     1      15.730  16.742  13.132  1.00  0.00     0.188 HD
BRANCH  29  34
HETATM   34  C10 UNL     1      11.926  15.181  11.295  1.00  0.00     0.142 A 
HETATM   35  C11 UNL     1      12.091  14.750   9.993  1.00  0.00     0.164 A 
HETATM   36  N8  UNL     1      13.230  15.148   9.244  1.00  0.00    -0.080 NA
HETATM   37  N9  UNL     1      11.177  13.940   9.394  1.00  0.00    -0.177 N 
HETATM   38  C12 UNL     1      10.090  13.546  10.073  1.00  0.00     0.678 A 
ATOM     39  H9  UNL     1      11.320  13.632   8.432  1.00  0.00     0.185 HD
HETATM   40  N11 UNL     1       9.913  13.962  11.358  1.00  0.00    -0.175 N 
HETATM   41  C13 UNL     1      10.813  14.767  11.963  1.00  0.00     0.147 A 
ATOM     42  H11 UNL     1       9.086  13.660  11.872  1.00  0.00     0.186 HD
BRANCH  38  43
HETATM   43  N10 UNL     1       9.234  12.780   9.497  1.00  0.00    -0.234 N 
ATOM     44 2H10 UNL     1       9.381  11.772   9.438  1.00  0.00     0.174 HD
ATOM     45 1H10 UNL     1       8.394  13.190   9.090  1.00  0.00     0.174 HD
ENDBRANCH  38  43
BRANCH  41  46
HETATM   46  N12 UNL     1      10.644  15.161  13.177  1.00  0.00    -0.383 N 
ATOM     47 2H12 UNL     1      11.388  15.071  13.869  1.00  0.00     0.157 HD
ATOM     48 1H12 UNL     1       9.745  15.567  13.436  1.00  0.00     0.157 HD
ENDBRANCH  41  46
ENDBRANCH  29  34
ENDBRANCH   1  27
TORSDOF 10
ENDMDL
MODEL 4
REMARK VINA RESULT: -7.709532268      4.288      7.714
REMARK  10 active torsions:
REMARK  status: ('A' for Active; 'I' for Inactive)
REMARK    1  A    between atoms: C2_2  and  N1_3 
REMARK    2  A    between atoms: C2_2  and  C14_42 
REMARK    3  A    between atoms: N1_3  and  C3_5 
REMARK    4  A    between atoms: C3_5  and  C4_6 
REMARK    5  A    between atoms: C3_5  and  C8_20 
REMARK       I    between atoms: C4_6  and  N2_8 
REMARK    6  A    between atoms: N7_22  and  C10_23 
REMARK    7  A    between atoms: C12_28  and  N10_29 
REMARK    8  A    between atoms: C13_34  and  N12_35 
REMARK    9  A    between atoms: C14_42  and  N15_43 
REMARK   10  A    between atoms: C14_42  and  O2_47 
ROOT
HETATM    1  C3  UNL     1      11.595  14.583   8.914  1.00  0.00     0.229 C 
ENDROOT
BRANCH   1   2
HETATM    2  N1  UNL     1      10.196  14.719   8.760  1.00  0.00    -0.375 N 
ATOM      3  H1  UNL     1       9.865  14.809   7.799  1.00  0.00     0.160 HD
BRANCH   2   4
HETATM    4  C2  UNL     1       9.307  14.744   9.645  1.00  0.00     0.035 C 
HETATM    5  C1  UNL     1       8.620  16.028   9.934  1.00  0.00     0.067 C 
BRANCH   4   6
HETATM    6  C14 UNL     1       8.945  13.525  10.388  1.00  0.00     0.362 C 
BRANCH   6   7
HETATM    7  N15 UNL     1       9.845  13.299  11.519  1.00  0.00    -0.048 N 
ATOM      8 3H15 UNL     1      10.201  14.178  11.894  1.00  0.00     0.277 HD
ATOM      9 2H15 UNL     1       9.337  12.971  12.340  1.00  0.00     0.277 HD
ATOM     10 1H15 UNL     1      10.604  12.664  11.271  1.00  0.00     0.277 HD
ENDBRANCH   6   7
BRANCH   6  11
HETATM   11  O2  UNL     1       9.080  12.440   9.523  1.00  0.00    -0.366 OA
ATOM     12  H2  UNL     1       9.685  11.824   9.919  1.00  0.00     0.212 HD
ENDBRANCH   6  11
ENDBRANCH   4   6
ENDBRANCH   2   4
ENDBRANCH   1   2
BRANCH   1  13
HETATM   13  C4  UNL     1      12.150  15.848   9.421  1.00  0.00     0.273 C 
HETATM   14  O1  UNL     1      11.974  16.903   8.782  1.00  0.00    -0.268 OA
HETATM   15  N2  UNL     1      12.886  15.877  10.635  1.00  0.00    -0.202 N 
HETATM   16  N3  UNL     1      13.172  14.873  11.446  1.00  0.00    -0.231 N 
HETATM   17  C7  UNL     1      13.444  16.976  11.201  1.00  0.00     0.124 A 
HETATM   18  N4  UNL     1      13.875  15.281  12.481  1.00  0.00    -0.267 N 
ATOM     19  H3  UNL     1      12.885  13.906  11.290  1.00  0.00     0.209 HD
HETATM   20  C5  UNL     1      14.068  16.599  12.365  1.00  0.00     0.166 A 
ATOM     21  H4  UNL     1      14.215  14.692  13.242  1.00  0.00     0.190 HD
HETATM   22  N5  UNL     1      14.637  17.682  12.951  1.00  0.00    -0.283 N 
HETATM   23  N6  UNL     1      14.369  18.695  12.172  1.00  0.00    -0.308 N 
ATOM     24  H5  UNL     1      15.165  17.701  13.823  1.00  0.00     0.188 HD
HETATM   25  C6  UNL     1      13.654  18.341  11.099  1.00  0.00     0.142 A 
ATOM     26  H6  UNL     1      14.672  19.651  12.360  1.00  0.00     0.186 HD
ENDBRANCH   1  13
BRANCH   1  27
HETATM   27  C8  UNL     1      12.184  14.245   7.586  1.00  0.00     0.076 A 
HETATM   28  C9  UNL     1      13.455  13.839   7.247  1.00  0.00     0.147 A 
HETATM   29  N7  UNL     1      13.515  13.651   5.901  1.00  0.00    -0.244 N 
HETATM   30  N13 UNL     1      12.302  13.939   5.463  1.00  0.00    -0.236 N 
HETATM   31  N14 UNL     1      11.501  14.293   6.442  1.00  0.00    -0.286 N 
ATOM     32  H13 UNL     1      12.021  13.893   4.483  1.00  0.00     0.209 HD
ATOM     33  H14 UNL     1      10.521  14.559   6.343  1.00  0.00     0.188 HD
BRANCH  29  34
HETATM   34  C10 UNL     1      14.655  13.230   5.149  1.00  0.00     0.142 A 
HETATM   35  C11 UNL     1      14.799  11.883   4.882  1.00  0.00     0.164 A 
HETATM   36  N8  UNL     1      13.834  10.951   5.346  1.00  0.00    -0.080 NA
HETATM   37  N9  UNL     1      15.859  11.411   4.173  1.00  0.00    -0.177 N 
HETATM   38  C12 UNL     1      16.790  12.263   3.720  1.00  0.00     0.678 A 
ATOM     39  H9  UNL     1      15.946  10.412   3.985  1.00  0.00     0.185 HD
HETATM   40  N11 UNL     1      16.662  13.595   3.975  1.00  0.00    -0.175 N 
HETATM   41  C13 UNL     1      15.614  14.075   4.678  1.00  0.00     0.147 A 
ATOM     42  H11 UNL     1      17.370  14.241   3.628  1.00  0.00     0.186 HD
BRANCH  38  43
HETATM   43  N10 UNL     1      17.787  11.806   3.050  1.00  0.00    -0.234 N 
ATOM     44 2H10 UNL     1      17.682  11.511   2.079  1.00  0.00     0.174 HD
ATOM     45 1H10 UNL     1      18.699  11.736   3.501  1.00  0.00     0.174 HD
ENDBRANCH  38  43
BRANCH  41  46
HETATM   46  N12 UNL     1      15.494  15.334   4.919  1.00  0.00    -0.383 N 
ATOM     47 2H12 UNL     1      15.901  15.752   5.756  1.00  0.00     0.157 HD
ATOM     48 1H12 UNL     1      14.982  15.911   4.253  1.00  0.00     0.157 HD
ENDBRANCH  41  46
ENDBRANCH  29  34
ENDBRANCH   1  27
TORSDOF 10
ENDMDL
MODEL 5
REMARK VINA RESULT: -7.618564566      5.132      9.149
REMARK  10 active torsions:
REMARK  status: ('A' for Active; 'I' for Inactive)
REMARK    1  A    between atoms: C2_2  and  N1_3 
REMARK    2  A    between atoms: C2_2  and  C14_42 
REMARK    3  A    between atoms: N1_3  and  C3_5 
REMARK    4  A    between atoms: C3_5  and  C4_6 
REMARK    5  A    between atoms: C3_5  and  C8_20 
REMARK       I    between atoms: C4_6  and  N2_8 
REMARK    6  A    between atoms: N7_22  and  C10_23 
REMARK    7  A    between atoms: C12_28  and  N10_29 
REMARK    8  A    between atoms: C13_34  and  N12_35 
REMARK    9  A    between atoms: C14_42  and  N15_43 
REMARK   10  A    between atoms: C14_42  and  O2_47 
ROOT
HETATM    1  C3  UNL     1      12.462  14.509   5.777  1.00  0.00     0.229 C 
ENDROOT
BRANCH   1   2
HETATM    2  N1  UNL     1      11.177  14.058   5.398  1.00  0.00    -0.375 N 
ATOM      3  H1  UNL     1      10.725  13.415   6.048  1.00  0.00     0.160 HD
BRANCH   2   4
HETATM    4  C2  UNL     1      10.516  14.342   4.368  1.00  0.00     0.035 C 
HETATM    5  C1  UNL     1      10.074  15.744   4.166  1.00  0.00     0.067 C 
BRANCH   4   6
HETATM    6  C14 UNL     1      10.184  13.307   3.375  1.00  0.00     0.362 C 
BRANCH   6   7
HETATM    7  N15 UNL     1       9.130  12.416   3.862  1.00  0.00    -0.048 N 
ATOM      8 3H15 UNL     1       9.233  12.226   4.859  1.00  0.00     0.277 HD
ATOM      9 2H15 UNL     1       8.225  12.885   3.883  1.00  0.00     0.277 HD
ATOM     10 1H15 UNL     1       9.091  11.553   3.319  1.00  0.00     0.277 HD
ENDBRANCH   6   7
BRANCH   6  11
HETATM   11  O2  UNL     1      11.322  12.531   3.165  1.00  0.00    -0.366 OA
ATOM     12  H2  UNL     1      11.438  12.428   2.228  1.00  0.00     0.212 HD
ENDBRANCH   6  11
ENDBRANCH   4   6
ENDBRANCH   2   4
ENDBRANCH   1   2
BRANCH   1  13
HETATM   13  C4  UNL     1      13.459  13.488   5.413  1.00  0.00     0.273 C 
HETATM   14  O1  UNL     1      13.234  12.287   5.657  1.00  0.00    -0.268 OA
HETATM   15  N2  UNL     1      14.675  13.861   4.784  1.00  0.00    -0.202 N 
HETATM   16  N3  UNL     1      15.088  15.071   4.446  1.00  0.00    -0.231 N 
HETATM   17  C7  UNL     1      15.666  13.016   4.404  1.00  0.00     0.124 A 
HETATM   18  N4  UNL     1      16.275  15.029   3.879  1.00  0.00    -0.267 N 
ATOM     19  H3  UNL     1      14.555  15.926   4.603  1.00  0.00     0.209 HD
HETATM   20  C5  UNL     1      16.674  13.754   3.833  1.00  0.00     0.166 A 
ATOM     21  H4  UNL     1      16.801  15.832   3.533  1.00  0.00     0.190 HD
HETATM   22  N5  UNL     1      17.680  12.931   3.444  1.00  0.00    -0.283 N 
HETATM   23  N6  UNL     1      17.300  11.723   3.765  1.00  0.00    -0.308 N 
ATOM     24  H5  UNL     1      18.554  13.200   2.992  1.00  0.00     0.188 HD
HETATM   25  C6  UNL     1      16.098  11.702   4.347  1.00  0.00     0.142 A 
ATOM     26  H6  UNL     1      17.860  10.888   3.591  1.00  0.00     0.186 HD
ENDBRANCH   1  13
BRANCH   1  27
HETATM   27  C8  UNL     1      12.463  14.743   7.249  1.00  0.00     0.076 A 
HETATM   28  C9  UNL     1      13.173  15.641   8.013  1.00  0.00     0.147 A 
HETATM   29  N7  UNL     1      12.834  15.476   9.320  1.00  0.00    -0.244 N 
HETATM   30  N13 UNL     1      11.942  14.501   9.319  1.00  0.00    -0.236 N 
HETATM   31  N14 UNL     1      11.709  14.054   8.107  1.00  0.00    -0.286 N 
ATOM     32  H13 UNL     1      11.489  14.139  10.159  1.00  0.00     0.209 HD
ATOM     33  H14 UNL     1      11.060  13.306   7.863  1.00  0.00     0.188 HD
BRANCH  29  34
HETATM   34  C10 UNL     1      13.346  16.212  10.433  1.00  0.00     0.142 A 
HETATM   35  C11 UNL     1      14.155  15.551  11.336  1.00  0.00     0.164 A 
HETATM   36  N8  UNL     1      14.463  14.177  11.153  1.00  0.00    -0.080 NA
HETATM   37  N9  UNL     1      14.677  16.189  12.418  1.00  0.00    -0.177 N 
HETATM   38  C12 UNL     1      14.406  17.486  12.622  1.00  0.00     0.678 A 
ATOM     39  H9  UNL     1      15.274  15.682  13.072  1.00  0.00     0.185 HD
HETATM   40  N11 UNL     1      13.610  18.153  11.740  1.00  0.00    -0.175 N 
HETATM   41  C13 UNL     1      13.086  17.530  10.662  1.00  0.00     0.147 A 
ATOM     42  H11 UNL     1      13.407  19.139  11.896  1.00  0.00     0.186 HD
BRANCH  38  43
HETATM   43  N10 UNL     1      14.905  18.078  13.647  1.00  0.00    -0.234 N 
ATOM     44 2H10 UNL     1      15.913  18.099  13.808  1.00  0.00     0.174 HD
ATOM     45 1H10 UNL     1      14.281  18.534  14.312  1.00  0.00     0.174 HD
ENDBRANCH  38  43
BRANCH  41  46
HETATM   46  N12 UNL     1      12.333  18.161   9.830  1.00  0.00    -0.383 N 
ATOM     47 2H12 UNL     1      12.691  18.943   9.282  1.00  0.00     0.157 HD
ATOM     48 1H12 UNL     1      11.363  17.861   9.727  1.00  0.00     0.157 HD
ENDBRANCH  41  46
ENDBRANCH  29  34
ENDBRANCH   1  27
TORSDOF 10
ENDMDL
