MODEL 1
REMARK VINA RESULT: -7.024848454      0.000      0.000
REMARK  11 active torsions:
REMARK  status: ('A' for Active; 'I' for Inactive)
REMARK    1  A    between atoms: C2_3  and  N2_4 
REMARK    2  A    between atoms: C3_5  and  N3_6 
REMARK    3  A    between atoms: C5_13  and  N6_14 
REMARK    4  A    between atoms: N6_14  and  C6_16 
REMARK    5  A    between atoms: C6_16  and  O1_17 
REMARK    6  A    between atoms: C6_16  and  C7_19 
REMARK    7  A    between atoms: C7_19  and  N7_20 
REMARK    8  A    between atoms: C7_19  and  C8_24 
REMARK    9  A    between atoms: C8_24  and  O2_25 
REMARK   10  A    between atoms: C8_24  and  O3_27 
REMARK   11  A    between atoms: C13_37  and  N9_38 
ROOT
HETATM    1  N2  UNL     1      11.606  14.548   7.080  1.00  0.00     0.062 N 
HETATM    2  C3  UNL     1      10.362  14.694   6.585  1.00  0.00     0.701 A 
HETATM    3  N4  UNL     1      10.016  14.262   5.366  1.00  0.00    -0.176 N 
ATOM      4  H4  UNL     1       9.062  14.394   5.030  1.00  0.00     0.185 HD
HETATM    5  C4  UNL     1      10.948  13.640   4.565  1.00  0.00     0.164 A 
HETATM    6  N5  UNL     1      10.536  13.160   3.302  1.00  0.00    -0.080 NA
HETATM    7  C5  UNL     1      12.207  13.470   5.013  1.00  0.00     0.146 A 
HETATM    8  C9  UNL     1      12.516  13.944   6.307  1.00  0.00     0.314 A 
HETATM    9  O4  UNL     1      13.667  13.802   6.754  1.00  0.00    -0.264 OA
ENDROOT
BRANCH   1  10
HETATM   10  C2  UNL     1      11.915  15.031   8.390  1.00  0.00     0.713 A 
HETATM   11  N1  UNL     1      12.478  16.225   8.550  1.00  0.00    -0.164 N 
HETATM   12  C1  UNL     1      12.783  17.050   7.403  1.00  0.00     0.177 C 
HETATM   13  C14 UNL     1      12.791  16.731   9.769  1.00  0.00     0.183 A 
HETATM   14  C11 UNL     1      12.508  15.964  10.882  1.00  0.00     0.089 A 
HETATM   15  O8  UNL     1      13.338  17.861  10.156  1.00  0.00    -0.270 OA
HETATM   16  C10 UNL     1      11.926  14.725  10.729  1.00  0.00     0.274 A 
HETATM   17  C12 UNL     1      12.938  16.741  11.953  1.00  0.00     0.084 A 
HETATM   18  N8  UNL     1      11.643  14.290   9.477  1.00  0.00    -0.154 N 
HETATM   19  O5  UNL     1      11.676  14.041  11.730  1.00  0.00    -0.267 OA
ATOM     20  H8  UNL     1      11.212  13.374   9.357  1.00  0.00     0.187 HD
HETATM   21  C13 UNL     1      13.446  17.913  11.446  1.00  0.00     0.217 A 
BRANCH  21  22
HETATM   22  N9  UNL     1      13.983  18.966  12.217  1.00  0.00    -0.090 N 
HETATM   23  O6  UNL     1      14.979  19.574  11.794  1.00  0.00    -0.530 OA
HETATM   24  O7  UNL     1      13.461  19.363  13.424  1.00  0.00    -0.530 OA
ENDBRANCH  21  22
ENDBRANCH   1  10
BRANCH   2  25
HETATM   25  N3  UNL     1       9.498  15.287   7.363  1.00  0.00    -0.233 N 
ATOM     26  H32 UNL     1       9.784  16.031   8.001  1.00  0.00     0.174 HD
ATOM     27  H31 UNL     1       8.533  14.964   7.293  1.00  0.00     0.174 HD
ENDBRANCH   2  25
BRANCH   7  28
HETATM   28  N6  UNL     1      13.245  12.879   4.279  1.00  0.00    -0.332 N 
ATOM     29  H6  UNL     1      13.612  13.446   3.514  1.00  0.00     0.168 HD
BRANCH  28  30
HETATM   30  C6  UNL     1      13.859  11.615   4.440  1.00  0.00     0.152 C 
BRANCH  30  31
HETATM   31  O1  UNL     1      13.522  10.953   5.624  1.00  0.00    -0.348 OA
ATOM     32  H1  UNL     1      13.901  10.087   5.713  1.00  0.00     0.219 HD
ENDBRANCH  30  31
BRANCH  30  33
HETATM   33  C7  UNL     1      15.271  11.521   4.030  1.00  0.00     0.311 C 
BRANCH  33  34
HETATM   34  N7  UNL     1      15.453  11.254   2.612  1.00  0.00    -0.063 N 
ATOM     35  H73 UNL     1      16.167  10.539   2.470  1.00  0.00     0.275 HD
ATOM     36  H72 UNL     1      14.643  10.766   2.231  1.00  0.00     0.275 HD
ATOM     37  H71 UNL     1      15.663  12.086   2.060  1.00  0.00     0.275 HD
ENDBRANCH  33  34
BRANCH  33  38
HETATM   38  C8  UNL     1      16.198  12.592   4.510  1.00  0.00     0.292 C 
BRANCH  38  39
HETATM   39  O2  UNL     1      16.004  12.765   5.890  1.00  0.00    -0.369 OA
ATOM     40  H2  UNL     1      15.923  13.694   6.070  1.00  0.00     0.212 HD
ENDBRANCH  38  39
BRANCH  38  41
HETATM   41  O3  UNL     1      15.866  13.843   3.946  1.00  0.00    -0.369 OA
ATOM     42  H3  UNL     1      16.636  14.392   3.853  1.00  0.00     0.212 HD
ENDBRANCH  38  41
ENDBRANCH  33  38
ENDBRANCH  30  33
ENDBRANCH  28  30
ENDBRANCH   7  28
TORSDOF 11
ENDMDL
MODEL 2
REMARK VINA RESULT: -6.977921495      3.338      6.102
REMARK  11 active torsions:
REMARK  status: ('A' for Active; 'I' for Inactive)
REMARK    1  A    between atoms: C2_3  and  N2_4 
REMARK    2  A    between atoms: C3_5  and  N3_6 
REMARK    3  A    between atoms: C5_13  and  N6_14 
REMARK    4  A    between atoms: N6_14  and  C6_16 
REMARK    5  A    between atoms: C6_16  and  O1_17 
REMARK    6  A    between atoms: C6_16  and  C7_19 
REMARK    7  A    between atoms: C7_19  and  N7_20 
REMARK    8  A    between atoms: C7_19  and  C8_24 
REMARK    9  A    between atoms: C8_24  and  O2_25 
REMARK   10  A    between atoms: C8_24  and  O3_27 
REMARK   11  A    between atoms: C13_37  and  N9_38 
ROOT
HETATM    1  N2  UNL     1      12.679  17.919  11.892  1.00  0.00     0.062 N 
HETATM    2  C3  UNL     1      11.492  18.473  12.201  1.00  0.00     0.701 A 
HETATM    3  N4  UNL     1      10.329  17.835  12.017  1.00  0.00    -0.176 N 
ATOM      4  H4  UNL     1       9.451  18.292  12.265  1.00  0.00     0.185 HD
HETATM    5  C4  UNL     1      10.317  16.561  11.493  1.00  0.00     0.164 A 
HETATM    6  N5  UNL     1       9.076  15.903  11.353  1.00  0.00    -0.080 NA
HETATM    7  C5  UNL     1      11.479  15.963  11.166  1.00  0.00     0.146 A 
HETATM    8  C9  UNL     1      12.675  16.682  11.382  1.00  0.00     0.314 A 
HETATM    9  O4  UNL     1      13.766  16.159  11.095  1.00  0.00    -0.264 OA
ENDROOT
BRANCH   1  10
HETATM   10  C2  UNL     1      13.888  18.651  12.111  1.00  0.00     0.713 A 
HETATM   11  N1  UNL     1      14.403  19.402  11.142  1.00  0.00    -0.164 N 
HETATM   12  C1  UNL     1      13.748  19.489   9.857  1.00  0.00     0.177 C 
HETATM   13  C14 UNL     1      15.546  20.117  11.298  1.00  0.00     0.183 A 
HETATM   14  C11 UNL     1      16.191  20.052  12.517  1.00  0.00     0.089 A 
HETATM   15  O8  UNL     1      16.222  20.909  10.497  1.00  0.00    -0.270 OA
HETATM   16  C10 UNL     1      15.668  19.278  13.528  1.00  0.00     0.274 A 
HETATM   17  C12 UNL     1      17.303  20.874  12.360  1.00  0.00     0.084 A 
HETATM   18  N8  UNL     1      14.521  18.593  13.295  1.00  0.00    -0.154 N 
HETATM   19  O5  UNL     1      16.251  19.223  14.619  1.00  0.00    -0.267 OA
ATOM     20  H8  UNL     1      14.128  18.018  14.039  1.00  0.00     0.187 HD
HETATM   21  C13 UNL     1      17.275  21.383  11.084  1.00  0.00     0.217 A 
BRANCH  21  22
HETATM   22  N9  UNL     1      18.235  22.262  10.540  1.00  0.00    -0.090 N 
HETATM   23  O6  UNL     1      19.076  22.777  11.294  1.00  0.00    -0.530 OA
HETATM   24  O7  UNL     1      18.295  22.586   9.206  1.00  0.00    -0.530 OA
ENDBRANCH  21  22
ENDBRANCH   1  10
BRANCH   2  25
HETATM   25  N3  UNL     1      11.530  19.680  12.695  1.00  0.00    -0.233 N 
ATOM     26  H32 UNL     1      11.386  20.498  12.103  1.00  0.00     0.174 HD
ATOM     27  H31 UNL     1      11.711  19.752  13.697  1.00  0.00     0.174 HD
ENDBRANCH   2  25
BRANCH   7  28
HETATM   28  N6  UNL     1      11.590  14.685  10.600  1.00  0.00    -0.332 N 
ATOM     29  H6  UNL     1      12.136  14.015  11.143  1.00  0.00     0.168 HD
BRANCH  28  30
HETATM   30  C6  UNL     1      11.058  14.185   9.388  1.00  0.00     0.152 C 
BRANCH  30  31
HETATM   31  O1  UNL     1      10.561  12.880   9.467  1.00  0.00    -0.348 OA
ATOM     32  H1  UNL     1       9.661  12.784   9.180  1.00  0.00     0.219 HD
ENDBRANCH  30  31
BRANCH  30  33
HETATM   33  C7  UNL     1      11.808  14.515   8.164  1.00  0.00     0.311 C 
BRANCH  33  34
HETATM   34  N7  UNL     1      11.659  15.898   7.741  1.00  0.00    -0.063 N 
ATOM     35  H73 UNL     1      10.733  16.250   7.983  1.00  0.00     0.275 HD
ATOM     36  H72 UNL     1      12.233  16.514   8.317  1.00  0.00     0.275 HD
ATOM     37  H71 UNL     1      11.853  16.049   6.751  1.00  0.00     0.275 HD
ENDBRANCH  33  34
BRANCH  33  38
HETATM   38  C8  UNL     1      13.234  14.069   8.091  1.00  0.00     0.292 C 
BRANCH  38  39
HETATM   39  O2  UNL     1      13.390  12.937   8.907  1.00  0.00    -0.369 OA
ATOM     40  H2  UNL     1      13.212  12.162   8.387  1.00  0.00     0.212 HD
ENDBRANCH  38  39
BRANCH  38  41
HETATM   41  O3  UNL     1      14.098  15.034   8.654  1.00  0.00    -0.369 OA
ATOM     42  H3  UNL     1      13.986  15.086   9.595  1.00  0.00     0.212 HD
ENDBRANCH  38  41
ENDBRANCH  33  38
ENDBRANCH  30  33
ENDBRANCH  28  30
ENDBRANCH   7  28
TORSDOF 11
ENDMDL
MODEL 3
REMARK VINA RESULT: -6.955470330      4.517      6.835
REMARK  11 active torsions:
REMARK  status: ('A' for Active; 'I' for Inactive)
REMARK    1  A    between atoms: C2_3  and  N2_4 
REMARK    2  A    between atoms: C3_5  and  N3_6 
REMARK    3  A    between atoms: C5_13  and  N6_14 
REMARK    4  A    between atoms: N6_14  and  C6_16 
REMARK    5  A    between atoms: C6_16  and  O1_17 
REMARK    6  A    between atoms: C6_16  and  C7_19 
REMARK    7  A    between atoms: C7_19  and  N7_20 
REMARK    8  A    between atoms: C7_19  and  C8_24 
REMARK    9  A    between atoms: C8_24  and  O2_25 
REMARK   10  A    between atoms: C8_24  and  O3_27 
REMARK   11  A    between atoms: C13_37  and  N9_38 
ROOT
HETATM    1  N2  UNL     1      11.973  19.053   9.924  1.00  0.00     0.062 N 
HETATM    2  C3  UNL     1      10.915  19.637  10.518  1.00  0.00     0.701 A 
HETATM    3  N4  UNL     1       9.779  18.978  10.778  1.00  0.00    -0.176 N 
ATOM      4  H4  UNL     1       9.002  19.460  11.230  1.00  0.00     0.185 HD
HETATM    5  C4  UNL     1       9.659  17.650  10.434  1.00  0.00     0.164 A 
HETATM    6  N5  UNL     1       8.462  16.976  10.761  1.00  0.00    -0.080 NA
HETATM    7  C5  UNL     1      10.688  17.019   9.836  1.00  0.00     0.146 A 
HETATM    8  C9  UNL     1      11.863  17.763   9.587  1.00  0.00     0.314 A 
HETATM    9  O4  UNL     1      12.833  17.212   9.040  1.00  0.00    -0.264 OA
ENDROOT
BRANCH   1  10
HETATM   10  C2  UNL     1      13.160  19.810   9.672  1.00  0.00     0.713 A 
HETATM   11  N1  UNL     1      14.114  19.888  10.595  1.00  0.00    -0.164 N 
HETATM   12  C1  UNL     1      13.965  19.209  11.862  1.00  0.00     0.177 C 
HETATM   13  C14 UNL     1      15.260  20.591  10.408  1.00  0.00     0.183 A 
HETATM   14  C11 UNL     1      15.428  21.248   9.205  1.00  0.00     0.089 A 
HETATM   15  O8  UNL     1      16.315  20.801  11.162  1.00  0.00    -0.270 OA
HETATM   16  C10 UNL     1      14.447  21.175   8.242  1.00  0.00     0.274 A 
HETATM   17  C12 UNL     1      16.672  21.861   9.321  1.00  0.00     0.084 A 
HETATM   18  N8  UNL     1      13.331  20.451   8.505  1.00  0.00    -0.154 N 
HETATM   19  O5  UNL     1      14.603  21.767   7.166  1.00  0.00    -0.267 OA
ATOM     20  H8  UNL     1      12.600  20.393   7.796  1.00  0.00     0.187 HD
HETATM   21  C13 UNL     1      17.181  21.551  10.559  1.00  0.00     0.217 A 
BRANCH  21  22
HETATM   22  N9  UNL     1      18.429  21.987  11.056  1.00  0.00    -0.090 N 
HETATM   23  O6  UNL     1      19.285  22.394  10.256  1.00  0.00    -0.530 OA
HETATM   24  O7  UNL     1      18.753  21.986  12.391  1.00  0.00    -0.530 OA
ENDBRANCH  21  22
ENDBRANCH   1  10
BRANCH   2  25
HETATM   25  N3  UNL     1      11.054  20.896  10.833  1.00  0.00    -0.233 N 
ATOM     26  H32 UNL     1      11.877  21.426  10.544  1.00  0.00     0.174 HD
ATOM     27  H31 UNL     1      10.298  21.310  11.379  1.00  0.00     0.174 HD
ENDBRANCH   2  25
BRANCH   7  28
HETATM   28  N6  UNL     1      10.672  15.681   9.416  1.00  0.00    -0.332 N 
ATOM     29  H6  UNL     1      10.235  15.517   8.508  1.00  0.00     0.168 HD
BRANCH  28  30
HETATM   30  C6  UNL     1      11.170  14.526  10.061  1.00  0.00     0.152 C 
BRANCH  30  31
HETATM   31  O1  UNL     1      11.858  13.644   9.222  1.00  0.00    -0.348 OA
ATOM     32  H1  UNL     1      11.507  12.762   9.205  1.00  0.00     0.219 HD
ENDBRANCH  30  31
BRANCH  30  33
HETATM   33  C7  UNL     1      10.283  13.904  11.059  1.00  0.00     0.311 C 
BRANCH  33  34
HETATM   34  N7  UNL     1      10.112  14.697  12.266  1.00  0.00    -0.063 N 
ATOM     35  H73 UNL     1      10.693  14.330  13.021  1.00  0.00     0.275 HD
ATOM     36  H72 UNL     1      10.537  15.617  12.155  1.00  0.00     0.275 HD
ATOM     37  H71 UNL     1       9.142  14.783  12.568  1.00  0.00     0.275 HD
ENDBRANCH  33  34
BRANCH  33  38
HETATM   38  C8  UNL     1       8.978  13.359  10.571  1.00  0.00     0.292 C 
BRANCH  38  39
HETATM   39  O2  UNL     1       9.240  12.352   9.628  1.00  0.00    -0.369 OA
ATOM     40  H2  UNL     1       9.318  12.753   8.771  1.00  0.00     0.212 HD
ENDBRANCH  38  39
BRANCH  38  41
HETATM   41  O3  UNL     1       8.253  14.336   9.855  1.00  0.00    -0.369 OA
ATOM     42  H3  UNL     1       7.319  14.245  10.002  1.00  0.00     0.212 HD
ENDBRANCH  38  41
ENDBRANCH  33  38
ENDBRANCH  30  33
ENDBRANCH  28  30
ENDBRANCH   7  28
TORSDOF 11
ENDMDL
MODEL 4
REMARK VINA RESULT: -6.769081630      1.278      1.491
REMARK  11 active torsions:
REMARK  status: ('A' for Active; 'I' for Inactive)
REMARK    1  A    between atoms: C2_3  and  N2_4 
REMARK    2  A    between atoms: C3_5  and  N3_6 
REMARK    3  A    between atoms: C5_13  and  N6_14 
REMARK    4  A    between atoms: N6_14  and  C6_16 
REMARK    5  A    between atoms: C6_16  and  O1_17 
REMARK    6  A    between atoms: C6_16  and  C7_19 
REMARK    7  A    between atoms: C7_19  and  N7_20 
REMARK    8  A    between atoms: C7_19  and  C8_24 
REMARK    9  A    between atoms: C8_24  and  O2_25 
REMARK   10  A    between atoms: C8_24  and  O3_27 
REMARK   11  A    between atoms: C13_37  and  N9_38 
ROOT
HETATM    1  N2  UNL     1      12.014  15.075   8.026  1.00  0.00     0.062 N 
HETATM    2  C3  UNL     1      10.676  15.034   7.879  1.00  0.00     0.701 A 
HETATM    3  N4  UNL     1      10.087  14.605   6.755  1.00  0.00    -0.176 N 
ATOM      4  H4  UNL     1       9.070  14.590   6.686  1.00  0.00     0.185 HD
HETATM    5  C4  UNL     1      10.855  14.185   5.692  1.00  0.00     0.164 A 
HETATM    6  N5  UNL     1      10.199  13.700   4.539  1.00  0.00    -0.080 NA
HETATM    7  C5  UNL     1      12.199  14.207   5.788  1.00  0.00     0.146 A 
HETATM    8  C9  UNL     1      12.766  14.668   6.996  1.00  0.00     0.314 A 
HETATM    9  O4  UNL     1      14.002  14.701   7.121  1.00  0.00    -0.264 OA
ENDROOT
BRANCH   1  10
HETATM   10  C2  UNL     1      12.584  15.544   9.250  1.00  0.00     0.713 A 
HETATM   11  N1  UNL     1      12.868  16.833   9.409  1.00  0.00    -0.164 N 
HETATM   12  C1  UNL     1      12.603  17.777   8.347  1.00  0.00     0.177 C 
HETATM   13  C14 UNL     1      13.409  17.330  10.550  1.00  0.00     0.183 A 
HETATM   14  C11 UNL     1      13.670  16.449  11.581  1.00  0.00     0.089 A 
HETATM   15  O8  UNL     1      13.762  18.540  10.920  1.00  0.00    -0.270 OA
HETATM   16  C10 UNL     1      13.381  15.112  11.429  1.00  0.00     0.274 A 
HETATM   17  C12 UNL     1      14.209  17.247  12.585  1.00  0.00     0.084 A 
HETATM   18  N8  UNL     1      12.842  14.693  10.258  1.00  0.00    -0.154 N 
HETATM   19  O5  UNL     1      13.619  14.326  12.356  1.00  0.00    -0.267 OA
ATOM     20  H8  UNL     1      12.625  13.704  10.138  1.00  0.00     0.187 HD
HETATM   21  C13 UNL     1      14.244  18.541  12.123  1.00  0.00     0.217 A 
BRANCH  21  22
HETATM   22  N9  UNL     1      14.724  19.651  12.851  1.00  0.00    -0.090 N 
HETATM   23  O6  UNL     1      14.522  19.700  14.074  1.00  0.00    -0.530 OA
HETATM   24  O7  UNL     1      15.411  20.693  12.276  1.00  0.00    -0.530 OA
ENDBRANCH  21  22
ENDBRANCH   1  10
BRANCH   2  25
HETATM   25  N3  UNL     1       9.971  15.438   8.900  1.00  0.00    -0.233 N 
ATOM     26  H32 UNL     1      10.180  16.319   9.370  1.00  0.00     0.174 HD
ATOM     27  H31 UNL     1       9.210  14.825   9.193  1.00  0.00     0.174 HD
ENDBRANCH   2  25
BRANCH   7  28
HETATM   28  N6  UNL     1      13.081  13.833   4.764  1.00  0.00    -0.332 N 
ATOM     29  H6  UNL     1      13.514  14.607   4.259  1.00  0.00     0.168 HD
BRANCH  28  30
HETATM   30  C6  UNL     1      13.460  12.543   4.327  1.00  0.00     0.152 C 
BRANCH  30  31
HETATM   31  O1  UNL     1      13.189  11.517   5.238  1.00  0.00    -0.348 OA
ATOM     32  H1  UNL     1      12.281  11.240   5.261  1.00  0.00     0.219 HD
ENDBRANCH  30  31
BRANCH  30  33
HETATM   33  C7  UNL     1      14.748  12.449   3.618  1.00  0.00     0.311 C 
BRANCH  33  34
HETATM   34  N7  UNL     1      14.970  13.520   2.660  1.00  0.00    -0.063 N 
ATOM     35  H73 UNL     1      15.159  14.399   3.142  1.00  0.00     0.275 HD
ATOM     36  H72 UNL     1      15.861  13.394   2.180  1.00  0.00     0.275 HD
ATOM     37  H71 UNL     1      14.212  13.634   1.987  1.00  0.00     0.275 HD
ENDBRANCH  33  34
BRANCH  33  38
HETATM   38  C8  UNL     1      15.968  12.189   4.444  1.00  0.00     0.292 C 
BRANCH  38  39
HETATM   39  O2  UNL     1      16.010  10.822   4.762  1.00  0.00    -0.369 OA
ATOM     40  H2  UNL     1      15.798  10.719   5.682  1.00  0.00     0.212 HD
ENDBRANCH  38  39
BRANCH  38  41
HETATM   41  O3  UNL     1      15.886  12.842   5.693  1.00  0.00    -0.369 OA
ATOM     42  H3  UNL     1      16.710  12.787   6.163  1.00  0.00     0.212 HD
ENDBRANCH  38  41
ENDBRANCH  33  38
ENDBRANCH  30  33
ENDBRANCH  28  30
ENDBRANCH   7  28
TORSDOF 11
ENDMDL
MODEL 5
REMARK VINA RESULT: -6.691732934      1.206      1.544
REMARK  11 active torsions:
REMARK  status: ('A' for Active; 'I' for Inactive)
REMARK    1  A    between atoms: C2_3  and  N2_4 
REMARK    2  A    between atoms: C3_5  and  N3_6 
REMARK    3  A    between atoms: C5_13  and  N6_14 
REMARK    4  A    between atoms: N6_14  and  C6_16 
REMARK    5  A    between atoms: C6_16  and  O1_17 
REMARK    6  A    between atoms: C6_16  and  C7_19 
REMARK    7  A    between atoms: C7_19  and  N7_20 
REMARK    8  A    between atoms: C7_19  and  C8_24 
REMARK    9  A    between atoms: C8_24  and  O2_25 
REMARK   10  A    between atoms: C8_24  and  O3_27 
REMARK   11  A    between atoms: C13_37  and  N9_38 
ROOT
HETATM    1  N2  UNL     1      12.083  14.118   6.973  1.00  0.00     0.062 N 
HETATM    2  C3  UNL     1      11.257  14.518   5.989  1.00  0.00     0.701 A 
HETATM    3  N4  UNL     1      11.372  14.079   4.729  1.00  0.00    -0.176 N 
ATOM      4  H4  UNL     1      10.724  14.409   4.013  1.00  0.00     0.185 HD
HETATM    5  C4  UNL     1      12.365  13.184   4.398  1.00  0.00     0.164 A 
HETATM    6  N5  UNL     1      12.429  12.711   3.069  1.00  0.00    -0.080 NA
HETATM    7  C5  UNL     1      13.218  12.753   5.347  1.00  0.00     0.146 A 
HETATM    8  C9  UNL     1      13.050  13.248   6.660  1.00  0.00     0.314 A 
HETATM    9  O4  UNL     1      13.818  12.869   7.561  1.00  0.00    -0.264 OA
ENDROOT
BRANCH   1  10
HETATM   10  C2  UNL     1      11.911  14.622   8.300  1.00  0.00     0.713 A 
HETATM   11  N1  UNL     1      12.374  15.825   8.627  1.00  0.00    -0.164 N 
HETATM   12  C1  UNL     1      13.057  16.637   7.646  1.00  0.00     0.177 C 
HETATM   13  C14 UNL     1      12.236  16.350   9.870  1.00  0.00     0.183 A 
HETATM   14  C11 UNL     1      11.586  15.595  10.826  1.00  0.00     0.089 A 
HETATM   15  O8  UNL     1      12.606  17.492  10.405  1.00  0.00    -0.270 OA
HETATM   16  C10 UNL     1      11.102  14.348  10.500  1.00  0.00     0.274 A 
HETATM   17  C12 UNL     1      11.609  16.392  11.966  1.00  0.00     0.084 A 
HETATM   18  N8  UNL     1      11.279  13.893   9.235  1.00  0.00    -0.154 N 
HETATM   19  O5  UNL     1      10.521  13.675  11.361  1.00  0.00    -0.267 OA
ATOM     20  H8  UNL     1      10.923  12.970   8.987  1.00  0.00     0.187 HD
HETATM   21  C13 UNL     1      12.255  17.563  11.650  1.00  0.00     0.217 A 
BRANCH  21  22
HETATM   22  N9  UNL     1      12.481  18.633  12.543  1.00  0.00    -0.090 N 
HETATM   23  O6  UNL     1      11.536  19.384  12.832  1.00  0.00    -0.530 OA
HETATM   24  O7  UNL     1      13.700  18.894  13.118  1.00  0.00    -0.530 OA
ENDBRANCH  21  22
ENDBRANCH   1  10
BRANCH   2  25
HETATM   25  N3  UNL     1      10.326  15.367   6.327  1.00  0.00    -0.233 N 
ATOM     26  H32 UNL     1      10.543  16.198   6.877  1.00  0.00     0.174 HD
ATOM     27  H31 UNL     1       9.381  15.149   6.011  1.00  0.00     0.174 HD
ENDBRANCH   2  25
BRANCH   7  28
HETATM   28  N6  UNL     1      14.282  11.867   5.125  1.00  0.00    -0.332 N 
ATOM     29  H6  UNL     1      14.025  10.880   5.087  1.00  0.00     0.168 HD
BRANCH  28  30
HETATM   30  C6  UNL     1      15.659  12.137   4.944  1.00  0.00     0.152 C 
BRANCH  30  31
HETATM   31  O1  UNL     1      16.189  13.071   5.840  1.00  0.00    -0.348 OA
ATOM     32  H1  UNL     1      16.051  13.977   5.592  1.00  0.00     0.219 HD
ENDBRANCH  30  31
BRANCH  30  33
HETATM   33  C7  UNL     1      16.123  12.246   3.551  1.00  0.00     0.311 C 
BRANCH  33  34
HETATM   34  N7  UNL     1      15.353  11.448   2.612  1.00  0.00    -0.063 N 
ATOM     35  H73 UNL     1      15.070  10.566   3.038  1.00  0.00     0.275 HD
ATOM     36  H72 UNL     1      14.435  11.864   2.454  1.00  0.00     0.275 HD
ATOM     37  H71 UNL     1      15.828  11.282   1.724  1.00  0.00     0.275 HD
ENDBRANCH  33  34
BRANCH  33  38
HETATM   38  C8  UNL     1      16.382  13.621   3.020  1.00  0.00     0.292 C 
BRANCH  38  39
HETATM   39  O2  UNL     1      17.481  14.165   3.705  1.00  0.00    -0.369 OA
ATOM     40  H2  UNL     1      18.110  13.472   3.867  1.00  0.00     0.212 HD
ENDBRANCH  38  39
BRANCH  38  41
HETATM   41  O3  UNL     1      15.312  14.492   3.318  1.00  0.00    -0.369 OA
ATOM     42  H3  UNL     1      15.033  14.968   2.545  1.00  0.00     0.212 HD
ENDBRANCH  38  41
ENDBRANCH  33  38
ENDBRANCH  30  33
ENDBRANCH  28  30
ENDBRANCH   7  28
TORSDOF 11
ENDMDL
