MODEL 1
REMARK VINA RESULT: -8.126962160      0.000      0.000
REMARK  10 active torsions:
REMARK  status: ('A' for Active; 'I' for Inactive)
REMARK    1  A    between atoms: N1_1  and  C1_4 
REMARK    2  A    between atoms: C2_10  and  C3_11 
REMARK    3  A    between atoms: C4_14  and  N5_15 
REMARK    4  A    between atoms: C5_19  and  C6_20 
REMARK    5  A    between atoms: C6_20  and  C7_22 
REMARK    6  A    between atoms: C7_22  and  S1_23 
REMARK    7  A    between atoms: S1_23  and  C8_24 
REMARK    8  A    between atoms: C9_29  and  N10_30 
REMARK    9  A    between atoms: N11_33  and  N12_34 
REMARK   10  A    between atoms: C10_41  and  N15_42 
ROOT
HETATM    1  N5  UNL     1      14.520  14.477   8.643  1.00  0.00    -0.003 N 
HETATM    2  N6  UNL     1      15.607  14.087   9.286  1.00  0.00     0.018 NA
HETATM    3  N7  UNL     1      15.460  14.288  10.583  1.00  0.00    -0.263 N 
ATOM      4  H7  UNL     1      16.149  14.074  11.304  1.00  0.00     0.186 HD
HETATM    5  C5  UNL     1      14.249  14.823  10.785  1.00  0.00     0.182 A 
HETATM    6  N13 UNL     1      13.695  14.924   9.548  1.00  0.00    -0.247 N 
ATOM      7  H13 UNL     1      12.765  15.296   9.354  1.00  0.00     0.191 HD
ENDROOT
BRANCH   1   8
HETATM    8  C4  UNL     1      14.249  14.439   7.227  1.00  0.00     0.719 A 
HETATM    9  N4  UNL     1      15.114  13.901   6.390  1.00  0.00    -0.184 N 
HETATM   10  C3  UNL     1      14.910  13.835   5.014  1.00  0.00     0.109 A 
ATOM     11  H4  UNL     1      15.978  13.514   6.770  1.00  0.00     0.184 HD
HETATM   12  C11 UNL     1      13.768  14.346   4.499  1.00  0.00     0.120 A 
HETATM   13  C10 UNL     1      12.845  14.921   5.410  1.00  0.00     0.141 A 
HETATM   14  N16 UNL     1      13.351  14.388   3.153  1.00  0.00    -0.096 NA
HETATM   15  N14 UNL     1      13.122  14.943   6.716  1.00  0.00    -0.172 N 
ATOM     16  H14 UNL     1      12.443  15.362   7.352  1.00  0.00     0.186 HD
BRANCH  10  17
HETATM   17  C2  UNL     1      15.977  13.207   4.271  1.00  0.00     0.131 A 
HETATM   18  C1  UNL     1      16.159  12.055   3.606  1.00  0.00     0.152 A 
HETATM   19  N2  UNL     1      17.443  12.022   3.083  1.00  0.00    -0.224 N 
HETATM   20  O1  UNL     1      17.994  13.118   3.429  1.00  0.00    -0.155 OA
ATOM     21  H2  UNL     1      17.862  11.272   2.533  1.00  0.00     0.198 HD
HETATM   22  N3  UNL     1      17.201  13.853   4.120  1.00  0.00    -0.236 N 
ATOM     23  H3  UNL     1      17.432  14.770   4.501  1.00  0.00     0.197 HD
BRANCH  18  24
HETATM   24  N1  UNL     1      15.342  11.113   3.445  1.00  0.00    -0.382 N 
ATOM     25  H12 UNL     1      15.438  10.292   2.849  1.00  0.00     0.157 HD
ATOM     26  H11 UNL     1      14.444  11.081   3.928  1.00  0.00     0.157 HD
ENDBRANCH  18  24
ENDBRANCH  10  17
BRANCH  13  27
HETATM   27  N15 UNL     1      11.752  15.413   4.933  1.00  0.00    -0.383 N 
ATOM     28 2H15 UNL     1      11.330  16.202   5.422  1.00  0.00     0.157 HD
ATOM     29 1H15 UNL     1      11.309  15.037   4.094  1.00  0.00     0.157 HD
ENDBRANCH  13  27
ENDBRANCH   1   8
BRANCH   5  30
HETATM   30  C6  UNL     1      13.601  15.230  12.012  1.00  0.00     0.205 C 
HETATM   31  O2  UNL     1      13.985  14.728  13.093  1.00  0.00    -0.288 OA
BRANCH  30  32
HETATM   32  C7  UNL     1      12.501  16.220  12.024  1.00  0.00     0.169 C 
BRANCH  32  33
HETATM   33  S1  UNL     1      10.892  15.427  12.290  1.00  0.00    -0.082 SA
BRANCH  33  34
HETATM   34  C8  UNL     1      10.328  14.584  10.829  1.00  0.00     0.198 A 
HETATM   35  N8  UNL     1       9.939  13.297  10.806  1.00  0.00    -0.263 N 
HETATM   36  N9  UNL     1       9.579  12.972   9.582  1.00  0.00    -0.129 N 
ATOM     37  H8  UNL     1       9.925  12.671  11.611  1.00  0.00     0.189 HD
HETATM   38  C9  UNL     1       9.746  14.078   8.819  1.00  0.00     0.713 A 
ATOM     39  H9  UNL     1       9.240  12.063   9.268  1.00  0.00     0.205 HD
HETATM   40  N11 UNL     1      10.209  15.078   9.585  1.00  0.00    -0.068 N 
BRANCH  38  41
HETATM   41  N10 UNL     1       9.507  14.187   7.555  1.00  0.00    -0.231 N 
ATOM     42 2H10 UNL     1      10.103  13.795   6.826  1.00  0.00     0.174 HD
ATOM     43 1H10 UNL     1       8.716  14.664   7.124  1.00  0.00     0.174 HD
ENDBRANCH  38  41
BRANCH  40  44
HETATM   44  N12 UNL     1      10.514  16.398   9.176  1.00  0.00    -0.322 N 
ATOM     45 2H12 UNL     1      11.254  17.000   9.538  1.00  0.00     0.178 HD
ATOM     46 1H12 UNL     1      10.030  16.933   8.454  1.00  0.00     0.178 HD
ENDBRANCH  40  44
ENDBRANCH  33  34
ENDBRANCH  32  33
ENDBRANCH  30  32
ENDBRANCH   5  30
TORSDOF 10
ENDMDL
MODEL 2
REMARK VINA RESULT: -8.002821391      1.174      1.415
REMARK  10 active torsions:
REMARK  status: ('A' for Active; 'I' for Inactive)
REMARK    1  A    between atoms: N1_1  and  C1_4 
REMARK    2  A    between atoms: C2_10  and  C3_11 
REMARK    3  A    between atoms: C4_14  and  N5_15 
REMARK    4  A    between atoms: C5_19  and  C6_20 
REMARK    5  A    between atoms: C6_20  and  C7_22 
REMARK    6  A    between atoms: C7_22  and  S1_23 
REMARK    7  A    between atoms: S1_23  and  C8_24 
REMARK    8  A    between atoms: C9_29  and  N10_30 
REMARK    9  A    between atoms: N11_33  and  N12_34 
REMARK   10  A    between atoms: C10_41  and  N15_42 
ROOT
HETATM    1  N5  UNL     1      14.346  14.137   8.217  1.00  0.00    -0.003 N 
HETATM    2  N6  UNL     1      15.403  13.911   8.976  1.00  0.00     0.018 NA
HETATM    3  N7  UNL     1      15.229  14.455  10.167  1.00  0.00    -0.263 N 
ATOM      4  H7  UNL     1      15.893  14.427  10.941  1.00  0.00     0.186 HD
HETATM    5  C5  UNL     1      14.029  15.050  10.178  1.00  0.00     0.182 A 
HETATM    6  N13 UNL     1      13.511  14.828   8.942  1.00  0.00    -0.247 N 
ATOM      7  H13 UNL     1      12.598  15.155   8.625  1.00  0.00     0.191 HD
ENDROOT
BRANCH   1   8
HETATM    8  C4  UNL     1      14.110  13.727   6.854  1.00  0.00     0.719 A 
HETATM    9  N4  UNL     1      15.119  13.481   6.042  1.00  0.00    -0.184 N 
HETATM   10  C3  UNL     1      14.957  13.083   4.717  1.00  0.00     0.109 A 
ATOM     11  H4  UNL     1      16.067  13.588   6.402  1.00  0.00     0.184 HD
HETATM   12  C11 UNL     1      13.703  12.938   4.229  1.00  0.00     0.120 A 
HETATM   13  C10 UNL     1      12.627  13.205   5.114  1.00  0.00     0.141 A 
HETATM   14  N16 UNL     1      13.302  12.547   2.935  1.00  0.00    -0.096 NA
HETATM   15  N14 UNL     1      12.874  13.584   6.370  1.00  0.00    -0.172 N 
ATOM     16  H14 UNL     1      12.083  13.771   6.988  1.00  0.00     0.186 HD
BRANCH  10  17
HETATM   17  C2  UNL     1      16.187  12.863   3.994  1.00  0.00     0.131 A 
HETATM   18  C1  UNL     1      17.005  13.586   3.213  1.00  0.00     0.152 A 
HETATM   19  N2  UNL     1      18.064  12.795   2.795  1.00  0.00    -0.224 N 
HETATM   20  O1  UNL     1      17.874  11.647   3.315  1.00  0.00    -0.155 OA
ATOM     21  H2  UNL     1      18.839  13.075   2.194  1.00  0.00     0.198 HD
HETATM   22  N3  UNL     1      16.804  11.615   4.022  1.00  0.00    -0.236 N 
ATOM     23  H3  UNL     1      16.458  10.800   4.528  1.00  0.00     0.197 HD
BRANCH  18  24
HETATM   24  N1  UNL     1      16.888  14.791   2.871  1.00  0.00    -0.382 N 
ATOM     25  H12 UNL     1      17.293  15.257   2.060  1.00  0.00     0.157 HD
ATOM     26  H11 UNL     1      16.343  15.461   3.413  1.00  0.00     0.157 HD
ENDBRANCH  18  24
ENDBRANCH  10  17
BRANCH  13  27
HETATM   27  N15 UNL     1      11.426  13.072   4.661  1.00  0.00    -0.383 N 
ATOM     28 2H15 UNL     1      11.224  12.263   4.073  1.00  0.00     0.157 HD
ATOM     29 1H15 UNL     1      10.689  13.745   4.872  1.00  0.00     0.157 HD
ENDBRANCH  13  27
ENDBRANCH   1   8
BRANCH   5  30
HETATM   30  C6  UNL     1      13.362  15.785  11.230  1.00  0.00     0.205 C 
HETATM   31  O2  UNL     1      13.267  17.030  11.131  1.00  0.00    -0.288 OA
BRANCH  30  32
HETATM   32  C7  UNL     1      12.792  15.108  12.416  1.00  0.00     0.169 C 
BRANCH  32  33
HETATM   33  S1  UNL     1      10.979  15.135  12.392  1.00  0.00    -0.082 SA
BRANCH  33  34
HETATM   34  C8  UNL     1      10.333  14.442  10.887  1.00  0.00     0.198 A 
HETATM   35  N8  UNL     1       9.918  13.169  10.762  1.00  0.00    -0.263 N 
HETATM   36  N9  UNL     1       9.498  12.966   9.531  1.00  0.00    -0.129 N 
ATOM     37  H8  UNL     1       9.928  12.471  11.505  1.00  0.00     0.189 HD
HETATM   38  C9  UNL     1       9.652  14.136   8.868  1.00  0.00     0.713 A 
ATOM     39  H9  UNL     1       9.127  12.096   9.151  1.00  0.00     0.205 HD
HETATM   40  N11 UNL     1      10.168  15.052   9.701  1.00  0.00    -0.068 N 
BRANCH  38  41
HETATM   41  N10 UNL     1       9.359  14.367   7.632  1.00  0.00    -0.231 N 
ATOM     42 2H10 UNL     1       8.853  13.714   7.034  1.00  0.00     0.174 HD
ATOM     43 1H10 UNL     1       9.585  15.207   7.099  1.00  0.00     0.174 HD
ENDBRANCH  38  41
BRANCH  40  44
HETATM   44  N12 UNL     1      10.481  16.400   9.404  1.00  0.00    -0.322 N 
ATOM     45 2H12 UNL     1      10.961  17.069  10.006  1.00  0.00     0.178 HD
ATOM     46 1H12 UNL     1      10.268  16.891   8.535  1.00  0.00     0.178 HD
ENDBRANCH  40  44
ENDBRANCH  33  34
ENDBRANCH  32  33
ENDBRANCH  30  32
ENDBRANCH   5  30
TORSDOF 10
ENDMDL
MODEL 3
REMARK VINA RESULT: -7.919968604      3.004      4.344
REMARK  10 active torsions:
REMARK  status: ('A' for Active; 'I' for Inactive)
REMARK    1  A    between atoms: N1_1  and  C1_4 
REMARK    2  A    between atoms: C2_10  and  C3_11 
REMARK    3  A    between atoms: C4_14  and  N5_15 
REMARK    4  A    between atoms: C5_19  and  C6_20 
REMARK    5  A    between atoms: C6_20  and  C7_22 
REMARK    6  A    between atoms: C7_22  and  S1_23 
REMARK    7  A    between atoms: S1_23  and  C8_24 
REMARK    8  A    between atoms: C9_29  and  N10_30 
REMARK    9  A    between atoms: N11_33  and  N12_34 
REMARK   10  A    between atoms: C10_41  and  N15_42 
ROOT
HETATM    1  N5  UNL     1      14.383  14.201   8.693  1.00  0.00    -0.003 N 
HETATM    2  N6  UNL     1      15.524  14.021   9.335  1.00  0.00     0.018 NA
HETATM    3  N7  UNL     1      15.406  14.423  10.587  1.00  0.00    -0.263 N 
ATOM      4  H7  UNL     1      16.137  14.394  11.297  1.00  0.00     0.186 HD
HETATM    5  C5  UNL     1      14.157  14.877  10.760  1.00  0.00     0.182 A 
HETATM    6  N13 UNL     1      13.552  14.720   9.553  1.00  0.00    -0.247 N 
ATOM      7  H13 UNL     1      12.585  14.972   9.349  1.00  0.00     0.191 HD
ENDROOT
BRANCH   1   8
HETATM    8  C4  UNL     1      14.066  13.903   7.318  1.00  0.00     0.719 A 
HETATM    9  N4  UNL     1      15.011  13.542   6.472  1.00  0.00    -0.184 N 
HETATM   10  C3  UNL     1      14.769  13.242   5.134  1.00  0.00     0.109 A 
ATOM     11  H4  UNL     1      15.969  13.480   6.816  1.00  0.00     0.184 HD
HETATM   12  C11 UNL     1      13.501  13.322   4.668  1.00  0.00     0.120 A 
HETATM   13  C10 UNL     1      12.493  13.710   5.588  1.00  0.00     0.141 A 
HETATM   14  N16 UNL     1      13.024  13.065   3.366  1.00  0.00    -0.096 NA
HETATM   15  N14 UNL     1      12.815  13.981   6.855  1.00  0.00    -0.172 N 
ATOM     16  H14 UNL     1      12.074  14.259   7.498  1.00  0.00     0.186 HD
BRANCH  10  17
HETATM   17  C2  UNL     1      15.937  12.868   4.374  1.00  0.00     0.131 A 
HETATM   18  C1  UNL     1      16.852  13.493   3.615  1.00  0.00     0.152 A 
HETATM   19  N2  UNL     1      17.764  12.566   3.134  1.00  0.00    -0.224 N 
HETATM   20  O1  UNL     1      17.397  11.436   3.596  1.00  0.00    -0.155 OA
ATOM     21  H2  UNL     1      18.567  12.751   2.532  1.00  0.00     0.198 HD
HETATM   22  N3  UNL     1      16.344  11.537   4.323  1.00  0.00    -0.236 N 
ATOM     23  H3  UNL     1      15.877  10.762   4.791  1.00  0.00     0.197 HD
BRANCH  18  24
HETATM   24  N1  UNL     1      16.928  14.717   3.341  1.00  0.00    -0.382 N 
ATOM     25  H12 UNL     1      17.304  15.152   2.499  1.00  0.00     0.157 HD
ATOM     26  H11 UNL     1      16.601  15.441   3.981  1.00  0.00     0.157 HD
ENDBRANCH  18  24
ENDBRANCH  10  17
BRANCH  13  27
HETATM   27  N15 UNL     1      11.280  13.791   5.156  1.00  0.00    -0.383 N 
ATOM     28 2H15 UNL     1      10.545  14.001   5.832  1.00  0.00     0.157 HD
ATOM     29 1H15 UNL     1      11.044  13.652   4.173  1.00  0.00     0.157 HD
ENDBRANCH  13  27
ENDBRANCH   1   8
BRANCH   5  30
HETATM   30  C6  UNL     1      13.518  15.426  11.935  1.00  0.00     0.205 C 
HETATM   31  O2  UNL     1      13.858  14.999  13.063  1.00  0.00    -0.288 OA
BRANCH  30  32
HETATM   32  C7  UNL     1      12.478  16.474  11.842  1.00  0.00     0.169 C 
BRANCH  32  33
HETATM   33  S1  UNL     1      13.207  18.124  11.655  1.00  0.00    -0.082 SA
BRANCH  33  34
HETATM   34  C8  UNL     1      14.182  18.573  13.073  1.00  0.00     0.198 A 
HETATM   35  N8  UNL     1      15.308  17.939  13.443  1.00  0.00    -0.263 N 
HETATM   36  N9  UNL     1      15.793  18.508  14.527  1.00  0.00    -0.129 N 
ATOM     37  H8  UNL     1      15.721  17.141  12.960  1.00  0.00     0.189 HD
HETATM   38  C9  UNL     1      14.954  19.521  14.844  1.00  0.00     0.713 A 
ATOM     39  H9  UNL     1      16.638  18.237  15.030  1.00  0.00     0.205 HD
HETATM   40  N11 UNL     1      13.956  19.567  13.949  1.00  0.00    -0.068 N 
BRANCH  38  41
HETATM   41  N10 UNL     1      15.068  20.333  15.841  1.00  0.00    -0.231 N 
ATOM     42 2H10 UNL     1      15.810  21.028  15.930  1.00  0.00     0.174 HD
ATOM     43 1H10 UNL     1      14.453  20.391  16.653  1.00  0.00     0.174 HD
ENDBRANCH  38  41
BRANCH  40  44
HETATM   44  N12 UNL     1      12.874  20.478  13.920  1.00  0.00    -0.322 N 
ATOM     45 2H12 UNL     1      11.881  20.254  13.844  1.00  0.00     0.178 HD
ATOM     46 1H12 UNL     1      12.939  21.495  13.974  1.00  0.00     0.178 HD
ENDBRANCH  40  44
ENDBRANCH  33  34
ENDBRANCH  32  33
ENDBRANCH  30  32
ENDBRANCH   5  30
TORSDOF 10
ENDMDL
MODEL 4
REMARK VINA RESULT: -7.897368626      4.941      7.221
REMARK  10 active torsions:
REMARK  status: ('A' for Active; 'I' for Inactive)
REMARK    1  A    between atoms: N1_1  and  C1_4 
REMARK    2  A    between atoms: C2_10  and  C3_11 
REMARK    3  A    between atoms: C4_14  and  N5_15 
REMARK    4  A    between atoms: C5_19  and  C6_20 
REMARK    5  A    between atoms: C6_20  and  C7_22 
REMARK    6  A    between atoms: C7_22  and  S1_23 
REMARK    7  A    between atoms: S1_23  and  C8_24 
REMARK    8  A    between atoms: C9_29  and  N10_30 
REMARK    9  A    between atoms: N11_33  and  N12_34 
REMARK   10  A    between atoms: C10_41  and  N15_42 
ROOT
HETATM    1  N5  UNL     1      13.019  17.959  12.512  1.00  0.00    -0.003 N 
HETATM    2  N6  UNL     1      12.445  19.127  12.738  1.00  0.00     0.018 NA
HETATM    3  N7  UNL     1      13.248  19.894  13.453  1.00  0.00    -0.263 N 
ATOM      4  H7  UNL     1      13.049  20.844  13.765  1.00  0.00     0.186 HD
HETATM    5  C5  UNL     1      14.370  19.203  13.698  1.00  0.00     0.182 A 
HETATM    6  N13 UNL     1      14.186  18.001  13.092  1.00  0.00    -0.247 N 
ATOM      7  H13 UNL     1      14.864  17.238  13.091  1.00  0.00     0.191 HD
ENDROOT
BRANCH   1   8
HETATM    8  C4  UNL     1      12.504  16.828  11.779  1.00  0.00     0.719 A 
HETATM    9  N4  UNL     1      13.229  16.245  10.845  1.00  0.00    -0.184 N 
HETATM   10  C3  UNL     1      12.788  15.152  10.103  1.00  0.00     0.109 A 
ATOM     11  H4  UNL     1      14.161  16.614  10.656  1.00  0.00     0.184 HD
HETATM   12  C11 UNL     1      11.554  14.655  10.346  1.00  0.00     0.120 A 
HETATM   13  C10 UNL     1      10.784  15.291  11.354  1.00  0.00     0.141 A 
HETATM   14  N16 UNL     1      10.905  13.567   9.727  1.00  0.00    -0.096 NA
HETATM   15  N14 UNL     1      11.285  16.336  12.017  1.00  0.00    -0.172 N 
ATOM     16  H14 UNL     1      10.713  16.777  12.737  1.00  0.00     0.186 HD
BRANCH  10  17
HETATM   17  C2  UNL     1      13.732  14.659   9.128  1.00  0.00     0.131 A 
HETATM   18  C1  UNL     1      13.725  14.382   7.814  1.00  0.00     0.152 A 
HETATM   19  N2  UNL     1      14.976  13.921   7.433  1.00  0.00    -0.224 N 
HETATM   20  O1  UNL     1      15.692  13.929   8.488  1.00  0.00    -0.155 OA
ATOM     21  H2  UNL     1      15.266  13.634   6.498  1.00  0.00     0.198 HD
HETATM   22  N3  UNL     1      15.034  14.345   9.508  1.00  0.00    -0.236 N 
ATOM     23  H3  UNL     1      15.407  14.433  10.452  1.00  0.00     0.197 HD
BRANCH  18  24
HETATM   24  N1  UNL     1      12.774  14.496   7.001  1.00  0.00    -0.382 N 
ATOM     25  H12 UNL     1      12.686  14.083   6.073  1.00  0.00     0.157 HD
ATOM     26  H11 UNL     1      11.944  15.052   7.206  1.00  0.00     0.157 HD
ENDBRANCH  18  24
ENDBRANCH  10  17
BRANCH  13  27
HETATM   27  N15 UNL     1       9.604  14.828  11.595  1.00  0.00    -0.383 N 
ATOM     28 2H15 UNL     1       9.522  14.043  12.242  1.00  0.00     0.157 HD
ATOM     29 1H15 UNL     1       8.768  15.220  11.161  1.00  0.00     0.157 HD
ENDBRANCH  13  27
ENDBRANCH   1   8
BRANCH   5  30
HETATM   30  C6  UNL     1      15.557  19.581  14.432  1.00  0.00     0.205 C 
HETATM   31  O2  UNL     1      16.019  18.787  15.284  1.00  0.00    -0.288 OA
BRANCH  30  32
HETATM   32  C7  UNL     1      16.237  20.876  14.206  1.00  0.00     0.169 C 
BRANCH  32  33
HETATM   33  S1  UNL     1      17.612  20.713  13.035  1.00  0.00    -0.082 SA
BRANCH  33  34
HETATM   34  C8  UNL     1      17.103  21.081  11.372  1.00  0.00     0.198 A 
HETATM   35  N8  UNL     1      15.925  20.702  10.845  1.00  0.00    -0.263 N 
HETATM   36  N9  UNL     1      15.847  21.126   9.600  1.00  0.00    -0.129 N 
ATOM     37  H8  UNL     1      15.205  20.170  11.333  1.00  0.00     0.189 HD
HETATM   38  C9  UNL     1      17.001  21.784   9.340  1.00  0.00     0.713 A 
ATOM     39  H9  UNL     1      15.069  20.985   8.957  1.00  0.00     0.205 HD
HETATM   40  N11 UNL     1      17.781  21.760  10.431  1.00  0.00    -0.068 N 
BRANCH  38  41
HETATM   41  N10 UNL     1      17.329  22.357   8.230  1.00  0.00    -0.231 N 
ATOM     42 2H10 UNL     1      16.870  23.188   7.859  1.00  0.00     0.174 HD
ATOM     43 1H10 UNL     1      18.069  22.066   7.591  1.00  0.00     0.174 HD
ENDBRANCH  38  41
BRANCH  40  44
HETATM   44  N12 UNL     1      19.066  22.334  10.577  1.00  0.00    -0.322 N 
ATOM     45 2H12 UNL     1      19.961  21.844  10.603  1.00  0.00     0.178 HD
ATOM     46 1H12 UNL     1      19.276  23.328  10.677  1.00  0.00     0.178 HD
ENDBRANCH  40  44
ENDBRANCH  33  34
ENDBRANCH  32  33
ENDBRANCH  30  32
ENDBRANCH   5  30
TORSDOF 10
ENDMDL
MODEL 5
REMARK VINA RESULT: -7.882250298      2.778      4.045
REMARK  10 active torsions:
REMARK  status: ('A' for Active; 'I' for Inactive)
REMARK    1  A    between atoms: N1_1  and  C1_4 
REMARK    2  A    between atoms: C2_10  and  C3_11 
REMARK    3  A    between atoms: C4_14  and  N5_15 
REMARK    4  A    between atoms: C5_19  and  C6_20 
REMARK    5  A    between atoms: C6_20  and  C7_22 
REMARK    6  A    between atoms: C7_22  and  S1_23 
REMARK    7  A    between atoms: S1_23  and  C8_24 
REMARK    8  A    between atoms: C9_29  and  N10_30 
REMARK    9  A    between atoms: N11_33  and  N12_34 
REMARK   10  A    between atoms: C10_41  and  N15_42 
ROOT
HETATM    1  N5  UNL     1      14.337  14.622   8.377  1.00  0.00    -0.003 N 
HETATM    2  N6  UNL     1      15.392  14.309   9.108  1.00  0.00     0.018 NA
HETATM    3  N7  UNL     1      15.113  14.457  10.391  1.00  0.00    -0.263 N 
ATOM      4  H7  UNL     1      15.752  14.283  11.167  1.00  0.00     0.186 HD
HETATM    5  C5  UNL     1      13.845  14.877  10.492  1.00  0.00     0.182 A 
HETATM    6  N13 UNL     1      13.397  14.966   9.212  1.00  0.00    -0.247 N 
ATOM      7  H13 UNL     1      12.458  15.261   8.943  1.00  0.00     0.191 HD
ENDROOT
BRANCH   1   8
HETATM    8  C4  UNL     1      14.198  14.604   6.942  1.00  0.00     0.719 A 
HETATM    9  N4  UNL     1      15.093  14.000   6.186  1.00  0.00    -0.184 N 
HETATM   10  C3  UNL     1      15.015  13.948   4.797  1.00  0.00     0.109 A 
ATOM     11  H4  UNL     1      15.885  13.547   6.643  1.00  0.00     0.184 HD
HETATM   12  C11 UNL     1      13.969  14.545   4.181  1.00  0.00     0.120 A 
HETATM   13  C10 UNL     1      13.012  15.191   5.005  1.00  0.00     0.141 A 
HETATM   14  N16 UNL     1      13.684  14.619   2.802  1.00  0.00    -0.096 NA
HETATM   15  N14 UNL     1      13.166  15.193   6.331  1.00  0.00    -0.172 N 
ATOM     16  H14 UNL     1      12.465  15.664   6.903  1.00  0.00     0.186 HD
BRANCH  10  17
HETATM   17  C2  UNL     1      16.095  13.239   4.153  1.00  0.00     0.131 A 
HETATM   18  C1  UNL     1      16.265  12.047   3.558  1.00  0.00     0.152 A 
HETATM   19  N2  UNL     1      17.575  11.933   3.118  1.00  0.00    -0.224 N 
HETATM   20  O1  UNL     1      18.153  13.022   3.443  1.00  0.00    -0.155 OA
ATOM     21  H2  UNL     1      17.992  11.139   2.632  1.00  0.00     0.198 HD
HETATM   22  N3  UNL     1      17.354  13.824   4.047  1.00  0.00    -0.236 N 
ATOM     23  H3  UNL     1      17.603  14.749   4.396  1.00  0.00     0.197 HD
BRANCH  18  24
HETATM   24  N1  UNL     1      15.418  11.133   3.393  1.00  0.00    -0.382 N 
ATOM     25  H12 UNL     1      15.572  10.187   3.047  1.00  0.00     0.157 HD
ATOM     26  H11 UNL     1      14.428  11.262   3.603  1.00  0.00     0.157 HD
ENDBRANCH  18  24
ENDBRANCH  10  17
BRANCH  13  27
HETATM   27  N15 UNL     1      12.010  15.766   4.430  1.00  0.00    -0.383 N 
ATOM     28 2H15 UNL     1      11.940  16.782   4.496  1.00  0.00     0.157 HD
ATOM     29 1H15 UNL     1      11.300  15.238   3.923  1.00  0.00     0.157 HD
ENDBRANCH  13  27
ENDBRANCH   1   8
BRANCH   5  30
HETATM   30  C6  UNL     1      13.056  15.187  11.664  1.00  0.00     0.205 C 
HETATM   31  O2  UNL     1      13.149  14.445  12.669  1.00  0.00    -0.288 OA
BRANCH  30  32
HETATM   32  C7  UNL     1      12.146  16.353  11.707  1.00  0.00     0.169 C 
BRANCH  32  33
HETATM   33  S1  UNL     1      13.033  17.905  11.400  1.00  0.00    -0.082 SA
BRANCH  33  34
HETATM   34  C8  UNL     1      14.000  18.396  12.809  1.00  0.00     0.198 A 
HETATM   35  N8  UNL     1      15.104  17.752  13.226  1.00  0.00    -0.263 N 
HETATM   36  N9  UNL     1      15.589  18.358  14.289  1.00  0.00    -0.129 N 
ATOM     37  H8  UNL     1      15.503  16.922  12.787  1.00  0.00     0.189 HD
HETATM   38  C9  UNL     1      14.772  19.407  14.546  1.00  0.00     0.713 A 
ATOM     39  H9  UNL     1      16.419  18.090  14.816  1.00  0.00     0.205 HD
HETATM   40  N11 UNL     1      13.788  19.435  13.635  1.00  0.00    -0.068 N 
BRANCH  38  41
HETATM   41  N10 UNL     1      14.893  20.262  15.506  1.00  0.00    -0.231 N 
ATOM     42 2H10 UNL     1      15.089  21.253  15.366  1.00  0.00     0.174 HD
ATOM     43 1H10 UNL     1      14.812  20.071  16.505  1.00  0.00     0.174 HD
ENDBRANCH  38  41
BRANCH  40  44
HETATM   44  N12 UNL     1      12.730  20.371  13.547  1.00  0.00    -0.322 N 
ATOM     45 2H12 UNL     1      11.759  20.182  13.296  1.00  0.00     0.178 HD
ATOM     46 1H12 UNL     1      12.794  21.373  13.728  1.00  0.00     0.178 HD
ENDBRANCH  40  44
ENDBRANCH  33  34
ENDBRANCH  32  33
ENDBRANCH  30  32
ENDBRANCH   5  30
TORSDOF 10
ENDMDL
