MODEL 1
REMARK VINA RESULT: -7.328860752      0.000      0.000
REMARK  12 active torsions:
REMARK  status: ('A' for Active; 'I' for Inactive)
REMARK    1  A    between atoms: O1_2  and  C2_3 
REMARK    2  A    between atoms: C2_3  and  C3_5 
REMARK    3  A    between atoms: C3_5  and  N1_6 
REMARK    4  A    between atoms: C5_9  and  C6_10 
REMARK    5  A    between atoms: C6_10  and  N3_11 
REMARK    6  A    between atoms: C6_10  and  N4_15 
REMARK    7  A    between atoms: N5_19  and  N6_20 
REMARK       I    between atoms: N6_20  and  C7_22 
REMARK    8  A    between atoms: C7_22  and  C8_24 
REMARK    9  A    between atoms: C12_31  and  N8_32 
REMARK   10  A    between atoms: N8_32  and  N9_34 
REMARK   11  A    between atoms: N9_34  and  C13_36 
REMARK   12  A    between atoms: C14_39  and  O5_40 
ROOT
HETATM    1  N1  UNL     1      10.057  14.589   7.804  1.00  0.00    -0.156 N 
HETATM    2  C4  UNL     1       9.490  14.482   6.584  1.00  0.00     0.164 A 
HETATM    3  N2  UNL     1       8.083  14.550   6.342  1.00  0.00    -0.080 NA
HETATM    4  C5  UNL     1      10.490  14.301   5.649  1.00  0.00     0.151 A 
HETATM    5  N5  UNL     1      11.692  14.297   6.316  1.00  0.00    -0.079 N 
HETATM    6  C12 UNL     1      11.402  14.473   7.614  1.00  0.00     0.723 A 
ENDROOT
BRANCH   6   7
HETATM    7  N8  UNL     1      12.217  14.515   8.584  1.00  0.00    -0.116 N 
ATOM      8  H8  UNL     1      12.273  13.631   9.090  1.00  0.00     0.206 HD
BRANCH   7   9
HETATM    9  N9  UNL     1      13.023  15.459   9.097  1.00  0.00    -0.116 N 
ATOM     10  H9  UNL     1      13.080  16.371   8.645  1.00  0.00     0.206 HD
BRANCH   9  11
HETATM   11  C13 UNL     1      13.739  15.225  10.170  1.00  0.00     0.715 A 
HETATM   12  N10 UNL     1      14.593  14.198  10.370  1.00  0.00    -0.151 N 
HETATM   13  C14 UNL     1      15.132  14.310  11.597  1.00  0.00     0.251 A 
ATOM     14  H10 UNL     1      14.796  13.458   9.699  1.00  0.00     0.188 HD
HETATM   15  N11 UNL     1      14.626  15.396  12.167  1.00  0.00    -0.250 N 
HETATM   16  N12 UNL     1      13.781  15.953  11.303  1.00  0.00    -0.128 N 
ATOM     17  H11 UNL     1      14.846  15.742  13.101  1.00  0.00     0.191 HD
ATOM     18  H12 UNL     1      13.245  16.804  11.473  1.00  0.00     0.205 HD
BRANCH  13  19
HETATM   19  O5  UNL     1      16.055  13.450  12.178  1.00  0.00    -0.331 OA
ATOM     20  H5  UNL     1      16.841  13.698  12.651  1.00  0.00     0.221 HD
ENDBRANCH  13  19
ENDBRANCH   9  11
ENDBRANCH   7   9
ENDBRANCH   6   7
BRANCH   1  21
HETATM   21  C3  UNL     1       9.347  14.780   9.049  1.00  0.00     0.260 C 
BRANCH  21  22
HETATM   22  C2  UNL     1       9.513  13.564   9.912  1.00  0.00     0.277 C 
HETATM   23  O2  UNL     1       8.840  12.532   9.658  1.00  0.00    -0.263 OA
BRANCH  22  24
HETATM   24  O1  UNL     1      10.374  13.522  10.979  1.00  0.00    -0.325 OA
HETATM   25  C1  UNL     1      10.479  14.615  11.905  1.00  0.00     0.213 C 
ENDBRANCH  22  24
ENDBRANCH  21  22
ENDBRANCH   1  21
BRANCH   5  26
HETATM   26  N6  UNL     1      12.910  14.104   5.694  1.00  0.00    -0.243 N 
HETATM   27  C7  UNL     1      14.126  13.613   6.138  1.00  0.00     0.289 C 
HETATM   28  O3  UNL     1      14.393  13.213   7.278  1.00  0.00    -0.264 OA
ATOM     29  H6  UNL     1      12.914  14.377   4.711  1.00  0.00     0.191 HD
BRANCH  27  30
HETATM   30  C8  UNL     1      15.262  13.544   5.161  1.00  0.00     0.126 A 
HETATM   31  C9  UNL     1      16.046  12.483   4.849  1.00  0.00     0.071 A 
HETATM   32  C10 UNL     1      16.943  12.907   3.908  1.00  0.00     0.075 A 
HETATM   33  C11 UNL     1      18.011  12.121   3.247  1.00  0.00     0.079 C 
HETATM   34  O4  UNL     1      16.693  14.166   3.678  1.00  0.00    -0.242 OA
HETATM   35  N7  UNL     1      15.692  14.570   4.415  1.00  0.00    -0.256 N 
ATOM     36  H7  UNL     1      15.302  15.513   4.421  1.00  0.00     0.195 HD
ENDBRANCH  27  30
ENDBRANCH   5  26
BRANCH   4  37
HETATM   37  C6  UNL     1      10.234  14.135   4.187  1.00  0.00     0.433 C 
BRANCH  37  38
HETATM   38  N3  UNL     1       9.651  12.886   3.820  1.00  0.00    -0.045 N 
ATOM     39  H33 UNL     1      10.366  12.160   3.781  1.00  0.00     0.277 HD
ATOM     40  H32 UNL     1       9.077  12.527   4.583  1.00  0.00     0.277 HD
ATOM     41  H31 UNL     1       9.115  12.903   2.952  1.00  0.00     0.277 HD
ENDBRANCH  37  38
BRANCH  37  42
HETATM   42  N4  UNL     1       9.456  15.272   3.684  1.00  0.00    -0.045 N 
ATOM     43  H43 UNL     1       8.906  15.715   4.420  1.00  0.00     0.277 HD
ATOM     44  H42 UNL     1      10.050  16.066   3.444  1.00  0.00     0.277 HD
ATOM     45  H41 UNL     1       8.876  14.975   2.898  1.00  0.00     0.277 HD
ENDBRANCH  37  42
ENDBRANCH   4  37
TORSDOF 12
ENDMDL
MODEL 2
REMARK VINA RESULT: -7.218076809      1.126      1.142
REMARK  12 active torsions:
REMARK  status: ('A' for Active; 'I' for Inactive)
REMARK    1  A    between atoms: O1_2  and  C2_3 
REMARK    2  A    between atoms: C2_3  and  C3_5 
REMARK    3  A    between atoms: C3_5  and  N1_6 
REMARK    4  A    between atoms: C5_9  and  C6_10 
REMARK    5  A    between atoms: C6_10  and  N3_11 
REMARK    6  A    between atoms: C6_10  and  N4_15 
REMARK    7  A    between atoms: N5_19  and  N6_20 
REMARK       I    between atoms: N6_20  and  C7_22 
REMARK    8  A    between atoms: C7_22  and  C8_24 
REMARK    9  A    between atoms: C12_31  and  N8_32 
REMARK   10  A    between atoms: N8_32  and  N9_34 
REMARK   11  A    between atoms: N9_34  and  C13_36 
REMARK   12  A    between atoms: C14_39  and  O5_40 
ROOT
HETATM    1  N1  UNL     1      10.413  14.563   7.395  1.00  0.00    -0.156 N 
HETATM    2  C4  UNL     1       9.760  14.344   6.234  1.00  0.00     0.164 A 
HETATM    3  N2  UNL     1       8.354  14.533   6.055  1.00  0.00    -0.080 NA
HETATM    4  C5  UNL     1      10.673  13.920   5.289  1.00  0.00     0.151 A 
HETATM    5  N5  UNL     1      11.909  13.878   5.889  1.00  0.00    -0.079 N 
HETATM    6  C12 UNL     1      11.724  14.271   7.158  1.00  0.00     0.723 A 
ENDROOT
BRANCH   6   7
HETATM    7  N8  UNL     1      12.601  14.362   8.069  1.00  0.00    -0.116 N 
ATOM      8  H8  UNL     1      12.985  13.456   8.337  1.00  0.00     0.206 HD
BRANCH   7   9
HETATM    9  N9  UNL     1      13.138  15.379   8.761  1.00  0.00    -0.116 N 
ATOM     10  H9  UNL     1      13.057  16.330   8.402  1.00  0.00     0.206 HD
BRANCH   9  11
HETATM   11  C13 UNL     1      13.767  15.169   9.892  1.00  0.00     0.715 A 
HETATM   12  N10 UNL     1      14.540  14.107  10.208  1.00  0.00    -0.151 N 
HETATM   13  C14 UNL     1      15.004  14.261  11.461  1.00  0.00     0.251 A 
ATOM     14  H10 UNL     1      14.739  13.317   9.595  1.00  0.00     0.188 HD
HETATM   15  N11 UNL     1      14.531  15.407  11.933  1.00  0.00    -0.250 N 
HETATM   16  N12 UNL     1      13.781  15.960  10.983  1.00  0.00    -0.128 N 
ATOM     17  H11 UNL     1      14.711  15.795  12.859  1.00  0.00     0.191 HD
ATOM     18  H12 UNL     1      13.289  16.849  11.068  1.00  0.00     0.205 HD
BRANCH  13  19
HETATM   19  O5  UNL     1      15.832  13.385  12.150  1.00  0.00    -0.331 OA
ATOM     20  H5  UNL     1      16.525  13.619  12.757  1.00  0.00     0.221 HD
ENDBRANCH  13  19
ENDBRANCH   9  11
ENDBRANCH   7   9
ENDBRANCH   6   7
BRANCH   1  21
HETATM   21  C3  UNL     1       9.810  15.009   8.631  1.00  0.00     0.260 C 
BRANCH  21  22
HETATM   22  C2  UNL     1       9.810  13.884   9.624  1.00  0.00     0.277 C 
HETATM   23  O2  UNL     1       8.933  12.987   9.539  1.00  0.00    -0.263 OA
BRANCH  22  24
HETATM   24  O1  UNL     1      10.734  13.786  10.634  1.00  0.00    -0.325 OA
HETATM   25  C1  UNL     1      10.645  14.595  11.816  1.00  0.00     0.213 C 
ENDBRANCH  22  24
ENDBRANCH  21  22
ENDBRANCH   1  21
BRANCH   5  26
HETATM   26  N6  UNL     1      13.057  13.463   5.243  1.00  0.00    -0.243 N 
HETATM   27  C7  UNL     1      13.703  12.241   5.165  1.00  0.00     0.289 C 
HETATM   28  O3  UNL     1      13.354  11.182   5.702  1.00  0.00    -0.264 OA
ATOM     29  H6  UNL     1      13.522  14.205   4.720  1.00  0.00     0.191 HD
BRANCH  27  30
HETATM   30  C8  UNL     1      14.960  12.154   4.353  1.00  0.00     0.126 A 
HETATM   31  C9  UNL     1      16.115  12.848   4.504  1.00  0.00     0.071 A 
HETATM   32  C10 UNL     1      16.972  12.423   3.527  1.00  0.00     0.075 A 
HETATM   33  C11 UNL     1      18.358  12.878   3.270  1.00  0.00     0.079 C 
HETATM   34  O4  UNL     1      16.343  11.516   2.832  1.00  0.00    -0.242 OA
HETATM   35  N7  UNL     1      15.139  11.337   3.306  1.00  0.00    -0.256 N 
ATOM     36  H7  UNL     1      14.449  10.682   2.940  1.00  0.00     0.195 HD
ENDBRANCH  27  30
ENDBRANCH   5  26
BRANCH   4  37
HETATM   37  C6  UNL     1      10.306  13.574   3.883  1.00  0.00     0.433 C 
BRANCH  37  38
HETATM   38  N3  UNL     1       9.397  12.482   3.754  1.00  0.00    -0.045 N 
ATOM     39  H33 UNL     1       9.868  11.603   3.971  1.00  0.00     0.277 HD
ATOM     40  H32 UNL     1       8.709  12.504   4.506  1.00  0.00     0.277 HD
ATOM     41  H31 UNL     1       8.930  12.419   2.849  1.00  0.00     0.277 HD
ENDBRANCH  37  38
BRANCH  37  42
HETATM   42  N4  UNL     1       9.827  14.771   3.183  1.00  0.00    -0.045 N 
ATOM     43  H43 UNL     1       9.006  15.175   3.634  1.00  0.00     0.277 HD
ATOM     44  H42 UNL     1      10.463  15.561   3.296  1.00  0.00     0.277 HD
ATOM     45  H41 UNL     1       9.657  14.554   2.200  1.00  0.00     0.277 HD
ENDBRANCH  37  42
ENDBRANCH   4  37
TORSDOF 12
ENDMDL
MODEL 3
REMARK VINA RESULT: -7.101293172      1.653      2.053
REMARK  12 active torsions:
REMARK  status: ('A' for Active; 'I' for Inactive)
REMARK    1  A    between atoms: O1_2  and  C2_3 
REMARK    2  A    between atoms: C2_3  and  C3_5 
REMARK    3  A    between atoms: C3_5  and  N1_6 
REMARK    4  A    between atoms: C5_9  and  C6_10 
REMARK    5  A    between atoms: C6_10  and  N3_11 
REMARK    6  A    between atoms: C6_10  and  N4_15 
REMARK    7  A    between atoms: N5_19  and  N6_20 
REMARK       I    between atoms: N6_20  and  C7_22 
REMARK    8  A    between atoms: C7_22  and  C8_24 
REMARK    9  A    between atoms: C12_31  and  N8_32 
REMARK   10  A    between atoms: N8_32  and  N9_34 
REMARK   11  A    between atoms: N9_34  and  C13_36 
REMARK   12  A    between atoms: C14_39  and  O5_40 
ROOT
HETATM    1  N1  UNL     1      10.972  14.482   9.316  1.00  0.00    -0.156 N 
HETATM    2  C4  UNL     1      10.174  14.694   8.248  1.00  0.00     0.164 A 
HETATM    3  N2  UNL     1       8.760  14.895   8.327  1.00  0.00    -0.080 NA
HETATM    4  C5  UNL     1      10.953  14.682   7.107  1.00  0.00     0.151 A 
HETATM    5  N5  UNL     1      12.254  14.456   7.491  1.00  0.00    -0.079 N 
HETATM    6  C12 UNL     1      12.237  14.339   8.827  1.00  0.00     0.723 A 
ENDROOT
BRANCH   6   7
HETATM    7  N8  UNL     1      13.222  14.109   9.590  1.00  0.00    -0.116 N 
ATOM      8  H8  UNL     1      13.472  13.120   9.623  1.00  0.00     0.206 HD
BRANCH   7   9
HETATM    9  N9  UNL     1      14.013  14.870  10.365  1.00  0.00    -0.116 N 
ATOM     10  H9  UNL     1      14.133  15.858  10.143  1.00  0.00     0.206 HD
BRANCH   9  11
HETATM   11  C13 UNL     1      14.633  14.362  11.402  1.00  0.00     0.715 A 
HETATM   12  N10 UNL     1      14.294  14.502  12.701  1.00  0.00    -0.151 N 
HETATM   13  C14 UNL     1      15.180  13.832  13.460  1.00  0.00     0.251 A 
ATOM     14  H10 UNL     1      13.495  15.031  13.051  1.00  0.00     0.188 HD
HETATM   15  N11 UNL     1      16.069  13.273  12.649  1.00  0.00    -0.250 N 
HETATM   16  N12 UNL     1      15.740  13.593  11.400  1.00  0.00    -0.128 N 
ATOM     17  H11 UNL     1      16.864  12.700  12.933  1.00  0.00     0.191 HD
ATOM     18  H12 UNL     1      16.248  13.299  10.566  1.00  0.00     0.205 HD
BRANCH  13  19
HETATM   19  O5  UNL     1      15.177  13.733  14.844  1.00  0.00    -0.331 OA
ATOM     20  H5  UNL     1      15.844  13.325  15.385  1.00  0.00     0.221 HD
ENDBRANCH  13  19
ENDBRANCH   9  11
ENDBRANCH   7   9
ENDBRANCH   6   7
BRANCH   1  21
HETATM   21  C3  UNL     1      10.537  14.416  10.693  1.00  0.00     0.260 C 
BRANCH  21  22
HETATM   22  C2  UNL     1      10.644  15.776  11.318  1.00  0.00     0.277 C 
HETATM   23  O2  UNL     1       9.597  16.439  11.533  1.00  0.00    -0.263 OA
BRANCH  22  24
HETATM   24  O1  UNL     1      11.844  16.338  11.671  1.00  0.00    -0.325 OA
HETATM   25  C1  UNL     1      11.966  17.743  11.941  1.00  0.00     0.213 C 
ENDBRANCH  22  24
ENDBRANCH  21  22
ENDBRANCH   1  21
BRANCH   5  26
HETATM   26  N6  UNL     1      13.304  14.347   6.601  1.00  0.00    -0.243 N 
HETATM   27  C7  UNL     1      13.880  13.268   5.953  1.00  0.00     0.289 C 
HETATM   28  O3  UNL     1      13.545  12.081   6.047  1.00  0.00    -0.264 OA
ATOM     29  H6  UNL     1      13.742  15.240   6.375  1.00  0.00     0.191 HD
BRANCH  27  30
HETATM   30  C8  UNL     1      15.036  13.527   5.033  1.00  0.00     0.126 A 
HETATM   31  C9  UNL     1      16.017  12.675   4.645  1.00  0.00     0.071 A 
HETATM   32  C10 UNL     1      16.842  13.366   3.803  1.00  0.00     0.075 A 
HETATM   33  C11 UNL     1      18.059  12.876   3.114  1.00  0.00     0.079 C 
HETATM   34  O4  UNL     1      16.364  14.576   3.702  1.00  0.00    -0.242 OA
HETATM   35  N7  UNL     1      15.284  14.696   4.428  1.00  0.00    -0.256 N 
ATOM     36  H7  UNL     1      14.722  15.543   4.518  1.00  0.00     0.195 HD
ENDBRANCH  27  30
ENDBRANCH   5  26
BRANCH   4  37
HETATM   37  C6  UNL     1      10.407  14.877   5.731  1.00  0.00     0.433 C 
BRANCH  37  38
HETATM   38  N3  UNL     1       9.422  13.923   5.339  1.00  0.00    -0.045 N 
ATOM     39  H33 UNL     1       8.503  14.201   5.684  1.00  0.00     0.277 HD
ATOM     40  H32 UNL     1       9.257  13.978   4.334  1.00  0.00     0.277 HD
ATOM     41  H31 UNL     1       9.626  12.961   5.611  1.00  0.00     0.277 HD
ENDBRANCH  37  38
BRANCH  37  42
HETATM   42  N4  UNL     1       9.927  16.254   5.574  1.00  0.00    -0.045 N 
ATOM     43  H43 UNL     1      10.173  16.839   6.374  1.00  0.00     0.277 HD
ATOM     44  H42 UNL     1      10.446  16.760   4.856  1.00  0.00     0.277 HD
ATOM     45  H41 UNL     1       8.923  16.255   5.394  1.00  0.00     0.277 HD
ENDBRANCH  37  42
ENDBRANCH   4  37
TORSDOF 12
ENDMDL
MODEL 4
REMARK VINA RESULT: -7.072913999      0.943      1.079
REMARK  12 active torsions:
REMARK  status: ('A' for Active; 'I' for Inactive)
REMARK    1  A    between atoms: O1_2  and  C2_3 
REMARK    2  A    between atoms: C2_3  and  C3_5 
REMARK    3  A    between atoms: C3_5  and  N1_6 
REMARK    4  A    between atoms: C5_9  and  C6_10 
REMARK    5  A    between atoms: C6_10  and  N3_11 
REMARK    6  A    between atoms: C6_10  and  N4_15 
REMARK    7  A    between atoms: N5_19  and  N6_20 
REMARK       I    between atoms: N6_20  and  C7_22 
REMARK    8  A    between atoms: C7_22  and  C8_24 
REMARK    9  A    between atoms: C12_31  and  N8_32 
REMARK   10  A    between atoms: N8_32  and  N9_34 
REMARK   11  A    between atoms: N9_34  and  C13_36 
REMARK   12  A    between atoms: C14_39  and  O5_40 
ROOT
HETATM    1  N1  UNL     1      10.073  14.645   7.626  1.00  0.00    -0.156 N 
HETATM    2  C4  UNL     1       9.533  14.371   6.420  1.00  0.00     0.164 A 
HETATM    3  N2  UNL     1       8.128  14.294   6.166  1.00  0.00    -0.080 NA
HETATM    4  C5  UNL     1      10.557  14.185   5.512  1.00  0.00     0.151 A 
HETATM    5  N5  UNL     1      11.746  14.350   6.181  1.00  0.00    -0.079 N 
HETATM    6  C12 UNL     1      11.425  14.626   7.454  1.00  0.00     0.723 A 
ENDROOT
BRANCH   6   7
HETATM    7  N8  UNL     1      12.221  14.833   8.419  1.00  0.00    -0.116 N 
ATOM      8  H8  UNL     1      12.049  15.723   8.887  1.00  0.00     0.206 HD
BRANCH   7   9
HETATM    9  N9  UNL     1      13.239  14.148   8.965  1.00  0.00    -0.116 N 
ATOM     10  H9  UNL     1      13.553  13.281   8.528  1.00  0.00     0.206 HD
BRANCH   9  11
HETATM   11  C13 UNL     1      13.835  14.575  10.051  1.00  0.00     0.715 A 
HETATM   12  N10 UNL     1      13.547  15.693  10.751  1.00  0.00    -0.151 N 
HETATM   13  C14 UNL     1      14.385  15.781  11.800  1.00  0.00     0.251 A 
ATOM     14  H10 UNL     1      12.813  16.362  10.521  1.00  0.00     0.188 HD
HETATM   15  N11 UNL     1      15.193  14.730  11.765  1.00  0.00    -0.250 N 
HETATM   16  N12 UNL     1      14.862  13.996  10.705  1.00  0.00    -0.128 N 
ATOM     17  H11 UNL     1      15.936  14.521  12.432  1.00  0.00     0.191 HD
ATOM     18  H12 UNL     1      15.317  13.126  10.429  1.00  0.00     0.205 HD
BRANCH  13  19
HETATM   19  O5  UNL     1      14.410  16.786  12.757  1.00  0.00    -0.331 OA
ATOM     20  H5  UNL     1      15.153  17.333  12.986  1.00  0.00     0.221 HD
ENDBRANCH  13  19
ENDBRANCH   9  11
ENDBRANCH   7   9
ENDBRANCH   6   7
BRANCH   1  21
HETATM   21  C3  UNL     1       9.334  14.896   8.843  1.00  0.00     0.260 C 
BRANCH  21  22
HETATM   22  C2  UNL     1       9.498  13.733   9.778  1.00  0.00     0.277 C 
HETATM   23  O2  UNL     1       8.726  12.746   9.674  1.00  0.00    -0.263 OA
BRANCH  22  24
HETATM   24  O1  UNL     1      10.462  13.695  10.753  1.00  0.00    -0.325 OA
HETATM   25  C1  UNL     1      10.429  14.584  11.879  1.00  0.00     0.213 C 
ENDBRANCH  22  24
ENDBRANCH  21  22
ENDBRANCH   1  21
BRANCH   5  26
HETATM   26  N6  UNL     1      12.983  14.202   5.587  1.00  0.00    -0.243 N 
HETATM   27  C7  UNL     1      13.826  13.115   5.425  1.00  0.00     0.289 C 
HETATM   28  O3  UNL     1      13.626  11.957   5.813  1.00  0.00    -0.264 OA
ATOM     29  H6  UNL     1      13.350  15.065   5.187  1.00  0.00     0.191 HD
BRANCH  27  30
HETATM   30  C8  UNL     1      15.128  13.326   4.710  1.00  0.00     0.126 A 
HETATM   31  C9  UNL     1      16.098  12.421   4.435  1.00  0.00     0.071 A 
HETATM   32  C10 UNL     1      17.091  13.083   3.768  1.00  0.00     0.075 A 
HETATM   33  C11 UNL     1      18.366  12.534   3.252  1.00  0.00     0.079 C 
HETATM   34  O4  UNL     1      16.715  14.328   3.658  1.00  0.00    -0.242 OA
HETATM   35  N7  UNL     1      15.544  14.498   4.213  1.00  0.00    -0.256 N 
ATOM     36  H7  UNL     1      15.032  15.379   4.259  1.00  0.00     0.195 HD
ENDBRANCH  27  30
ENDBRANCH   5  26
BRANCH   4  37
HETATM   37  C6  UNL     1      10.335  13.856   4.072  1.00  0.00     0.433 C 
BRANCH  37  38
HETATM   38  N3  UNL     1       9.655  12.624   3.839  1.00  0.00    -0.045 N 
ATOM     39  H33 UNL     1       8.841  12.548   4.450  1.00  0.00     0.277 HD
ATOM     40  H32 UNL     1       9.192  12.642   2.931  1.00  0.00     0.277 HD
ATOM     41  H31 UNL     1      10.239  11.791   3.922  1.00  0.00     0.277 HD
ENDBRANCH  37  38
BRANCH  37  42
HETATM   42  N4  UNL     1       9.677  14.981   3.398  1.00  0.00    -0.045 N 
ATOM     43  H43 UNL     1       8.686  15.043   3.635  1.00  0.00     0.277 HD
ATOM     44  H42 UNL     1       9.976  15.880   3.774  1.00  0.00     0.277 HD
ATOM     45  H41 UNL     1       9.827  14.918   2.391  1.00  0.00     0.277 HD
ENDBRANCH  37  42
ENDBRANCH   4  37
TORSDOF 12
ENDMDL
MODEL 5
REMARK VINA RESULT: -6.932636776      2.359      5.854
REMARK  12 active torsions:
REMARK  status: ('A' for Active; 'I' for Inactive)
REMARK    1  A    between atoms: O1_2  and  C2_3 
REMARK    2  A    between atoms: C2_3  and  C3_5 
REMARK    3  A    between atoms: C3_5  and  N1_6 
REMARK    4  A    between atoms: C5_9  and  C6_10 
REMARK    5  A    between atoms: C6_10  and  N3_11 
REMARK    6  A    between atoms: C6_10  and  N4_15 
REMARK    7  A    between atoms: N5_19  and  N6_20 
REMARK       I    between atoms: N6_20  and  C7_22 
REMARK    8  A    between atoms: C7_22  and  C8_24 
REMARK    9  A    between atoms: C12_31  and  N8_32 
REMARK   10  A    between atoms: N8_32  and  N9_34 
REMARK   11  A    between atoms: N9_34  and  C13_36 
REMARK   12  A    between atoms: C14_39  and  O5_40 
ROOT
HETATM    1  N1  UNL     1      13.034  14.930  10.191  1.00  0.00    -0.156 N 
HETATM    2  C4  UNL     1      11.856  14.605  10.764  1.00  0.00     0.164 A 
HETATM    3  N2  UNL     1      11.617  14.610  12.173  1.00  0.00    -0.080 NA
HETATM    4  C5  UNL     1      10.958  14.278   9.766  1.00  0.00     0.151 A 
HETATM    5  N5  UNL     1      11.605  14.407   8.560  1.00  0.00    -0.079 N 
HETATM    6  C12 UNL     1      12.856  14.801   8.846  1.00  0.00     0.723 A 
ENDROOT
BRANCH   6   7
HETATM    7  N8  UNL     1      13.797  15.023   8.026  1.00  0.00    -0.116 N 
ATOM      8  H8  UNL     1      13.816  15.990   7.701  1.00  0.00     0.206 HD
BRANCH   7   9
HETATM    9  N9  UNL     1      14.774  14.275   7.488  1.00  0.00    -0.116 N 
ATOM     10  H9  UNL     1      15.631  14.113   8.015  1.00  0.00     0.206 HD
BRANCH   9  11
HETATM   11  C13 UNL     1      14.642  13.750   6.294  1.00  0.00     0.715 A 
HETATM   12  N10 UNL     1      13.913  12.664   5.958  1.00  0.00    -0.151 N 
HETATM   13  C14 UNL     1      14.037  12.445   4.637  1.00  0.00     0.251 A 
ATOM     14  H10 UNL     1      13.359  12.101   6.603  1.00  0.00     0.188 HD
HETATM   15  N11 UNL     1      14.834  13.382   4.141  1.00  0.00    -0.250 N 
HETATM   16  N12 UNL     1      15.203  14.175   5.144  1.00  0.00    -0.128 N 
ATOM     17  H11 UNL     1      15.115  13.477   3.165  1.00  0.00     0.191 HD
ATOM     18  H12 UNL     1      15.818  14.984   5.056  1.00  0.00     0.205 HD
BRANCH  13  19
HETATM   19  O5  UNL     1      13.442  11.424   3.907  1.00  0.00    -0.331 OA
ATOM     20  H5  UNL     1      13.078  11.491   3.032  1.00  0.00     0.221 HD
ENDBRANCH  13  19
ENDBRANCH   9  11
ENDBRANCH   7   9
ENDBRANCH   6   7
BRANCH   1  21
HETATM   21  C3  UNL     1      14.233  15.324  10.897  1.00  0.00     0.260 C 
BRANCH  21  22
HETATM   22  C2  UNL     1      15.159  14.148  11.008  1.00  0.00     0.277 C 
HETATM   23  O2  UNL     1      15.880  13.837  10.025  1.00  0.00    -0.263 OA
BRANCH  22  24
HETATM   24  O1  UNL     1      15.258  13.386  12.144  1.00  0.00    -0.325 OA
HETATM   25  C1  UNL     1      14.829  13.882  13.422  1.00  0.00     0.213 C 
ENDBRANCH  22  24
ENDBRANCH  21  22
ENDBRANCH   1  21
BRANCH   5  26
HETATM   26  N6  UNL     1      11.016  14.126   7.344  1.00  0.00    -0.243 N 
HETATM   27  C7  UNL     1      11.099  14.724   6.097  1.00  0.00     0.289 C 
HETATM   28  O3  UNL     1      11.773  15.716   5.794  1.00  0.00    -0.264 OA
ATOM     29  H6  UNL     1      10.397  13.316   7.368  1.00  0.00     0.191 HD
BRANCH  27  30
HETATM   30  C8  UNL     1      10.299  14.135   4.974  1.00  0.00     0.126 A 
HETATM   31  C9  UNL     1       9.041  14.447   4.575  1.00  0.00     0.071 A 
HETATM   32  C10 UNL     1       8.744  13.643   3.511  1.00  0.00     0.075 A 
HETATM   33  C11 UNL     1       7.490  13.601   2.723  1.00  0.00     0.079 C 
HETATM   34  O4  UNL     1       9.786  12.890   3.295  1.00  0.00    -0.242 OA
HETATM   35  N7  UNL     1      10.730  13.165   4.156  1.00  0.00    -0.256 N 
ATOM     36  H7  UNL     1      11.644  12.715   4.198  1.00  0.00     0.195 HD
ENDBRANCH  27  30
ENDBRANCH   5  26
BRANCH   4  37
HETATM   37  C6  UNL     1       9.549  13.858  10.028  1.00  0.00     0.433 C 
BRANCH  37  38
HETATM   38  N3  UNL     1       9.399  12.873  11.048  1.00  0.00    -0.045 N 
ATOM     39  H33 UNL     1       9.108  11.984  10.641  1.00  0.00     0.277 HD
ATOM     40  H32 UNL     1      10.311  12.607  11.419  1.00  0.00     0.277 HD
ATOM     41  H31 UNL     1       8.771  13.136  11.808  1.00  0.00     0.277 HD
ENDBRANCH  37  38
BRANCH  37  42
HETATM   42  N4  UNL     1       8.714  15.038  10.279  1.00  0.00    -0.045 N 
ATOM     43  H43 UNL     1       8.020  14.868  11.007  1.00  0.00     0.277 HD
ATOM     44  H42 UNL     1       9.234  15.784  10.741  1.00  0.00     0.277 HD
ATOM     45  H41 UNL     1       8.286  15.352   9.407  1.00  0.00     0.277 HD
ENDBRANCH  37  42
ENDBRANCH   4  37
TORSDOF 12
ENDMDL
