MODEL 1
REMARK VINA RESULT: -8.137523625      0.000      0.000
REMARK  10 active torsions:
REMARK  status: ('A' for Active; 'I' for Inactive)
REMARK    1  A    between atoms: N1_1  and  N2_4 
REMARK    2  A    between atoms: N2_4  and  C1_6 
REMARK    3  A    between atoms: C2_12  and  C3_13 
REMARK       I    between atoms: C3_13  and  N5_15 
REMARK    4  A    between atoms: N5_15  and  C4_17 
REMARK    5  A    between atoms: C4_17  and  C5_18 
REMARK    6  A    between atoms: C6_24  and  C7_25 
REMARK    7  A    between atoms: C7_25  and  N8_26 
REMARK    8  A    between atoms: C7_25  and  C8_30 
REMARK    9  A    between atoms: N8_26  and  N9_27 
REMARK   10  A    between atoms: C13_41  and  O5_42 
ROOT
HETATM    1  C5  UNL     1      15.988  14.958   4.347  1.00  0.00     0.078 A 
HETATM    2  N6  UNL     1      17.182  14.399   4.094  1.00  0.00    -0.242 N 
ATOM      3  H6  UNL     1      17.986  14.900   3.718  1.00  0.00     0.196 HD
HETATM    4  O3  UNL     1      17.178  13.140   4.391  1.00  0.00    -0.157 OA
HETATM    5  N7  UNL     1      16.015  12.845   4.836  1.00  0.00    -0.242 N 
ATOM      6  H7  UNL     1      15.731  11.916   5.146  1.00  0.00     0.196 HD
HETATM    7  C6  UNL     1      15.220  13.926   4.837  1.00  0.00     0.089 A 
ENDROOT
BRANCH   7   8
HETATM    8  C7  UNL     1      13.808  14.006   5.279  1.00  0.00     0.220 C 
BRANCH   8   9
HETATM    9  N8  UNL     1      13.157  12.749   5.009  1.00  0.00    -0.129 NA
BRANCH   9  10
HETATM   10  N9  UNL     1      12.329  12.848   3.884  1.00  0.00    -0.347 N 
ATOM     11  H92 UNL     1      11.921  13.723   3.556  1.00  0.00     0.172 HD
ATOM     12  H91 UNL     1      12.196  11.935   3.450  1.00  0.00     0.172 HD
ENDBRANCH   9  10
ENDBRANCH   8   9
BRANCH   8  13
HETATM   13  C8  UNL     1      13.791  14.326   6.747  1.00  0.00     0.113 A 
HETATM   14  N10 UNL     1      14.880  14.833   7.344  1.00  0.00    -0.310 N 
HETATM   15  C9  UNL     1      14.854  15.109   8.657  1.00  0.00     0.264 A 
ATOM     16  H10 UNL     1      15.726  15.007   6.802  1.00  0.00     0.170 HD
HETATM   17  O4  UNL     1      15.886  15.582   9.184  1.00  0.00    -0.267 OA
HETATM   18  C10 UNL     1      13.730  14.887   9.425  1.00  0.00     0.121 A 
HETATM   19  C11 UNL     1      12.621  14.369   8.807  1.00  0.00     0.134 A 
HETATM   20  C14 UNL     1      12.959  14.889  10.664  1.00  0.00     0.135 A 
HETATM   21  N11 UNL     1      12.693  14.107   7.489  1.00  0.00    -0.329 N 
HETATM   22  N12 UNL     1      11.874  14.376  10.036  1.00  0.00    -0.288 N 
ATOM     23  H11 UNL     1      11.870  13.721   7.027  1.00  0.00     0.168 HD
HETATM   24  C12 UNL     1      10.875  14.222  10.918  1.00  0.00     0.156 A 
HETATM   25  C13 UNL     1      11.350  14.652  12.134  1.00  0.00     0.158 A 
HETATM   26  N13 UNL     1      12.634  15.060  11.966  1.00  0.00    -0.321 N 
ATOM     27  H13 UNL     1      13.245  15.430  12.694  1.00  0.00     0.169 HD
BRANCH  25  28
HETATM   28  O5  UNL     1      10.662  14.675  13.340  1.00  0.00    -0.345 OA
ATOM     29  H5  UNL     1      10.971  15.024  14.168  1.00  0.00     0.219 HD
ENDBRANCH  25  28
ENDBRANCH   8  13
ENDBRANCH   7   8
BRANCH   1  30
HETATM   30  C4  UNL     1      15.539  16.363   4.173  1.00  0.00     0.184 C 
BRANCH  30  31
HETATM   31  N5  UNL     1      16.146  17.187   5.177  1.00  0.00    -0.350 N 
HETATM   32  C3  UNL     1      15.391  17.847   6.176  1.00  0.00     0.274 C 
HETATM   33  O2  UNL     1      14.150  17.715   6.202  1.00  0.00    -0.266 OA
ATOM     34  H5  UNL     1      17.160  17.302   5.171  1.00  0.00     0.163 HD
BRANCH  32  35
HETATM   35  C2  UNL     1      16.045  18.692   7.188  1.00  0.00     0.171 A 
HETATM   36  C1  UNL     1      15.690  19.975   7.546  1.00  0.00     0.176 A 
HETATM   37  N3  UNL     1      16.542  20.378   8.504  1.00  0.00    -0.222 N 
HETATM   38  O1  UNL     1      17.358  19.410   8.717  1.00  0.00    -0.155 OA
ATOM     39  H3  UNL     1      16.540  21.283   8.975  1.00  0.00     0.198 HD
HETATM   40  N4  UNL     1      17.107  18.380   7.958  1.00  0.00    -0.232 N 
ATOM     41  H4  UNL     1      17.620  17.499   7.949  1.00  0.00     0.197 HD
BRANCH  36  42
HETATM   42  N2  UNL     1      14.701  20.640   7.022  1.00  0.00    -0.289 N 
ATOM     43  H2  UNL     1      13.755  20.427   7.339  1.00  0.00     0.188 HD
BRANCH  42  44
HETATM   44  N1  UNL     1      14.868  21.618   6.061  1.00  0.00    -0.344 N 
ATOM     45  H12 UNL     1      15.661  22.250   6.170  1.00  0.00     0.176 HD
ATOM     46  H11 UNL     1      14.242  21.732   5.264  1.00  0.00     0.176 HD
ENDBRANCH  42  44
ENDBRANCH  36  42
ENDBRANCH  32  35
ENDBRANCH  30  31
ENDBRANCH   1  30
TORSDOF 10
ENDMDL
MODEL 2
REMARK VINA RESULT: -7.748933283      1.299      1.806
REMARK  10 active torsions:
REMARK  status: ('A' for Active; 'I' for Inactive)
REMARK    1  A    between atoms: N1_1  and  N2_4 
REMARK    2  A    between atoms: N2_4  and  C1_6 
REMARK    3  A    between atoms: C2_12  and  C3_13 
REMARK       I    between atoms: C3_13  and  N5_15 
REMARK    4  A    between atoms: N5_15  and  C4_17 
REMARK    5  A    between atoms: C4_17  and  C5_18 
REMARK    6  A    between atoms: C6_24  and  C7_25 
REMARK    7  A    between atoms: C7_25  and  N8_26 
REMARK    8  A    between atoms: C7_25  and  C8_30 
REMARK    9  A    between atoms: N8_26  and  N9_27 
REMARK   10  A    between atoms: C13_41  and  O5_42 
ROOT
HETATM    1  C5  UNL     1      15.720  14.857   3.920  1.00  0.00     0.078 A 
HETATM    2  N6  UNL     1      17.038  14.914   3.673  1.00  0.00    -0.242 N 
ATOM      3  H6  UNL     1      17.508  15.699   3.221  1.00  0.00     0.196 HD
HETATM    4  O3  UNL     1      17.635  13.842   4.083  1.00  0.00    -0.157 OA
HETATM    5  N7  UNL     1      16.750  13.073   4.597  1.00  0.00    -0.242 N 
ATOM      6  H7  UNL     1      16.943  12.157   5.001  1.00  0.00     0.196 HD
HETATM    7  C6  UNL     1      15.535  13.638   4.531  1.00  0.00     0.089 A 
ENDROOT
BRANCH   7   8
HETATM    8  C7  UNL     1      14.253  13.077   5.018  1.00  0.00     0.220 C 
BRANCH   8   9
HETATM    9  N8  UNL     1      14.298  11.640   4.917  1.00  0.00    -0.129 NA
BRANCH   9  10
HETATM   10  N9  UNL     1      14.130  11.229   3.589  1.00  0.00    -0.347 N 
ATOM     11  H92 UNL     1      14.064  11.873   2.800  1.00  0.00     0.172 HD
ATOM     12  H91 UNL     1      14.083  10.212   3.526  1.00  0.00     0.172 HD
ENDBRANCH   9  10
ENDBRANCH   8   9
BRANCH   8  13
HETATM   13  C8  UNL     1      14.057  13.518   6.442  1.00  0.00     0.113 A 
HETATM   14  N10 UNL     1      15.097  13.565   7.287  1.00  0.00    -0.310 N 
HETATM   15  C9  UNL     1      14.908  13.956   8.557  1.00  0.00     0.264 A 
ATOM     16  H10 UNL     1      16.030  13.304   6.967  1.00  0.00     0.170 HD
HETATM   17  O4  UNL     1      15.898  13.990   9.321  1.00  0.00    -0.267 OA
HETATM   18  C10 UNL     1      13.664  14.316   9.029  1.00  0.00     0.121 A 
HETATM   19  C11 UNL     1      12.605  14.266   8.159  1.00  0.00     0.134 A 
HETATM   20  C14 UNL     1      12.722  14.774  10.046  1.00  0.00     0.135 A 
HETATM   21  N11 UNL     1      12.842  13.868   6.895  1.00  0.00    -0.329 N 
HETATM   22  N12 UNL     1      11.688  14.716   9.172  1.00  0.00    -0.288 N 
ATOM     23  H11 UNL     1      12.057  13.829   6.246  1.00  0.00     0.168 HD
HETATM   24  C12 UNL     1      10.557  15.096   9.786  1.00  0.00     0.156 A 
HETATM   25  C13 UNL     1      10.894  15.399  11.083  1.00  0.00     0.158 A 
HETATM   26  N13 UNL     1      12.228  15.197  11.233  1.00  0.00    -0.321 N 
ATOM     27  H13 UNL     1      12.763  15.339  12.089  1.00  0.00     0.169 HD
BRANCH  25  28
HETATM   28  O5  UNL     1      10.041  15.836  12.087  1.00  0.00    -0.345 OA
ATOM     29  H5  UNL     1       9.329  15.349  12.486  1.00  0.00     0.219 HD
ENDBRANCH  25  28
ENDBRANCH   8  13
ENDBRANCH   7   8
BRANCH   1  30
HETATM   30  C4  UNL     1      14.654  15.853   3.637  1.00  0.00     0.184 C 
BRANCH  30  31
HETATM   31  N5  UNL     1      15.019  17.118   4.203  1.00  0.00    -0.350 N 
HETATM   32  C3  UNL     1      14.738  17.457   5.549  1.00  0.00     0.274 C 
HETATM   33  O2  UNL     1      14.154  16.635   6.285  1.00  0.00    -0.266 OA
ATOM     34  H5  UNL     1      15.500  17.800   3.616  1.00  0.00     0.163 HD
BRANCH  32  35
HETATM   35  C2  UNL     1      15.120  18.768   6.098  1.00  0.00     0.171 A 
HETATM   36  C1  UNL     1      16.094  19.015   7.042  1.00  0.00     0.176 A 
HETATM   37  N3  UNL     1      16.119  20.342   7.258  1.00  0.00    -0.222 N 
HETATM   38  O1  UNL     1      15.225  20.866   6.500  1.00  0.00    -0.155 OA
ATOM     39  H3  UNL     1      16.734  20.838   7.903  1.00  0.00     0.198 HD
HETATM   40  N4  UNL     1      14.599  19.973   5.787  1.00  0.00    -0.232 N 
ATOM     41  H4  UNL     1      13.851  20.152   5.117  1.00  0.00     0.197 HD
BRANCH  36  42
HETATM   42  N2  UNL     1      16.831  18.099   7.598  1.00  0.00    -0.289 N 
ATOM     43  H2  UNL     1      17.832  18.096   7.399  1.00  0.00     0.188 HD
BRANCH  42  44
HETATM   44  N1  UNL     1      16.328  17.129   8.444  1.00  0.00    -0.344 N 
ATOM     45  H12 UNL     1      16.003  17.433   9.362  1.00  0.00     0.176 HD
ATOM     46  H11 UNL     1      16.271  16.142   8.194  1.00  0.00     0.176 HD
ENDBRANCH  42  44
ENDBRANCH  36  42
ENDBRANCH  32  35
ENDBRANCH  30  31
ENDBRANCH   1  30
TORSDOF 10
ENDMDL
MODEL 3
REMARK VINA RESULT: -7.704979852      3.419      5.110
REMARK  10 active torsions:
REMARK  status: ('A' for Active; 'I' for Inactive)
REMARK    1  A    between atoms: N1_1  and  N2_4 
REMARK    2  A    between atoms: N2_4  and  C1_6 
REMARK    3  A    between atoms: C2_12  and  C3_13 
REMARK       I    between atoms: C3_13  and  N5_15 
REMARK    4  A    between atoms: N5_15  and  C4_17 
REMARK    5  A    between atoms: C4_17  and  C5_18 
REMARK    6  A    between atoms: C6_24  and  C7_25 
REMARK    7  A    between atoms: C7_25  and  N8_26 
REMARK    8  A    between atoms: C7_25  and  C8_30 
REMARK    9  A    between atoms: N8_26  and  N9_27 
REMARK   10  A    between atoms: C13_41  and  O5_42 
ROOT
HETATM    1  C5  UNL     1      16.264  12.400   3.864  1.00  0.00     0.078 A 
HETATM    2  N6  UNL     1      16.209  11.083   3.610  1.00  0.00    -0.242 N 
ATOM      3  H6  UNL     1      17.002  10.521   3.302  1.00  0.00     0.196 HD
HETATM    4  O3  UNL     1      15.017  10.621   3.807  1.00  0.00    -0.157 OA
HETATM    5  N7  UNL     1      14.277  11.593   4.186  1.00  0.00    -0.242 N 
ATOM      6  H7  UNL     1      13.286  11.513   4.413  1.00  0.00     0.196 HD
HETATM    7  C6  UNL     1      14.984  12.732   4.245  1.00  0.00     0.089 A 
ENDROOT
BRANCH   7   8
HETATM    8  C7  UNL     1      14.499  14.075   4.642  1.00  0.00     0.220 C 
BRANCH   8   9
HETATM    9  N8  UNL     1      13.306  14.386   3.896  1.00  0.00    -0.129 NA
BRANCH   9  10
HETATM   10  N9  UNL     1      13.622  14.747   2.581  1.00  0.00    -0.347 N 
ATOM     11  H92 UNL     1      14.118  15.603   2.331  1.00  0.00     0.172 HD
ATOM     12  H91 UNL     1      13.290  14.044   1.921  1.00  0.00     0.172 HD
ENDBRANCH   9  10
ENDBRANCH   8   9
BRANCH   8  13
HETATM   13  C8  UNL     1      14.229  14.059   6.121  1.00  0.00     0.113 A 
HETATM   14  N10 UNL     1      15.245  14.025   6.996  1.00  0.00    -0.310 N 
HETATM   15  C9  UNL     1      14.991  14.007   8.314  1.00  0.00     0.264 A 
ATOM     16  H10 UNL     1      16.209  14.013   6.661  1.00  0.00     0.170 HD
HETATM   17  O4  UNL     1      15.960  13.976   9.104  1.00  0.00    -0.267 OA
HETATM   18  C10 UNL     1      13.703  14.021   8.806  1.00  0.00     0.121 A 
HETATM   19  C11 UNL     1      12.669  14.056   7.905  1.00  0.00     0.134 A 
HETATM   20  C14 UNL     1      12.696  14.021   9.863  1.00  0.00     0.135 A 
HETATM   21  N11 UNL     1      12.972  14.074   6.593  1.00  0.00    -0.329 N 
HETATM   22  N12 UNL     1      11.689  14.055   8.957  1.00  0.00    -0.288 N 
ATOM     23  H11 UNL     1      12.206  14.100   5.922  1.00  0.00     0.168 HD
HETATM   24  C12 UNL     1      10.509  14.065   9.596  1.00  0.00     0.156 A 
HETATM   25  C13 UNL     1      10.787  14.037  10.942  1.00  0.00     0.158 A 
HETATM   26  N13 UNL     1      12.136  14.010  11.094  1.00  0.00    -0.321 N 
ATOM     27  H13 UNL     1      12.639  13.985  11.981  1.00  0.00     0.169 HD
BRANCH  25  28
HETATM   28  O5  UNL     1       9.871  14.035  11.985  1.00  0.00    -0.345 OA
ATOM     29  H5  UNL     1       9.716  14.732  12.611  1.00  0.00     0.219 HD
ENDBRANCH  25  28
ENDBRANCH   8  13
ENDBRANCH   7   8
BRANCH   1  30
HETATM   30  C4  UNL     1      17.414  13.338   3.785  1.00  0.00     0.184 C 
BRANCH  30  31
HETATM   31  N5  UNL     1      17.798  13.508   2.414  1.00  0.00    -0.350 N 
HETATM   32  C3  UNL     1      17.352  14.599   1.631  1.00  0.00     0.274 C 
HETATM   33  O2  UNL     1      16.600  15.457   2.137  1.00  0.00    -0.266 OA
ATOM     34  H5  UNL     1      18.416  12.816   1.988  1.00  0.00     0.163 HD
BRANCH  32  35
HETATM   35  C2  UNL     1      17.759  14.741   0.223  1.00  0.00     0.171 A 
HETATM   36  C1  UNL     1      16.980  15.195  -0.819  1.00  0.00     0.176 A 
HETATM   37  N3  UNL     1      17.736  15.169  -1.930  1.00  0.00    -0.222 N 
HETATM   38  O1  UNL     1      18.894  14.729  -1.590  1.00  0.00    -0.155 OA
ATOM     39  H3  UNL     1      17.445  15.445  -2.867  1.00  0.00     0.198 HD
HETATM   40  N4  UNL     1      18.962  14.458  -0.317  1.00  0.00    -0.232 N 
ATOM     41  H4  UNL     1      19.777  14.098   0.180  1.00  0.00     0.197 HD
BRANCH  36  42
HETATM   42  N2  UNL     1      15.740  15.571  -0.703  1.00  0.00    -0.289 N 
ATOM     43  H2  UNL     1      15.008  14.890  -0.903  1.00  0.00     0.188 HD
BRANCH  42  44
HETATM   44  N1  UNL     1      15.365  16.845  -0.324  1.00  0.00    -0.344 N 
ATOM     45  H12 UNL     1      15.946  17.317   0.369  1.00  0.00     0.176 HD
ATOM     46  H11 UNL     1      14.546  17.324  -0.700  1.00  0.00     0.176 HD
ENDBRANCH  42  44
ENDBRANCH  36  42
ENDBRANCH  32  35
ENDBRANCH  30  31
ENDBRANCH   1  30
TORSDOF 10
ENDMDL
MODEL 4
REMARK VINA RESULT: -7.531401246      3.393      5.162
REMARK  10 active torsions:
REMARK  status: ('A' for Active; 'I' for Inactive)
REMARK    1  A    between atoms: N1_1  and  N2_4 
REMARK    2  A    between atoms: N2_4  and  C1_6 
REMARK    3  A    between atoms: C2_12  and  C3_13 
REMARK       I    between atoms: C3_13  and  N5_15 
REMARK    4  A    between atoms: N5_15  and  C4_17 
REMARK    5  A    between atoms: C4_17  and  C5_18 
REMARK    6  A    between atoms: C6_24  and  C7_25 
REMARK    7  A    between atoms: C7_25  and  N8_26 
REMARK    8  A    between atoms: C7_25  and  C8_30 
REMARK    9  A    between atoms: N8_26  and  N9_27 
REMARK   10  A    between atoms: C13_41  and  O5_42 
ROOT
HETATM    1  C5  UNL     1      16.082  12.655   4.147  1.00  0.00     0.078 A 
HETATM    2  N6  UNL     1      16.362  11.354   3.974  1.00  0.00    -0.242 N 
ATOM      3  H6  UNL     1      17.263  10.994   3.658  1.00  0.00     0.196 HD
HETATM    4  O3  UNL     1      15.339  10.616   4.261  1.00  0.00    -0.157 OA
HETATM    5  N7  UNL     1      14.386  11.389   4.621  1.00  0.00    -0.242 N 
ATOM      6  H7  UNL     1      13.459  11.073   4.904  1.00  0.00     0.196 HD
HETATM    7  C6  UNL     1      14.774  12.673   4.574  1.00  0.00     0.089 A 
ENDROOT
BRANCH   7   8
HETATM    8  C7  UNL     1      13.971  13.870   4.917  1.00  0.00     0.220 C 
BRANCH   8   9
HETATM    9  N8  UNL     1      12.665  13.749   4.320  1.00  0.00    -0.129 NA
BRANCH   9  10
HETATM   10  N9  UNL     1      12.724  13.984   2.941  1.00  0.00    -0.347 N 
ATOM     11  H92 UNL     1      13.357  14.656   2.507  1.00  0.00     0.172 HD
ATOM     12  H91 UNL     1      12.055  13.397   2.443  1.00  0.00     0.172 HD
ENDBRANCH   9  10
ENDBRANCH   8   9
BRANCH   8  13
HETATM   13  C8  UNL     1      13.880  13.964   6.414  1.00  0.00     0.113 A 
HETATM   14  N10 UNL     1      14.989  13.906   7.167  1.00  0.00    -0.310 N 
HETATM   15  C9  UNL     1      14.894  13.985   8.503  1.00  0.00     0.264 A 
ATOM     16  H10 UNL     1      15.902  13.801   6.725  1.00  0.00     0.170 HD
HETATM   17  O4  UNL     1      15.946  13.928   9.176  1.00  0.00    -0.267 OA
HETATM   18  C10 UNL     1      13.678  14.127   9.138  1.00  0.00     0.121 A 
HETATM   19  C11 UNL     1      12.549  14.186   8.362  1.00  0.00     0.134 A 
HETATM   20  C14 UNL     1      12.808  14.266  10.302  1.00  0.00     0.135 A 
HETATM   21  N11 UNL     1      12.693  14.102   7.026  1.00  0.00    -0.329 N 
HETATM   22  N12 UNL     1      11.703  14.321   9.518  1.00  0.00    -0.288 N 
ATOM     23  H11 UNL     1      11.855  14.146   6.447  1.00  0.00     0.168 HD
HETATM   24  C12 UNL     1      10.613  14.460  10.287  1.00  0.00     0.156 A 
HETATM   25  C13 UNL     1      11.047  14.491  11.590  1.00  0.00     0.158 A 
HETATM   26  N13 UNL     1      12.400  14.371  11.587  1.00  0.00    -0.321 N 
ATOM     27  H13 UNL     1      13.002  14.362  12.410  1.00  0.00     0.169 HD
BRANCH  25  28
HETATM   28  O5  UNL     1      10.265  14.621  12.729  1.00  0.00    -0.345 OA
ATOM     29  H5  UNL     1      10.459  14.286  13.597  1.00  0.00     0.219 HD
ENDBRANCH  25  28
ENDBRANCH   8  13
ENDBRANCH   7   8
BRANCH   1  30
HETATM   30  C4  UNL     1      16.944  13.849   3.952  1.00  0.00     0.184 C 
BRANCH  30  31
HETATM   31  N5  UNL     1      16.515  14.563   2.784  1.00  0.00    -0.350 N 
HETATM   32  C3  UNL     1      17.254  14.558   1.577  1.00  0.00     0.274 C 
HETATM   33  O2  UNL     1      18.320  13.912   1.507  1.00  0.00    -0.266 OA
ATOM     34  H5  UNL     1      15.644  15.093   2.825  1.00  0.00     0.163 HD
BRANCH  32  35
HETATM   35  C2  UNL     1      16.789  15.308   0.399  1.00  0.00     0.171 A 
HETATM   36  C1  UNL     1      17.095  15.044  -0.919  1.00  0.00     0.176 A 
HETATM   37  N3  UNL     1      16.464  15.963  -1.671  1.00  0.00    -0.222 N 
HETATM   38  O1  UNL     1      15.819  16.732  -0.869  1.00  0.00    -0.155 OA
ATOM     39  H3  UNL     1      16.492  16.036  -2.688  1.00  0.00     0.198 HD
HETATM   40  N4  UNL     1      15.979  16.385   0.377  1.00  0.00    -0.232 N 
ATOM     41  H4  UNL     1      15.566  16.846   1.189  1.00  0.00     0.197 HD
BRANCH  36  42
HETATM   42  N2  UNL     1      17.861  14.072  -1.319  1.00  0.00    -0.289 N 
ATOM     43  H2  UNL     1      17.431  13.170  -1.522  1.00  0.00     0.188 HD
BRANCH  42  44
HETATM   44  N1  UNL     1      19.227  14.199  -1.482  1.00  0.00    -0.344 N 
ATOM     45  H12 UNL     1      19.599  14.073  -2.423  1.00  0.00     0.176 HD
ATOM     46  H11 UNL     1      19.866  14.409  -0.715  1.00  0.00     0.176 HD
ENDBRANCH  42  44
ENDBRANCH  36  42
ENDBRANCH  32  35
ENDBRANCH  30  31
ENDBRANCH   1  30
TORSDOF 10
ENDMDL
MODEL 5
REMARK VINA RESULT: -7.529618056      2.307      4.952
REMARK  10 active torsions:
REMARK  status: ('A' for Active; 'I' for Inactive)
REMARK    1  A    between atoms: N1_1  and  N2_4 
REMARK    2  A    between atoms: N2_4  and  C1_6 
REMARK    3  A    between atoms: C2_12  and  C3_13 
REMARK       I    between atoms: C3_13  and  N5_15 
REMARK    4  A    between atoms: N5_15  and  C4_17 
REMARK    5  A    between atoms: C4_17  and  C5_18 
REMARK    6  A    between atoms: C6_24  and  C7_25 
REMARK    7  A    between atoms: C7_25  and  N8_26 
REMARK    8  A    between atoms: C7_25  and  C8_30 
REMARK    9  A    between atoms: N8_26  and  N9_27 
REMARK   10  A    between atoms: C13_41  and  O5_42 
ROOT
HETATM    1  C5  UNL     1      12.406  15.040   4.964  1.00  0.00     0.078 A 
HETATM    2  N6  UNL     1      11.288  15.500   4.381  1.00  0.00    -0.242 N 
ATOM      3  H6  UNL     1      10.548  14.909   4.003  1.00  0.00     0.196 HD
HETATM    4  O3  UNL     1      11.273  16.794   4.362  1.00  0.00    -0.157 OA
HETATM    5  N7  UNL     1      12.349  17.207   4.916  1.00  0.00    -0.242 N 
ATOM      6  H7  UNL     1      12.598  18.189   5.038  1.00  0.00     0.196 HD
HETATM    7  C6  UNL     1      13.104  16.172   5.316  1.00  0.00     0.089 A 
ENDROOT
BRANCH   7   8
HETATM    8  C7  UNL     1      14.417  16.226   6.001  1.00  0.00     0.220 C 
BRANCH   8   9
HETATM    9  N8  UNL     1      14.904  17.582   5.982  1.00  0.00    -0.129 NA
BRANCH   9  10
HETATM   10  N9  UNL     1      16.302  17.608   5.899  1.00  0.00    -0.347 N 
ATOM     11  H92 UNL     1      16.920  17.481   6.700  1.00  0.00     0.172 HD
ATOM     12  H91 UNL     1      16.605  17.770   4.938  1.00  0.00     0.172 HD
ENDBRANCH   9  10
ENDBRANCH   8   9
BRANCH   8  13
HETATM   13  C8  UNL     1      14.234  15.732   7.409  1.00  0.00     0.113 A 
HETATM   14  N10 UNL     1      15.183  14.989   7.997  1.00  0.00    -0.310 N 
HETATM   15  C9  UNL     1      15.005  14.550   9.252  1.00  0.00     0.264 A 
ATOM     16  H10 UNL     1      16.038  14.758   7.491  1.00  0.00     0.170 HD
HETATM   17  O4  UNL     1      15.910  13.860   9.772  1.00  0.00    -0.267 OA
HETATM   18  C10 UNL     1      13.863  14.840   9.969  1.00  0.00     0.121 A 
HETATM   19  C11 UNL     1      12.897  15.600   9.361  1.00  0.00     0.134 A 
HETATM   20  C14 UNL     1      12.997  14.794  11.143  1.00  0.00     0.135 A 
HETATM   21  N11 UNL     1      13.119  16.019   8.101  1.00  0.00    -0.329 N 
HETATM   22  N12 UNL     1      12.053  15.545  10.525  1.00  0.00    -0.288 N 
ATOM     23  H11 UNL     1      12.402  16.584   7.647  1.00  0.00     0.168 HD
HETATM   24  C12 UNL     1      11.016  15.734  11.354  1.00  0.00     0.156 A 
HETATM   25  C13 UNL     1      11.319  15.081  12.524  1.00  0.00     0.158 A 
HETATM   26  N13 UNL     1      12.540  14.506  12.383  1.00  0.00    -0.321 N 
ATOM     27  H13 UNL     1      13.028  13.954  13.089  1.00  0.00     0.169 HD
BRANCH  25  28
HETATM   28  O5  UNL     1      10.534  15.005  13.666  1.00  0.00    -0.345 OA
ATOM     29  H5  UNL     1      10.351  15.705  14.283  1.00  0.00     0.219 HD
ENDBRANCH  25  28
ENDBRANCH   8  13
ENDBRANCH   7   8
BRANCH   1  30
HETATM   30  C4  UNL     1      12.844  13.642   5.214  1.00  0.00     0.184 C 
BRANCH  30  31
HETATM   31  N5  UNL     1      13.998  13.353   4.413  1.00  0.00    -0.350 N 
HETATM   32  C3  UNL     1      15.192  12.830   4.965  1.00  0.00     0.274 C 
HETATM   33  O2  UNL     1      15.259  12.602   6.191  1.00  0.00    -0.266 OA
ATOM     34  H5  UNL     1      13.957  13.530   3.409  1.00  0.00     0.163 HD
BRANCH  32  35
HETATM   35  C2  UNL     1      16.362  12.550   4.117  1.00  0.00     0.171 A 
HETATM   36  C1  UNL     1      17.271  13.469   3.638  1.00  0.00     0.176 A 
HETATM   37  N3  UNL     1      18.180  12.796   2.910  1.00  0.00    -0.222 N 
HETATM   38  O1  UNL     1      17.849  11.556   2.944  1.00  0.00    -0.155 OA
ATOM     39  H3  UNL     1      18.982  13.196   2.424  1.00  0.00     0.198 HD
HETATM   40  N4  UNL     1      16.772  11.354   3.649  1.00  0.00    -0.232 N 
ATOM     41  H4  UNL     1      16.321  10.454   3.817  1.00  0.00     0.197 HD
BRANCH  36  42
HETATM   42  N2  UNL     1      17.221  14.748   3.872  1.00  0.00    -0.289 N 
ATOM     43  H2  UNL     1      17.718  15.111   4.685  1.00  0.00     0.188 HD
BRANCH  42  44
HETATM   44  N1  UNL     1      16.528  15.639   3.075  1.00  0.00    -0.344 N 
ATOM     45  H12 UNL     1      16.496  15.444   2.074  1.00  0.00     0.176 HD
ATOM     46  H11 UNL     1      16.057  16.467   3.439  1.00  0.00     0.176 HD
ENDBRANCH  42  44
ENDBRANCH  36  42
ENDBRANCH  32  35
ENDBRANCH  30  31
ENDBRANCH   1  30
TORSDOF 10
ENDMDL
