MODEL 1
REMARK VINA RESULT: -8.196334276      0.000      0.000
REMARK  21 active torsions:
REMARK  status: ('A' for Active; 'I' for Inactive)
REMARK    1  A    between atoms: C2_2  and  C3_3 
REMARK    2  A    between atoms: C2_2  and  C18_25 
REMARK    3  A    between atoms: C3_3  and  C4_4 
REMARK    4  A    between atoms: C10_12  and  C11_13 
REMARK    5  A    between atoms: C11_13  and  C12_14 
REMARK    6  A    between atoms: C12_14  and  N2_15 
REMARK    7  A    between atoms: C12_14  and  C13_19 
REMARK    8  A    between atoms: C13_19  and  N3_20 
REMARK    9  A    between atoms: N3_20  and  C14_21 
REMARK   10  A    between atoms: C14_21  and  C15_22 
REMARK       I    between atoms: C18_25  and  N4_27 
REMARK   11  A    between atoms: N4_27  and  C19_29 
REMARK   12  A    between atoms: C19_29  and  C20_30 
REMARK   13  A    between atoms: C19_29  and  C24_38 
REMARK   14  A    between atoms: C20_30  and  C21_31 
REMARK   15  A    between atoms: C21_31  and  C22_32 
REMARK   16  A    between atoms: C22_32  and  N5_33 
REMARK   17  A    between atoms: C24_38  and  O2_39 
REMARK   18  A    between atoms: C24_38  and  N8_41 
REMARK   19  A    between atoms: N8_41  and  C26_43 
REMARK   20  A    between atoms: C26_43  and  C27_44 
REMARK   21  A    between atoms: C27_44  and  C28_45 
ROOT
HETATM    1  C18 UNL     1       4.491  -2.351  13.172  1.00  0.00     0.247 C 
HETATM    2  O1  UNL     1       4.800  -2.993  12.130  1.00  0.00    -0.268 OA
HETATM    3  N4  UNL     1       4.364  -2.962  14.407  1.00  0.00    -0.345 N 
ATOM      4  H4  UNL     1       4.104  -2.346  15.177  1.00  0.00     0.163 HD
ENDROOT
BRANCH   1   5
HETATM    5  C2  UNL     1       4.267  -0.912  13.002  1.00  0.00     0.004 C 
HETATM    6  C1  UNL     1       3.900  -0.125  13.971  1.00  0.00     0.025 C 
BRANCH   5   7
HETATM    7  C3  UNL     1       4.433  -0.299  11.616  1.00  0.00     0.083 C 
BRANCH   7   8
HETATM    8  C4  UNL     1       5.718   0.440  11.672  1.00  0.00    -0.041 A 
HETATM    9  C5  UNL     1       6.917  -0.251  11.902  1.00  0.00     0.008 A 
HETATM   10  C6  UNL     1       8.141   0.380  11.947  1.00  0.00     0.003 A 
HETATM   11  C7  UNL     1       8.205   1.742  11.759  1.00  0.00     0.030 A 
HETATM   12  C8  UNL     1       7.068   2.436  11.534  1.00  0.00     0.043 A 
HETATM   13  N1  UNL     1       6.879   3.772  11.331  1.00  0.00    -0.365 N 
HETATM   14  C17 UNL     1       5.827   1.801  11.488  1.00  0.00     0.005 A 
HETATM   15  C9  UNL     1       5.581   4.016  11.160  1.00  0.00     0.096 A 
ATOM     16  H1  UNL     1       7.618   4.475  11.313  1.00  0.00     0.165 HD
HETATM   17  C10 UNL     1       4.913   2.812  11.254  1.00  0.00    -0.027 A 
BRANCH  17  18
HETATM   18  C11 UNL     1       3.462   2.637  11.118  1.00  0.00     0.080 C 
BRANCH  18  19
HETATM   19  C12 UNL     1       2.881   3.669  10.134  1.00  0.00     0.240 C 
BRANCH  19  20
HETATM   20  N2  UNL     1       3.188   3.274   8.770  1.00  0.00    -0.069 N 
ATOM     21  H23 UNL     1       3.863   3.901   8.332  1.00  0.00     0.275 HD
ATOM     22  H22 UNL     1       3.738   2.416   8.733  1.00  0.00     0.275 HD
ATOM     23  H21 UNL     1       2.326   3.201   8.230  1.00  0.00     0.275 HD
ENDBRANCH  19  20
BRANCH  19  24
HETATM   24  C13 UNL     1       1.398   3.713  10.257  1.00  0.00     0.199 C 
BRANCH  24  25
HETATM   25  N3  UNL     1       0.784   3.067  11.131  1.00  0.00    -0.381 NA
BRANCH  25  26
HETATM   26  C14 UNL     1       0.147   2.222  11.789  1.00  0.00     0.015 C 
BRANCH  26  27
HETATM   27  C15 UNL     1      -0.232   1.133  12.393  1.00  0.00     0.116 C 
HETATM   28  C16 UNL     1       0.529  -0.138  12.368  1.00  0.00     0.020 C 
ENDBRANCH  26  27
ENDBRANCH  25  26
ENDBRANCH  24  25
ENDBRANCH  19  24
ENDBRANCH  18  19
ENDBRANCH  17  18
ENDBRANCH   7   8
ENDBRANCH   5   7
ENDBRANCH   1   5
BRANCH   3  29
HETATM   29  C19 UNL     1       4.551  -4.368  14.762  1.00  0.00     0.159 C 
BRANCH  29  30
HETATM   30  C20 UNL     1       3.394  -4.905  15.497  1.00  0.00     0.035 C 
BRANCH  30  31
HETATM   31  C21 UNL     1       3.135  -4.279  16.854  1.00  0.00     0.022 C 
BRANCH  31  32
HETATM   32  C22 UNL     1       3.132  -5.299  17.977  1.00  0.00     0.122 C 
BRANCH  32  33
HETATM   33  N5  UNL     1       4.481  -5.281  18.559  1.00  0.00    -0.367 N 
HETATM   34  C23 UNL     1       5.271  -6.306  18.501  1.00  0.00     0.196 C 
HETATM   35  N6  UNL     1       4.855  -7.511  17.858  1.00  0.00    -0.067 NA
HETATM   36  N7  UNL     1       6.546  -6.201  19.088  1.00  0.00    -0.067 NA
ATOM     37  H5  UNL     1       4.806  -4.434  19.025  1.00  0.00     0.161 HD
ENDBRANCH  32  33
ENDBRANCH  31  32
ENDBRANCH  30  31
ENDBRANCH  29  30
BRANCH  29  38
HETATM   38  C24 UNL     1       5.892  -4.516  15.302  1.00  0.00     0.136 C 
BRANCH  38  39
HETATM   39  O2  UNL     1       6.108  -5.716  15.801  1.00  0.00    -0.348 OA
ATOM     40  H2  UNL     1       6.487  -5.686  16.671  1.00  0.00     0.219 HD
ENDBRANCH  38  39
BRANCH  38  41
HETATM   41  N8  UNL     1       6.994  -3.669  15.400  1.00  0.00    -0.368 N 
HETATM   42  C25 UNL     1       7.015  -2.453  16.167  1.00  0.00     0.151 C 
BRANCH  41  43
HETATM   43  C26 UNL     1       8.242  -3.972  14.660  1.00  0.00     0.130 C 
BRANCH  43  44
HETATM   44  C27 UNL     1       9.450  -4.074  15.509  1.00  0.00     0.078 C 
BRANCH  44  45
HETATM   45  C28 UNL     1       9.453  -5.279  16.367  1.00  0.00     0.027 A 
HETATM   46  C29 UNL     1       9.858  -5.316  17.709  1.00  0.00     0.114 A 
HETATM   47  N9  UNL     1       9.729  -6.566  18.122  1.00  0.00    -0.360 N 
HETATM   48  C30 UNL     1       9.261  -7.345  17.117  1.00  0.00     0.180 A 
ATOM     49  H9  UNL     1       9.949  -6.896  19.061  1.00  0.00     0.166 HD
HETATM   50  N10 UNL     1       9.096  -6.547  16.053  1.00  0.00    -0.355 N 
ATOM     51  H10 UNL     1       8.753  -6.851  15.141  1.00  0.00     0.166 HD
ENDBRANCH  44  45
ENDBRANCH  43  44
ENDBRANCH  41  43
ENDBRANCH  38  41
ENDBRANCH  29  38
ENDBRANCH   3  29
TORSDOF 21
ENDMDL
MODEL 2
REMARK VINA RESULT: -8.168475324      1.865      4.238
REMARK  21 active torsions:
REMARK  status: ('A' for Active; 'I' for Inactive)
REMARK    1  A    between atoms: C2_2  and  C3_3 
REMARK    2  A    between atoms: C2_2  and  C18_25 
REMARK    3  A    between atoms: C3_3  and  C4_4 
REMARK    4  A    between atoms: C10_12  and  C11_13 
REMARK    5  A    between atoms: C11_13  and  C12_14 
REMARK    6  A    between atoms: C12_14  and  N2_15 
REMARK    7  A    between atoms: C12_14  and  C13_19 
REMARK    8  A    between atoms: C13_19  and  N3_20 
REMARK    9  A    between atoms: N3_20  and  C14_21 
REMARK   10  A    between atoms: C14_21  and  C15_22 
REMARK       I    between atoms: C18_25  and  N4_27 
REMARK   11  A    between atoms: N4_27  and  C19_29 
REMARK   12  A    between atoms: C19_29  and  C20_30 
REMARK   13  A    between atoms: C19_29  and  C24_38 
REMARK   14  A    between atoms: C20_30  and  C21_31 
REMARK   15  A    between atoms: C21_31  and  C22_32 
REMARK   16  A    between atoms: C22_32  and  N5_33 
REMARK   17  A    between atoms: C24_38  and  O2_39 
REMARK   18  A    between atoms: C24_38  and  N8_41 
REMARK   19  A    between atoms: N8_41  and  C26_43 
REMARK   20  A    between atoms: C26_43  and  C27_44 
REMARK   21  A    between atoms: C27_44  and  C28_45 
ROOT
HETATM    1  C18 UNL     1       2.911  -1.768  13.554  1.00  0.00     0.247 C 
HETATM    2  O1  UNL     1       3.517  -2.576  12.796  1.00  0.00    -0.268 OA
HETATM    3  N4  UNL     1       3.038  -1.810  14.931  1.00  0.00    -0.345 N 
ATOM      4  H4  UNL     1       2.497  -1.113  15.443  1.00  0.00     0.163 HD
ENDROOT
BRANCH   1   5
HETATM    5  C2  UNL     1       2.057  -0.777  12.893  1.00  0.00     0.004 C 
HETATM    6  C1  UNL     1       1.206  -0.026  13.529  1.00  0.00     0.025 C 
BRANCH   5   7
HETATM    7  C3  UNL     1       2.133  -0.634  11.376  1.00  0.00     0.083 C 
BRANCH   7   8
HETATM    8  C4  UNL     1       1.796   0.785  11.106  1.00  0.00    -0.041 A 
HETATM    9  C5  UNL     1       0.460   1.168  10.916  1.00  0.00     0.008 A 
HETATM   10  C6  UNL     1       0.087   2.472  10.680  1.00  0.00     0.003 A 
HETATM   11  C7  UNL     1       1.054   3.451  10.626  1.00  0.00     0.030 A 
HETATM   12  C8  UNL     1       2.350   3.115  10.805  1.00  0.00     0.043 A 
HETATM   13  N1  UNL     1       3.470   3.894  10.788  1.00  0.00    -0.365 N 
HETATM   14  C17 UNL     1       2.731   1.796  11.045  1.00  0.00     0.005 A 
HETATM   15  C9  UNL     1       4.542   3.134  11.003  1.00  0.00     0.096 A 
ATOM     16  H1  UNL     1       3.484   4.903  10.634  1.00  0.00     0.165 HD
HETATM   17  C10 UNL     1       4.109   1.834  11.164  1.00  0.00    -0.027 A 
BRANCH  17  18
HETATM   18  C11 UNL     1       4.976   0.679  11.427  1.00  0.00     0.080 C 
BRANCH  18  19
HETATM   19  C12 UNL     1       6.089   1.053  12.423  1.00  0.00     0.240 C 
BRANCH  19  20
HETATM   20  N2  UNL     1       5.711   0.632  13.762  1.00  0.00    -0.069 N 
ATOM     21  H23 UNL     1       5.648  -0.382  13.842  1.00  0.00     0.275 HD
ATOM     22  H22 UNL     1       6.459   0.787  14.438  1.00  0.00     0.275 HD
ATOM     23  H21 UNL     1       4.844   1.094  14.036  1.00  0.00     0.275 HD
ENDBRANCH  19  20
BRANCH  19  24
HETATM   24  C13 UNL     1       7.347   0.338  12.075  1.00  0.00     0.199 C 
BRANCH  24  25
HETATM   25  N3  UNL     1       7.727   0.196  10.895  1.00  0.00    -0.381 NA
BRANCH  25  26
HETATM   26  C14 UNL     1       8.343   0.201   9.811  1.00  0.00     0.015 C 
BRANCH  26  27
HETATM   27  C15 UNL     1       8.913  -0.148   8.694  1.00  0.00     0.116 C 
HETATM   28  C16 UNL     1       8.456   0.293   7.355  1.00  0.00     0.020 C 
ENDBRANCH  26  27
ENDBRANCH  25  26
ENDBRANCH  24  25
ENDBRANCH  19  24
ENDBRANCH  18  19
ENDBRANCH  17  18
ENDBRANCH   7   8
ENDBRANCH   5   7
ENDBRANCH   1   5
BRANCH   3  29
HETATM   29  C19 UNL     1       3.838  -2.715  15.755  1.00  0.00     0.159 C 
BRANCH  29  30
HETATM   30  C20 UNL     1       3.140  -3.084  16.998  1.00  0.00     0.035 C 
BRANCH  30  31
HETATM   31  C21 UNL     1       2.924  -4.570  17.209  1.00  0.00     0.022 C 
BRANCH  31  32
HETATM   32  C22 UNL     1       4.060  -5.410  16.658  1.00  0.00     0.122 C 
BRANCH  32  33
HETATM   33  N5  UNL     1       5.188  -5.247  17.585  1.00  0.00    -0.367 N 
HETATM   34  C23 UNL     1       5.806  -6.261  18.103  1.00  0.00     0.196 C 
HETATM   35  N6  UNL     1       5.411  -7.595  17.787  1.00  0.00    -0.067 NA
HETATM   36  N7  UNL     1       6.875  -6.011  18.985  1.00  0.00    -0.067 NA
ATOM     37  H5  UNL     1       5.494  -4.305  17.830  1.00  0.00     0.161 HD
ENDBRANCH  32  33
ENDBRANCH  31  32
ENDBRANCH  30  31
ENDBRANCH  29  30
BRANCH  29  38
HETATM   38  C24 UNL     1       5.193  -2.190  15.806  1.00  0.00     0.136 C 
BRANCH  38  39
HETATM   39  O2  UNL     1       5.267  -1.044  16.450  1.00  0.00    -0.348 OA
ATOM     40  H2  UNL     1       5.088  -1.134  17.378  1.00  0.00     0.219 HD
ENDBRANCH  38  39
BRANCH  38  41
HETATM   41  N8  UNL     1       6.422  -2.639  15.328  1.00  0.00    -0.368 N 
HETATM   42  C25 UNL     1       6.719  -2.860  13.939  1.00  0.00     0.151 C 
BRANCH  41  43
HETATM   43  C26 UNL     1       7.522  -2.958  16.269  1.00  0.00     0.130 C 
BRANCH  43  44
HETATM   44  C27 UNL     1       8.691  -3.618  15.646  1.00  0.00     0.078 C 
BRANCH  44  45
HETATM   45  C28 UNL     1       9.095  -4.857  16.345  1.00  0.00     0.027 A 
HETATM   46  C29 UNL     1       9.955  -4.919  17.451  1.00  0.00     0.114 A 
HETATM   47  N9  UNL     1      10.081  -6.194  17.777  1.00  0.00    -0.360 N 
HETATM   48  C30 UNL     1       9.348  -6.967  16.940  1.00  0.00     0.180 A 
ATOM     49  H9  UNL     1      10.648  -6.546  18.549  1.00  0.00     0.166 HD
HETATM   50  N10 UNL     1       8.751  -6.138  16.072  1.00  0.00    -0.355 N 
ATOM     51  H10 UNL     1       8.130  -6.430  15.317  1.00  0.00     0.166 HD
ENDBRANCH  44  45
ENDBRANCH  43  44
ENDBRANCH  41  43
ENDBRANCH  38  41
ENDBRANCH  29  38
ENDBRANCH   3  29
TORSDOF 21
ENDMDL
MODEL 3
REMARK VINA RESULT: -7.994978853      1.175      3.626
REMARK  21 active torsions:
REMARK  status: ('A' for Active; 'I' for Inactive)
REMARK    1  A    between atoms: C2_2  and  C3_3 
REMARK    2  A    between atoms: C2_2  and  C18_25 
REMARK    3  A    between atoms: C3_3  and  C4_4 
REMARK    4  A    between atoms: C10_12  and  C11_13 
REMARK    5  A    between atoms: C11_13  and  C12_14 
REMARK    6  A    between atoms: C12_14  and  N2_15 
REMARK    7  A    between atoms: C12_14  and  C13_19 
REMARK    8  A    between atoms: C13_19  and  N3_20 
REMARK    9  A    between atoms: N3_20  and  C14_21 
REMARK   10  A    between atoms: C14_21  and  C15_22 
REMARK       I    between atoms: C18_25  and  N4_27 
REMARK   11  A    between atoms: N4_27  and  C19_29 
REMARK   12  A    between atoms: C19_29  and  C20_30 
REMARK   13  A    between atoms: C19_29  and  C24_38 
REMARK   14  A    between atoms: C20_30  and  C21_31 
REMARK   15  A    between atoms: C21_31  and  C22_32 
REMARK   16  A    between atoms: C22_32  and  N5_33 
REMARK   17  A    between atoms: C24_38  and  O2_39 
REMARK   18  A    between atoms: C24_38  and  N8_41 
REMARK   19  A    between atoms: N8_41  and  C26_43 
REMARK   20  A    between atoms: C26_43  and  C27_44 
REMARK   21  A    between atoms: C27_44  and  C28_45 
ROOT
HETATM    1  C18 UNL     1       4.684  -2.106  13.251  1.00  0.00     0.247 C 
HETATM    2  O1  UNL     1       4.780  -2.759  12.175  1.00  0.00    -0.268 OA
HETATM    3  N4  UNL     1       4.960  -2.669  14.484  1.00  0.00    -0.345 N 
ATOM      4  H4  UNL     1       4.843  -2.049  15.286  1.00  0.00     0.163 HD
ENDROOT
BRANCH   1   5
HETATM    5  C2  UNL     1       4.258  -0.709  13.124  1.00  0.00     0.004 C 
HETATM    6  C1  UNL     1       3.890   0.023  14.135  1.00  0.00     0.025 C 
BRANCH   5   7
HETATM    7  C3  UNL     1       4.201  -0.079  11.736  1.00  0.00     0.083 C 
BRANCH   7   8
HETATM    8  C4  UNL     1       2.795   0.360  11.569  1.00  0.00    -0.041 A 
HETATM    9  C5  UNL     1       1.743  -0.520  11.861  1.00  0.00     0.008 A 
HETATM   10  C6  UNL     1       0.418  -0.161  11.742  1.00  0.00     0.003 A 
HETATM   11  C7  UNL     1       0.099   1.109  11.320  1.00  0.00     0.030 A 
HETATM   12  C8  UNL     1       1.089   1.982  11.031  1.00  0.00     0.043 A 
HETATM   13  N1  UNL     1       1.023   3.273  10.594  1.00  0.00    -0.365 N 
HETATM   14  C17 UNL     1       2.431   1.622  11.151  1.00  0.00     0.005 A 
HETATM   15  C9  UNL     1       2.256   3.748  10.429  1.00  0.00     0.096 A 
ATOM     16  H1  UNL     1       0.163   3.792  10.420  1.00  0.00     0.165 HD
HETATM   17  C10 UNL     1       3.141   2.745  10.767  1.00  0.00    -0.027 A 
BRANCH  17  18
HETATM   18  C11 UNL     1       4.604   2.860  10.731  1.00  0.00     0.080 C 
BRANCH  18  19
HETATM   19  C12 UNL     1       5.162   2.273   9.421  1.00  0.00     0.240 C 
BRANCH  19  20
HETATM   20  N2  UNL     1       4.828   3.147   8.310  1.00  0.00    -0.069 N 
ATOM     21  H23 UNL     1       3.949   2.883   7.865  1.00  0.00     0.275 HD
ATOM     22  H22 UNL     1       4.561   4.080   8.622  1.00  0.00     0.275 HD
ATOM     23  H21 UNL     1       5.602   3.172   7.646  1.00  0.00     0.275 HD
ENDBRANCH  19  20
BRANCH  19  24
HETATM   24  C13 UNL     1       6.647   2.194   9.489  1.00  0.00     0.199 C 
BRANCH  24  25
HETATM   25  N3  UNL     1       7.241   1.656  10.446  1.00  0.00    -0.381 NA
BRANCH  25  26
HETATM   26  C14 UNL     1       7.686   0.882  11.315  1.00  0.00     0.015 C 
BRANCH  26  27
HETATM   27  C15 UNL     1       7.884   0.219  12.419  1.00  0.00     0.116 C 
HETATM   28  C16 UNL     1       7.612   0.761  13.771  1.00  0.00     0.020 C 
ENDBRANCH  26  27
ENDBRANCH  25  26
ENDBRANCH  24  25
ENDBRANCH  19  24
ENDBRANCH  18  19
ENDBRANCH  17  18
ENDBRANCH   7   8
ENDBRANCH   5   7
ENDBRANCH   1   5
BRANCH   3  29
HETATM   29  C19 UNL     1       5.397  -4.028  14.800  1.00  0.00     0.159 C 
BRANCH  29  30
HETATM   30  C20 UNL     1       4.294  -4.848  15.329  1.00  0.00     0.035 C 
BRANCH  30  31
HETATM   31  C21 UNL     1       3.074  -4.077  15.795  1.00  0.00     0.022 C 
BRANCH  31  32
HETATM   32  C22 UNL     1       2.681  -4.412  17.222  1.00  0.00     0.122 C 
BRANCH  32  33
HETATM   33  N5  UNL     1       3.926  -4.739  17.931  1.00  0.00    -0.367 N 
HETATM   34  C23 UNL     1       4.122  -5.894  18.484  1.00  0.00     0.196 C 
HETATM   35  N6  UNL     1       3.121  -6.910  18.423  1.00  0.00    -0.067 NA
HETATM   36  N7  UNL     1       5.344  -6.120  19.144  1.00  0.00    -0.067 NA
ATOM     37  H5  UNL     1       4.660  -4.033  17.991  1.00  0.00     0.161 HD
ENDBRANCH  32  33
ENDBRANCH  31  32
ENDBRANCH  30  31
ENDBRANCH  29  30
BRANCH  29  38
HETATM   38  C24 UNL     1       6.652  -3.935  15.527  1.00  0.00     0.136 C 
BRANCH  38  39
HETATM   39  O2  UNL     1       6.497  -4.085  16.826  1.00  0.00    -0.348 OA
ATOM     40  H2  UNL     1       6.032  -4.884  17.048  1.00  0.00     0.219 HD
ENDBRANCH  38  39
BRANCH  38  41
HETATM   41  N8  UNL     1       7.976  -3.728  15.147  1.00  0.00    -0.368 N 
HETATM   42  C25 UNL     1       8.691  -2.496  15.340  1.00  0.00     0.151 C 
BRANCH  41  43
HETATM   43  C26 UNL     1       8.738  -4.801  14.464  1.00  0.00     0.130 C 
BRANCH  43  44
HETATM   44  C27 UNL     1       9.934  -5.269  15.200  1.00  0.00     0.078 C 
BRANCH  44  45
HETATM   45  C28 UNL     1       9.600  -6.107  16.371  1.00  0.00     0.027 A 
HETATM   46  C29 UNL     1       9.810  -5.748  17.711  1.00  0.00     0.114 A 
HETATM   47  N9  UNL     1       9.398  -6.759  18.456  1.00  0.00    -0.360 N 
HETATM   48  C30 UNL     1       8.932  -7.760  17.672  1.00  0.00     0.180 A 
ATOM     49  H9  UNL     1       9.427  -6.783  19.476  1.00  0.00     0.166 HD
HETATM   50  N10 UNL     1       9.061  -7.349  16.403  1.00  0.00    -0.355 N 
ATOM     51  H10 UNL     1       8.792  -7.892  15.582  1.00  0.00     0.166 HD
ENDBRANCH  44  45
ENDBRANCH  43  44
ENDBRANCH  41  43
ENDBRANCH  38  41
ENDBRANCH  29  38
ENDBRANCH   3  29
TORSDOF 21
ENDMDL
MODEL 4
REMARK VINA RESULT: -7.926599938      1.417      3.894
REMARK  21 active torsions:
REMARK  status: ('A' for Active; 'I' for Inactive)
REMARK    1  A    between atoms: C2_2  and  C3_3 
REMARK    2  A    between atoms: C2_2  and  C18_25 
REMARK    3  A    between atoms: C3_3  and  C4_4 
REMARK    4  A    between atoms: C10_12  and  C11_13 
REMARK    5  A    between atoms: C11_13  and  C12_14 
REMARK    6  A    between atoms: C12_14  and  N2_15 
REMARK    7  A    between atoms: C12_14  and  C13_19 
REMARK    8  A    between atoms: C13_19  and  N3_20 
REMARK    9  A    between atoms: N3_20  and  C14_21 
REMARK   10  A    between atoms: C14_21  and  C15_22 
REMARK       I    between atoms: C18_25  and  N4_27 
REMARK   11  A    between atoms: N4_27  and  C19_29 
REMARK   12  A    between atoms: C19_29  and  C20_30 
REMARK   13  A    between atoms: C19_29  and  C24_38 
REMARK   14  A    between atoms: C20_30  and  C21_31 
REMARK   15  A    between atoms: C21_31  and  C22_32 
REMARK   16  A    between atoms: C22_32  and  N5_33 
REMARK   17  A    between atoms: C24_38  and  O2_39 
REMARK   18  A    between atoms: C24_38  and  N8_41 
REMARK   19  A    between atoms: N8_41  and  C26_43 
REMARK   20  A    between atoms: C26_43  and  C27_44 
REMARK   21  A    between atoms: C27_44  and  C28_45 
ROOT
HETATM    1  C18 UNL     1       4.575  -2.287  12.952  1.00  0.00     0.247 C 
HETATM    2  O1  UNL     1       5.048  -3.127  12.138  1.00  0.00    -0.268 OA
HETATM    3  N4  UNL     1       4.700  -2.433  14.322  1.00  0.00    -0.345 N 
ATOM      4  H4  UNL     1       4.273  -1.696  14.884  1.00  0.00     0.163 HD
ENDROOT
BRANCH   1   5
HETATM    5  C2  UNL     1       3.876  -1.140  12.365  1.00  0.00     0.004 C 
HETATM    6  C1  UNL     1       3.541  -1.071  11.109  1.00  0.00     0.025 C 
BRANCH   5   7
HETATM    7  C3  UNL     1       3.550   0.058  13.251  1.00  0.00     0.083 C 
BRANCH   7   8
HETATM    8  C4  UNL     1       2.227   0.536  12.783  1.00  0.00    -0.041 A 
HETATM    9  C5  UNL     1       1.055  -0.105  13.212  1.00  0.00     0.008 A 
HETATM   10  C6  UNL     1      -0.201   0.306  12.824  1.00  0.00     0.003 A 
HETATM   11  C7  UNL     1      -0.327   1.388  11.983  1.00  0.00     0.030 A 
HETATM   12  C8  UNL     1       0.782   2.028  11.552  1.00  0.00     0.043 A 
HETATM   13  N1  UNL     1       0.910   3.102  10.721  1.00  0.00    -0.365 N 
HETATM   14  C17 UNL     1       2.055   1.614  11.943  1.00  0.00     0.005 A 
HETATM   15  C9  UNL     1       2.201   3.389  10.563  1.00  0.00     0.096 A 
ATOM     16  H1  UNL     1       0.137   3.607  10.287  1.00  0.00     0.165 HD
HETATM   17  C10 UNL     1       2.926   2.482  11.309  1.00  0.00    -0.027 A 
BRANCH  17  18
HETATM   18  C11 UNL     1       4.390   2.453  11.415  1.00  0.00     0.080 C 
BRANCH  18  19
HETATM   19  C12 UNL     1       4.992   3.805  10.992  1.00  0.00     0.240 C 
BRANCH  19  20
HETATM   20  N2  UNL     1       4.885   4.755  12.086  1.00  0.00    -0.069 N 
ATOM     21  H23 UNL     1       3.943   4.789  12.474  1.00  0.00     0.275 HD
ATOM     22  H22 UNL     1       5.377   4.436  12.921  1.00  0.00     0.275 HD
ATOM     23  H21 UNL     1       5.207   5.673  11.779  1.00  0.00     0.275 HD
ENDBRANCH  19  20
BRANCH  19  24
HETATM   24  C13 UNL     1       6.440   3.646  10.687  1.00  0.00     0.199 C 
BRANCH  24  25
HETATM   25  N3  UNL     1       7.224   3.066  11.466  1.00  0.00    -0.381 NA
BRANCH  25  26
HETATM   26  C14 UNL     1       7.762   2.352  12.334  1.00  0.00     0.015 C 
BRANCH  26  27
HETATM   27  C15 UNL     1       7.980   1.522  13.313  1.00  0.00     0.116 C 
HETATM   28  C16 UNL     1       7.243   0.250  13.502  1.00  0.00     0.020 C 
ENDBRANCH  26  27
ENDBRANCH  25  26
ENDBRANCH  24  25
ENDBRANCH  19  24
ENDBRANCH  18  19
ENDBRANCH  17  18
ENDBRANCH   7   8
ENDBRANCH   5   7
ENDBRANCH   1   5
BRANCH   3  29
HETATM   29  C19 UNL     1       5.359  -3.497  15.079  1.00  0.00     0.159 C 
BRANCH  29  30
HETATM   30  C20 UNL     1       4.431  -4.163  16.008  1.00  0.00     0.035 C 
BRANCH  30  31
HETATM   31  C21 UNL     1       3.153  -4.692  15.387  1.00  0.00     0.022 C 
BRANCH  31  32
HETATM   32  C22 UNL     1       2.783  -6.072  15.897  1.00  0.00     0.122 C 
BRANCH  32  33
HETATM   33  N5  UNL     1       4.043  -6.730  16.272  1.00  0.00    -0.367 N 
HETATM   34  C23 UNL     1       4.126  -7.535  17.283  1.00  0.00     0.196 C 
HETATM   35  N6  UNL     1       2.978  -7.820  18.083  1.00  0.00    -0.067 NA
HETATM   36  N7  UNL     1       5.373  -8.119  17.571  1.00  0.00    -0.067 NA
ATOM     37  H5  UNL     1       4.879  -6.546  15.718  1.00  0.00     0.161 HD
ENDBRANCH  32  33
ENDBRANCH  31  32
ENDBRANCH  30  31
ENDBRANCH  29  30
BRANCH  29  38
HETATM   38  C24 UNL     1       6.629  -2.979  15.560  1.00  0.00     0.136 C 
BRANCH  38  39
HETATM   39  O2  UNL     1       6.480  -2.011  16.440  1.00  0.00    -0.348 OA
ATOM     40  H2  UNL     1       7.164  -2.009  17.100  1.00  0.00     0.219 HD
ENDBRANCH  38  39
BRANCH  38  41
HETATM   41  N8  UNL     1       7.962  -3.289  15.297  1.00  0.00    -0.368 N 
HETATM   42  C25 UNL     1       9.064  -2.398  15.540  1.00  0.00     0.151 C 
BRANCH  41  43
HETATM   43  C26 UNL     1       8.324  -4.595  14.695  1.00  0.00     0.130 C 
BRANCH  43  44
HETATM   44  C27 UNL     1       9.613  -5.150  15.163  1.00  0.00     0.078 C 
BRANCH  44  45
HETATM   45  C28 UNL     1       9.465  -6.055  16.322  1.00  0.00     0.027 A 
HETATM   46  C29 UNL     1       9.790  -5.733  17.648  1.00  0.00     0.114 A 
HETATM   47  N9  UNL     1       9.532  -6.800  18.385  1.00  0.00    -0.360 N 
HETATM   48  C30 UNL     1       9.056  -7.802  17.607  1.00  0.00     0.180 A 
ATOM     49  H9  UNL     1       9.670  -6.861  19.394  1.00  0.00     0.166 HD
HETATM   50  N10 UNL     1       9.020  -7.334  16.352  1.00  0.00    -0.355 N 
ATOM     51  H10 UNL     1       8.704  -7.863  15.539  1.00  0.00     0.166 HD
ENDBRANCH  44  45
ENDBRANCH  43  44
ENDBRANCH  41  43
ENDBRANCH  38  41
ENDBRANCH  29  38
ENDBRANCH   3  29
TORSDOF 21
ENDMDL
MODEL 5
REMARK VINA RESULT: -7.905127400      1.494      4.945
REMARK  21 active torsions:
REMARK  status: ('A' for Active; 'I' for Inactive)
REMARK    1  A    between atoms: C2_2  and  C3_3 
REMARK    2  A    between atoms: C2_2  and  C18_25 
REMARK    3  A    between atoms: C3_3  and  C4_4 
REMARK    4  A    between atoms: C10_12  and  C11_13 
REMARK    5  A    between atoms: C11_13  and  C12_14 
REMARK    6  A    between atoms: C12_14  and  N2_15 
REMARK    7  A    between atoms: C12_14  and  C13_19 
REMARK    8  A    between atoms: C13_19  and  N3_20 
REMARK    9  A    between atoms: N3_20  and  C14_21 
REMARK   10  A    between atoms: C14_21  and  C15_22 
REMARK       I    between atoms: C18_25  and  N4_27 
REMARK   11  A    between atoms: N4_27  and  C19_29 
REMARK   12  A    between atoms: C19_29  and  C20_30 
REMARK   13  A    between atoms: C19_29  and  C24_38 
REMARK   14  A    between atoms: C20_30  and  C21_31 
REMARK   15  A    between atoms: C21_31  and  C22_32 
REMARK   16  A    between atoms: C22_32  and  N5_33 
REMARK   17  A    between atoms: C24_38  and  O2_39 
REMARK   18  A    between atoms: C24_38  and  N8_41 
REMARK   19  A    between atoms: N8_41  and  C26_43 
REMARK   20  A    between atoms: C26_43  and  C27_44 
REMARK   21  A    between atoms: C27_44  and  C28_45 
ROOT
HETATM    1  C18 UNL     1       4.879  -0.960  13.992  1.00  0.00     0.247 C 
HETATM    2  O1  UNL     1       4.951  -0.202  15.000  1.00  0.00    -0.268 OA
HETATM    3  N4  UNL     1       5.439  -2.225  13.976  1.00  0.00    -0.345 N 
ATOM      4  H4  UNL     1       5.324  -2.745  13.106  1.00  0.00     0.163 HD
ENDROOT
BRANCH   1   5
HETATM    5  C2  UNL     1       4.168  -0.421  12.829  1.00  0.00     0.004 C 
HETATM    6  C1  UNL     1       3.909  -1.119  11.761  1.00  0.00     0.025 C 
BRANCH   5   7
HETATM    7  C3  UNL     1       3.735   1.041  12.841  1.00  0.00     0.083 C 
BRANCH   7   8
HETATM    8  C4  UNL     1       2.317   1.027  12.408  1.00  0.00    -0.041 A 
HETATM    9  C5  UNL     1       1.448   0.030  12.875  1.00  0.00     0.008 A 
HETATM   10  C6  UNL     1       0.118  -0.022  12.521  1.00  0.00     0.003 A 
HETATM   11  C7  UNL     1      -0.394   0.937  11.677  1.00  0.00     0.030 A 
HETATM   12  C8  UNL     1       0.416   1.912  11.211  1.00  0.00     0.043 A 
HETATM   13  N1  UNL     1       0.146   2.952  10.369  1.00  0.00    -0.365 N 
HETATM   14  C17 UNL     1       1.763   1.968  11.567  1.00  0.00     0.005 A 
HETATM   15  C9  UNL     1       1.255   3.663  10.173  1.00  0.00     0.096 A 
ATOM     16  H1  UNL     1      -0.764   3.153   9.955  1.00  0.00     0.165 HD
HETATM   17  C10 UNL     1       2.266   3.072  10.903  1.00  0.00    -0.027 A 
BRANCH  17  18
HETATM   18  C11 UNL     1       3.653   3.550  10.967  1.00  0.00     0.080 C 
BRANCH  18  19
HETATM   19  C12 UNL     1       4.523   2.833   9.919  1.00  0.00     0.240 C 
BRANCH  19  20
HETATM   20  N2  UNL     1       4.182   3.309   8.589  1.00  0.00    -0.069 N 
ATOM     21  H23 UNL     1       3.630   2.628   8.068  1.00  0.00     0.275 HD
ATOM     22  H22 UNL     1       3.498   4.065   8.615  1.00  0.00     0.275 HD
ATOM     23  H21 UNL     1       5.031   3.577   8.091  1.00  0.00     0.275 HD
ENDBRANCH  19  20
BRANCH  19  24
HETATM   24  C13 UNL     1       5.959   3.149  10.145  1.00  0.00     0.199 C 
BRANCH  24  25
HETATM   25  N3  UNL     1       6.566   2.788  11.175  1.00  0.00    -0.381 NA
BRANCH  25  26
HETATM   26  C14 UNL     1       7.179   2.168  12.066  1.00  0.00     0.015 C 
BRANCH  26  27
HETATM   27  C15 UNL     1       7.709   1.236  12.804  1.00  0.00     0.116 C 
HETATM   28  C16 UNL     1       7.952  -0.151  12.340  1.00  0.00     0.020 C 
ENDBRANCH  26  27
ENDBRANCH  25  26
ENDBRANCH  24  25
ENDBRANCH  19  24
ENDBRANCH  18  19
ENDBRANCH  17  18
ENDBRANCH   7   8
ENDBRANCH   5   7
ENDBRANCH   1   5
BRANCH   3  29
HETATM   29  C19 UNL     1       6.172  -2.921  15.032  1.00  0.00     0.159 C 
BRANCH  29  30
HETATM   30  C20 UNL     1       7.370  -3.599  14.510  1.00  0.00     0.035 C 
BRANCH  30  31
HETATM   31  C21 UNL     1       8.681  -3.200  15.159  1.00  0.00     0.022 C 
BRANCH  31  32
HETATM   32  C22 UNL     1       9.449  -4.390  15.705  1.00  0.00     0.122 C 
BRANCH  32  33
HETATM   33  N5  UNL     1       8.509  -5.142  16.548  1.00  0.00    -0.367 N 
HETATM   34  C23 UNL     1       8.832  -5.571  17.726  1.00  0.00     0.196 C 
HETATM   35  N6  UNL     1      10.133  -5.325  18.261  1.00  0.00    -0.067 NA
HETATM   36  N7  UNL     1       7.869  -6.285  18.464  1.00  0.00    -0.067 NA
ATOM     37  H5  UNL     1       7.572  -5.332  16.193  1.00  0.00     0.161 HD
ENDBRANCH  32  33
ENDBRANCH  31  32
ENDBRANCH  30  31
ENDBRANCH  29  30
BRANCH  29  38
HETATM   38  C24 UNL     1       5.207  -3.656  15.834  1.00  0.00     0.136 C 
BRANCH  38  39
HETATM   39  O2  UNL     1       5.775  -4.350  16.798  1.00  0.00    -0.348 OA
ATOM     40  H2  UNL     1       5.697  -5.288  16.667  1.00  0.00     0.219 HD
ENDBRANCH  38  39
BRANCH  38  41
HETATM   41  N8  UNL     1       3.820  -3.777  15.806  1.00  0.00    -0.368 N 
HETATM   42  C25 UNL     1       2.923  -3.013  16.630  1.00  0.00     0.151 C 
BRANCH  41  43
HETATM   43  C26 UNL     1       3.171  -4.767  14.912  1.00  0.00     0.130 C 
BRANCH  43  44
HETATM   44  C27 UNL     1       2.523  -5.896  15.614  1.00  0.00     0.078 C 
BRANCH  44  45
HETATM   45  C28 UNL     1       3.482  -6.935  16.045  1.00  0.00     0.027 A 
HETATM   46  C29 UNL     1       3.750  -8.127  15.356  1.00  0.00     0.114 A 
HETATM   47  N9  UNL     1       4.648  -8.794  16.061  1.00  0.00    -0.360 N 
HETATM   48  C30 UNL     1       4.979  -8.099  17.176  1.00  0.00     0.180 A 
ATOM     49  H9  UNL     1       5.037  -9.701  15.803  1.00  0.00     0.166 HD
HETATM   50  N10 UNL     1       4.261  -6.967  17.153  1.00  0.00    -0.355 N 
ATOM     51  H10 UNL     1       4.296  -6.238  17.866  1.00  0.00     0.166 HD
ENDBRANCH  44  45
ENDBRANCH  43  44
ENDBRANCH  41  43
ENDBRANCH  38  41
ENDBRANCH  29  38
ENDBRANCH   3  29
TORSDOF 21
ENDMDL
