MODEL 1
REMARK VINA RESULT: -8.652251811      0.000      0.000
REMARK  18 active torsions:
REMARK  status: ('A' for Active; 'I' for Inactive)
REMARK    1  A    between atoms: C2_2  and  N1_3 
REMARK    2  A    between atoms: C4_5  and  N2_6 
REMARK       I    between atoms: N2_6  and  C5_8 
REMARK    3  A    between atoms: N4_13  and  C7_14 
REMARK    4  A    between atoms: C7_14  and  C8_15 
REMARK    5  A    between atoms: C8_15  and  C9_16 
REMARK    6  A    between atoms: C9_16  and  C10_17 
REMARK    7  A    between atoms: C10_17  and  C11_18 
REMARK    8  A    between atoms: C11_18  and  C12_19 
REMARK    9  A    between atoms: C12_19  and  C13_20 
REMARK   10  A    between atoms: C13_20  and  C14_21 
REMARK   11  A    between atoms: C14_21  and  C15_22 
REMARK   12  A    between atoms: C15_22  and  C16_23 
REMARK   13  A    between atoms: C16_23  and  N5_24 
REMARK   14  A    between atoms: N5_24  and  C17_26 
REMARK   15  A    between atoms: C17_26  and  N6_28 
REMARK       I    between atoms: C18_30  and  N8_32 
REMARK   16  A    between atoms: N8_32  and  C19_34 
REMARK   17  A    between atoms: C25_40  and  C26_41 
REMARK   18  A    between atoms: C26_41  and  O3_42 
ROOT
HETATM    1  C10 UNL     1       1.881  -0.661  13.488  1.00  0.00     0.000 C 
ENDROOT
BRANCH   1   2
HETATM    2  C9  UNL     1       2.755  -0.671  12.284  1.00  0.00     0.002 C 
BRANCH   2   3
HETATM    3  C8  UNL     1       4.024  -1.477  12.425  1.00  0.00     0.020 C 
BRANCH   3   4
HETATM    4  C7  UNL     1       3.788  -2.671  13.278  1.00  0.00     0.127 C 
BRANCH   4   5
HETATM    5  N4  UNL     1       4.627  -2.795  14.423  1.00  0.00    -0.335 N 
HETATM    6  C6  UNL     1       4.561  -4.005  15.184  1.00  0.00     0.245 C 
HETATM    7  C4  UNL     1       5.631  -4.669  16.011  1.00  0.00     0.196 C 
HETATM    8  O2  UNL     1       3.439  -4.564  15.129  1.00  0.00    -0.271 OA
HETATM    9  C3  UNL     1       6.948  -4.626  15.296  1.00  0.00     0.160 C 
HETATM   10  N1  UNL     1       7.526  -3.331  15.150  1.00  0.00    -0.348 N 
HETATM   11  C27 UNL     1       6.945  -2.134  14.666  1.00  0.00     0.245 C 
HETATM   12  C25 UNL     1       5.519  -1.695  14.748  1.00  0.00     0.203 C 
HETATM   13  O4  UNL     1       7.730  -1.339  14.095  1.00  0.00    -0.271 OA
BRANCH   7  14
HETATM   14  N2  UNL     1       5.253  -6.071  16.101  1.00  0.00    -0.331 N 
HETATM   15  C5  UNL     1       5.094  -6.719  17.354  1.00  0.00     0.329 C 
HETATM   16  N3  UNL     1       4.726  -8.084  17.426  1.00  0.00    -0.040 NA
HETATM   17  O1  UNL     1       5.272  -6.115  18.447  1.00  0.00    -0.251 OA
ATOM     18  H2  UNL     1       5.099  -6.601  15.243  1.00  0.00     0.164 HD
ENDBRANCH   7  14
BRANCH  10  19
HETATM   19  C2  UNL     1       8.939  -3.249  15.565  1.00  0.00     0.121 C 
HETATM   20  C1  UNL     1       9.756  -4.341  14.958  1.00  0.00     0.026 C 
ENDBRANCH  10  19
BRANCH  12  21
HETATM   21  C26 UNL     1       5.243  -1.132  16.144  1.00  0.00     0.199 C 
BRANCH  21  22
HETATM   22  O3  UNL     1       5.046   0.226  16.151  1.00  0.00    -0.398 OA
ATOM     23  H3  UNL     1       4.152   0.476  15.949  1.00  0.00     0.209 HD
ENDBRANCH  21  22
ENDBRANCH  12  21
ENDBRANCH   4   5
ENDBRANCH   3   4
ENDBRANCH   2   3
ENDBRANCH   1   2
BRANCH   1  24
HETATM   24  C11 UNL     1       0.510  -0.073  13.213  1.00  0.00     0.000 C 
BRANCH  24  25
HETATM   25  C12 UNL     1       0.483   0.409  11.775  1.00  0.00     0.000 C 
BRANCH  25  26
HETATM   26  C13 UNL     1      -0.301   1.680  11.705  1.00  0.00     0.000 C 
BRANCH  26  27
HETATM   27  C14 UNL     1       0.350   2.659  10.771  1.00  0.00     0.002 C 
BRANCH  27  28
HETATM   28  C15 UNL     1       0.461   2.085   9.394  1.00  0.00     0.020 C 
BRANCH  28  29
HETATM   29  C16 UNL     1       0.749   3.218   8.417  1.00  0.00     0.122 C 
BRANCH  29  30
HETATM   30  N5  UNL     1       2.035   2.998   7.819  1.00  0.00    -0.367 N 
ATOM     31  H5  UNL     1       2.146   2.245   7.140  1.00  0.00     0.161 HD
BRANCH  30  32
HETATM   32  C17 UNL     1       3.178   3.818   8.155  1.00  0.00     0.174 C 
HETATM   33  S1  UNL     1       4.295   4.111   6.975  1.00  0.00    -0.041 SA
BRANCH  32  34
HETATM   34  N6  UNL     1       3.301   4.347   9.444  1.00  0.00    -0.308 N 
HETATM   35  C18 UNL     1       3.890   3.633  10.365  1.00  0.00     0.191 C 
HETATM   36  N7  UNL     1       3.966   4.256  11.639  1.00  0.00    -0.063 NA
HETATM   37  N8  UNL     1       4.417   2.351  10.172  1.00  0.00    -0.356 N 
ATOM     38  H8  UNL     1       3.756   1.574  10.170  1.00  0.00     0.162 HD
ATOM     39  H6  UNL     1       2.935   5.274   9.662  1.00  0.00     0.171 HD
BRANCH  37  40
HETATM   40  C19 UNL     1       5.826   2.025   9.974  1.00  0.00     0.110 A 
HETATM   41  C20 UNL     1       6.290   1.109  11.009  1.00  0.00    -0.002 A 
HETATM   42  C21 UNL     1       7.363   1.280  11.733  1.00  0.00    -0.002 A 
HETATM   43  C22 UNL     1       8.185   2.459  11.529  1.00  0.00    -0.004 A 
HETATM   44  C23 UNL     1       7.835   3.342  10.624  1.00  0.00    -0.024 A 
HETATM   45  C24 UNL     1       6.639   3.234   9.778  1.00  0.00     0.056 A 
ENDBRANCH  37  40
ENDBRANCH  32  34
ENDBRANCH  30  32
ENDBRANCH  29  30
ENDBRANCH  28  29
ENDBRANCH  27  28
ENDBRANCH  26  27
ENDBRANCH  25  26
ENDBRANCH  24  25
ENDBRANCH   1  24
TORSDOF 18
ENDMDL
MODEL 2
REMARK VINA RESULT: -8.457206860      2.000      5.066
REMARK  18 active torsions:
REMARK  status: ('A' for Active; 'I' for Inactive)
REMARK    1  A    between atoms: C2_2  and  N1_3 
REMARK    2  A    between atoms: C4_5  and  N2_6 
REMARK       I    between atoms: N2_6  and  C5_8 
REMARK    3  A    between atoms: N4_13  and  C7_14 
REMARK    4  A    between atoms: C7_14  and  C8_15 
REMARK    5  A    between atoms: C8_15  and  C9_16 
REMARK    6  A    between atoms: C9_16  and  C10_17 
REMARK    7  A    between atoms: C10_17  and  C11_18 
REMARK    8  A    between atoms: C11_18  and  C12_19 
REMARK    9  A    between atoms: C12_19  and  C13_20 
REMARK   10  A    between atoms: C13_20  and  C14_21 
REMARK   11  A    between atoms: C14_21  and  C15_22 
REMARK   12  A    between atoms: C15_22  and  C16_23 
REMARK   13  A    between atoms: C16_23  and  N5_24 
REMARK   14  A    between atoms: N5_24  and  C17_26 
REMARK   15  A    between atoms: C17_26  and  N6_28 
REMARK       I    between atoms: C18_30  and  N8_32 
REMARK   16  A    between atoms: N8_32  and  C19_34 
REMARK   17  A    between atoms: C25_40  and  C26_41 
REMARK   18  A    between atoms: C26_41  and  O3_42 
ROOT
HETATM    1  C10 UNL     1       7.498  -0.394  13.121  1.00  0.00     0.000 C 
ENDROOT
BRANCH   1   2
HETATM    2  C9  UNL     1       6.844   0.308  14.258  1.00  0.00     0.002 C 
BRANCH   2   3
HETATM    3  C8  UNL     1       5.413  -0.100  14.519  1.00  0.00     0.020 C 
BRANCH   3   4
HETATM    4  C7  UNL     1       5.351  -1.098  15.619  1.00  0.00     0.127 C 
BRANCH   4   5
HETATM    5  N4  UNL     1       5.573  -2.454  15.243  1.00  0.00    -0.335 N 
HETATM    6  C6  UNL     1       6.579  -3.194  15.941  1.00  0.00     0.245 C 
HETATM    7  C4  UNL     1       6.659  -4.676  16.207  1.00  0.00     0.196 C 
HETATM    8  O2  UNL     1       7.508  -2.475  16.380  1.00  0.00    -0.271 OA
HETATM    9  C3  UNL     1       5.314  -5.211  16.598  1.00  0.00     0.160 C 
HETATM   10  N1  UNL     1       4.327  -5.204  15.569  1.00  0.00    -0.348 N 
HETATM   11  C27 UNL     1       3.931  -4.153  14.707  1.00  0.00     0.245 C 
HETATM   12  C25 UNL     1       4.754  -3.020  14.185  1.00  0.00     0.203 C 
HETATM   13  O4  UNL     1       2.733  -4.177  14.334  1.00  0.00    -0.271 OA
BRANCH   7  14
HETATM   14  N2  UNL     1       7.520  -4.827  17.369  1.00  0.00    -0.331 N 
HETATM   15  C5  UNL     1       8.757  -5.518  17.292  1.00  0.00     0.329 C 
HETATM   16  N3  UNL     1       9.586  -5.657  18.432  1.00  0.00    -0.040 NA
HETATM   17  O1  UNL     1       9.170  -6.035  16.218  1.00  0.00    -0.251 OA
ATOM     18  H2  UNL     1       7.228  -4.427  18.261  1.00  0.00     0.164 HD
ENDBRANCH   7  14
BRANCH  10  19
HETATM   19  C2  UNL     1       3.623  -6.489  15.398  1.00  0.00     0.121 C 
HETATM   20  C1  UNL     1       2.927  -6.907  16.652  1.00  0.00     0.026 C 
ENDBRANCH  10  19
BRANCH  12  21
HETATM   21  C26 UNL     1       5.603  -3.512  13.010  1.00  0.00     0.199 C 
BRANCH  21  22
HETATM   22  O3  UNL     1       5.088  -3.166  11.787  1.00  0.00    -0.398 OA
ATOM     23  H3  UNL     1       5.631  -2.548  11.313  1.00  0.00     0.209 HD
ENDBRANCH  21  22
ENDBRANCH  12  21
ENDBRANCH   4   5
ENDBRANCH   3   4
ENDBRANCH   2   3
ENDBRANCH   1   2
BRANCH   1  24
HETATM   24  C11 UNL     1       6.808  -0.135  11.796  1.00  0.00     0.000 C 
BRANCH  24  25
HETATM   25  C12 UNL     1       7.869   0.234  10.776  1.00  0.00     0.000 C 
BRANCH  25  26
HETATM   26  C13 UNL     1       8.801   1.232  11.386  1.00  0.00     0.000 C 
BRANCH  26  27
HETATM   27  C14 UNL     1       8.389   2.632  11.037  1.00  0.00     0.002 C 
BRANCH  27  28
HETATM   28  C15 UNL     1       7.623   3.256  12.161  1.00  0.00     0.020 C 
BRANCH  28  29
HETATM   29  C16 UNL     1       6.516   4.123  11.574  1.00  0.00     0.122 C 
BRANCH  29  30
HETATM   30  N5  UNL     1       5.431   3.276  11.167  1.00  0.00    -0.367 N 
ATOM     31  H5  UNL     1       5.026   2.628  11.841  1.00  0.00     0.161 HD
BRANCH  30  32
HETATM   32  C17 UNL     1       4.899   3.322   9.823  1.00  0.00     0.174 C 
HETATM   33  S1  UNL     1       5.700   2.488   8.644  1.00  0.00    -0.041 SA
BRANCH  32  34
HETATM   34  N6  UNL     1       3.730   4.044   9.560  1.00  0.00    -0.308 N 
HETATM   35  C18 UNL     1       2.575   3.477   9.780  1.00  0.00     0.191 C 
HETATM   36  N7  UNL     1       1.450   4.291   9.483  1.00  0.00    -0.063 NA
HETATM   37  N8  UNL     1       2.398   2.175  10.261  1.00  0.00    -0.356 N 
ATOM     38  H8  UNL     1       2.502   1.414   9.589  1.00  0.00     0.162 HD
ATOM     39  H6  UNL     1       3.780   4.998   9.202  1.00  0.00     0.171 HD
BRANCH  37  40
HETATM   40  C19 UNL     1       2.079   1.806  11.637  1.00  0.00     0.110 A 
HETATM   41  C20 UNL     1       2.795   0.595  12.021  1.00  0.00    -0.002 A 
HETATM   42  C21 UNL     1       2.245  -0.457  12.566  1.00  0.00    -0.002 A 
HETATM   43  C22 UNL     1       0.817  -0.469  12.823  1.00  0.00    -0.004 A 
HETATM   44  C23 UNL     1       0.094   0.576  12.497  1.00  0.00    -0.024 A 
HETATM   45  C24 UNL     1       0.627   1.793  11.870  1.00  0.00     0.056 A 
ENDBRANCH  37  40
ENDBRANCH  32  34
ENDBRANCH  30  32
ENDBRANCH  29  30
ENDBRANCH  28  29
ENDBRANCH  27  28
ENDBRANCH  26  27
ENDBRANCH  25  26
ENDBRANCH  24  25
ENDBRANCH   1  24
TORSDOF 18
ENDMDL
MODEL 3
REMARK VINA RESULT: -8.452171597      1.554      2.065
REMARK  18 active torsions:
REMARK  status: ('A' for Active; 'I' for Inactive)
REMARK    1  A    between atoms: C2_2  and  N1_3 
REMARK    2  A    between atoms: C4_5  and  N2_6 
REMARK       I    between atoms: N2_6  and  C5_8 
REMARK    3  A    between atoms: N4_13  and  C7_14 
REMARK    4  A    between atoms: C7_14  and  C8_15 
REMARK    5  A    between atoms: C8_15  and  C9_16 
REMARK    6  A    between atoms: C9_16  and  C10_17 
REMARK    7  A    between atoms: C10_17  and  C11_18 
REMARK    8  A    between atoms: C11_18  and  C12_19 
REMARK    9  A    between atoms: C12_19  and  C13_20 
REMARK   10  A    between atoms: C13_20  and  C14_21 
REMARK   11  A    between atoms: C14_21  and  C15_22 
REMARK   12  A    between atoms: C15_22  and  C16_23 
REMARK   13  A    between atoms: C16_23  and  N5_24 
REMARK   14  A    between atoms: N5_24  and  C17_26 
REMARK   15  A    between atoms: C17_26  and  N6_28 
REMARK       I    between atoms: C18_30  and  N8_32 
REMARK   16  A    between atoms: N8_32  and  C19_34 
REMARK   17  A    between atoms: C25_40  and  C26_41 
REMARK   18  A    between atoms: C26_41  and  O3_42 
ROOT
HETATM    1  C10 UNL     1       1.860  -0.042  13.315  1.00  0.00     0.000 C 
ENDROOT
BRANCH   1   2
HETATM    2  C9  UNL     1       2.389  -1.319  13.866  1.00  0.00     0.002 C 
BRANCH   2   3
HETATM    3  C8  UNL     1       3.476  -1.966  13.041  1.00  0.00     0.020 C 
BRANCH   3   4
HETATM    4  C7  UNL     1       3.935  -3.225  13.683  1.00  0.00     0.127 C 
BRANCH   4   5
HETATM    5  N4  UNL     1       4.863  -3.076  14.753  1.00  0.00    -0.335 N 
HETATM    6  C6  UNL     1       5.076  -4.190  15.626  1.00  0.00     0.245 C 
HETATM    7  C4  UNL     1       6.308  -4.563  16.410  1.00  0.00     0.196 C 
HETATM    8  O2  UNL     1       4.075  -4.939  15.727  1.00  0.00    -0.271 OA
HETATM    9  C3  UNL     1       7.539  -4.367  15.578  1.00  0.00     0.160 C 
HETATM   10  N1  UNL     1       7.857  -3.014  15.260  1.00  0.00    -0.348 N 
HETATM   11  C27 UNL     1       7.032  -1.997  14.722  1.00  0.00     0.245 C 
HETATM   12  C25 UNL     1       5.560  -1.808  14.892  1.00  0.00     0.203 C 
HETATM   13  O4  UNL     1       7.614  -1.144  14.010  1.00  0.00    -0.271 OA
BRANCH   7  14
HETATM   14  N2  UNL     1       6.201  -5.992  16.664  1.00  0.00    -0.331 N 
HETATM   15  C5  UNL     1       6.519  -6.547  17.932  1.00  0.00     0.329 C 
HETATM   16  N3  UNL     1       6.410  -7.940  18.164  1.00  0.00    -0.040 NA
HETATM   17  O1  UNL     1       6.909  -5.834  18.896  1.00  0.00    -0.251 OA
ATOM     18  H2  UNL     1       5.890  -6.609  15.914  1.00  0.00     0.164 HD
ENDBRANCH   7  14
BRANCH  10  19
HETATM   19  C2  UNL     1       9.257  -2.642  15.535  1.00  0.00     0.121 C 
HETATM   20  C1  UNL     1      10.215  -3.510  14.787  1.00  0.00     0.026 C 
ENDBRANCH  10  19
BRANCH  12  21
HETATM   21  C26 UNL     1       5.287  -1.155  16.249  1.00  0.00     0.199 C 
BRANCH  21  22
HETATM   22  O3  UNL     1       5.077   0.198  16.166  1.00  0.00    -0.398 OA
ATOM     23  H3  UNL     1       4.838   0.592  16.997  1.00  0.00     0.209 HD
ENDBRANCH  21  22
ENDBRANCH  12  21
ENDBRANCH   4   5
ENDBRANCH   3   4
ENDBRANCH   2   3
ENDBRANCH   1   2
BRANCH   1  24
HETATM   24  C11 UNL     1       0.360  -0.074  13.094  1.00  0.00     0.000 C 
BRANCH  24  25
HETATM   25  C12 UNL     1       0.105  -0.132  11.600  1.00  0.00     0.000 C 
BRANCH  25  26
HETATM   26  C13 UNL     1       1.262   0.491  10.886  1.00  0.00     0.000 C 
BRANCH  26  27
HETATM   27  C14 UNL     1       0.861   1.792  10.253  1.00  0.00     0.002 C 
BRANCH  27  28
HETATM   28  C15 UNL     1       1.329   2.948  11.079  1.00  0.00     0.020 C 
BRANCH  28  29
HETATM   29  C16 UNL     1       2.487   3.625  10.356  1.00  0.00     0.122 C 
BRANCH  29  30
HETATM   30  N5  UNL     1       3.715   3.263  11.006  1.00  0.00    -0.367 N 
ATOM     31  H5  UNL     1       3.977   3.734  11.871  1.00  0.00     0.161 HD
BRANCH  30  32
HETATM   32  C17 UNL     1       4.588   2.247  10.462  1.00  0.00     0.174 C 
HETATM   33  S1  UNL     1       5.163   1.090  11.491  1.00  0.00    -0.041 SA
BRANCH  32  34
HETATM   34  N6  UNL     1       4.909   2.259   9.101  1.00  0.00    -0.308 N 
HETATM   35  C18 UNL     1       5.946   2.945   8.704  1.00  0.00     0.191 C 
HETATM   36  N7  UNL     1       6.189   2.895   7.306  1.00  0.00    -0.063 NA
HETATM   37  N8  UNL     1       6.782   3.695   9.540  1.00  0.00    -0.356 N 
ATOM     38  H8  UNL     1       6.444   4.612   9.831  1.00  0.00     0.162 HD
ATOM     39  H6  UNL     1       4.343   1.740   8.430  1.00  0.00     0.171 HD
BRANCH  37  40
HETATM   40  C19 UNL     1       8.093   3.283  10.033  1.00  0.00     0.110 A 
HETATM   41  C20 UNL     1       8.488   2.014   9.433  1.00  0.00    -0.002 A 
HETATM   42  C21 UNL     1       8.913   0.973  10.099  1.00  0.00    -0.002 A 
HETATM   43  C22 UNL     1       9.010   1.037  11.545  1.00  0.00    -0.004 A 
HETATM   44  C23 UNL     1       8.663   2.139  12.168  1.00  0.00    -0.024 A 
HETATM   45  C24 UNL     1       8.164   3.348  11.500  1.00  0.00     0.056 A 
ENDBRANCH  37  40
ENDBRANCH  32  34
ENDBRANCH  30  32
ENDBRANCH  29  30
ENDBRANCH  28  29
ENDBRANCH  27  28
ENDBRANCH  26  27
ENDBRANCH  25  26
ENDBRANCH  24  25
ENDBRANCH   1  24
TORSDOF 18
ENDMDL
MODEL 4
REMARK VINA RESULT: -8.364267984      1.845      2.717
REMARK  18 active torsions:
REMARK  status: ('A' for Active; 'I' for Inactive)
REMARK    1  A    between atoms: C2_2  and  N1_3 
REMARK    2  A    between atoms: C4_5  and  N2_6 
REMARK       I    between atoms: N2_6  and  C5_8 
REMARK    3  A    between atoms: N4_13  and  C7_14 
REMARK    4  A    between atoms: C7_14  and  C8_15 
REMARK    5  A    between atoms: C8_15  and  C9_16 
REMARK    6  A    between atoms: C9_16  and  C10_17 
REMARK    7  A    between atoms: C10_17  and  C11_18 
REMARK    8  A    between atoms: C11_18  and  C12_19 
REMARK    9  A    between atoms: C12_19  and  C13_20 
REMARK   10  A    between atoms: C13_20  and  C14_21 
REMARK   11  A    between atoms: C14_21  and  C15_22 
REMARK   12  A    between atoms: C15_22  and  C16_23 
REMARK   13  A    between atoms: C16_23  and  N5_24 
REMARK   14  A    between atoms: N5_24  and  C17_26 
REMARK   15  A    between atoms: C17_26  and  N6_28 
REMARK       I    between atoms: C18_30  and  N8_32 
REMARK   16  A    between atoms: N8_32  and  C19_34 
REMARK   17  A    between atoms: C25_40  and  C26_41 
REMARK   18  A    between atoms: C26_41  and  O3_42 
ROOT
HETATM    1  C10 UNL     1       1.662  -0.432  11.335  1.00  0.00     0.000 C 
ENDROOT
BRANCH   1   2
HETATM    2  C9  UNL     1       2.155  -0.747  12.703  1.00  0.00     0.002 C 
BRANCH   2   3
HETATM    3  C8  UNL     1       3.599  -1.183  12.775  1.00  0.00     0.020 C 
BRANCH   3   4
HETATM    4  C7  UNL     1       3.696  -2.577  13.280  1.00  0.00     0.127 C 
BRANCH   4   5
HETATM    5  N4  UNL     1       4.333  -2.740  14.544  1.00  0.00    -0.335 N 
HETATM    6  C6  UNL     1       3.859  -3.771  15.415  1.00  0.00     0.245 C 
HETATM    7  C4  UNL     1       4.611  -4.555  16.460  1.00  0.00     0.196 C 
HETATM    8  O2  UNL     1       2.643  -4.033  15.256  1.00  0.00    -0.271 OA
HETATM    9  C3  UNL     1       5.964  -4.946  15.949  1.00  0.00     0.160 C 
HETATM   10  N1  UNL     1       6.880  -3.873  15.749  1.00  0.00    -0.348 N 
HETATM   11  C27 UNL     1       6.700  -2.652  15.055  1.00  0.00     0.245 C 
HETATM   12  C25 UNL     1       5.444  -1.863  14.874  1.00  0.00     0.203 C 
HETATM   13  O4  UNL     1       7.729  -2.171  14.523  1.00  0.00    -0.271 OA
BRANCH   7  14
HETATM   14  N2  UNL     1       3.863  -5.789  16.646  1.00  0.00    -0.331 N 
HETATM   15  C5  UNL     1       3.679  -6.358  17.934  1.00  0.00     0.329 C 
HETATM   16  N3  UNL     1       2.949  -7.561  18.100  1.00  0.00    -0.040 NA
HETATM   17  O1  UNL     1       4.150  -5.826  18.976  1.00  0.00    -0.251 OA
ATOM     18  H2  UNL     1       3.463  -6.257  15.833  1.00  0.00     0.164 HD
ENDBRANCH   7  14
BRANCH  10  19
HETATM   19  C2  UNL     1       8.206  -4.088  16.358  1.00  0.00     0.121 C 
HETATM   20  C1  UNL     1       8.939  -5.211  15.701  1.00  0.00     0.026 C 
ENDBRANCH  10  19
BRANCH  12  21
HETATM   21  C26 UNL     1       5.170  -1.052  16.144  1.00  0.00     0.199 C 
BRANCH  21  22
HETATM   22  O3  UNL     1       4.951   0.280  15.898  1.00  0.00    -0.398 OA
ATOM     23  H3  UNL     1       4.087   0.573  16.161  1.00  0.00     0.209 HD
ENDBRANCH  21  22
ENDBRANCH  12  21
ENDBRANCH   4   5
ENDBRANCH   3   4
ENDBRANCH   2   3
ENDBRANCH   1   2
BRANCH   1  24
HETATM   24  C11 UNL     1       0.389   0.392  11.345  1.00  0.00     0.000 C 
BRANCH  24  25
HETATM   25  C12 UNL     1       0.626   1.637  10.512  1.00  0.00     0.000 C 
BRANCH  25  26
HETATM   26  C13 UNL     1       1.449   2.601  11.305  1.00  0.00     0.000 C 
BRANCH  26  27
HETATM   27  C14 UNL     1       2.611   3.102  10.498  1.00  0.00     0.002 C 
BRANCH  27  28
HETATM   28  C15 UNL     1       3.891   2.491  10.975  1.00  0.00     0.020 C 
BRANCH  28  29
HETATM   29  C16 UNL     1       5.028   2.991  10.093  1.00  0.00     0.122 C 
BRANCH  29  30
HETATM   30  N5  UNL     1       5.448   1.924   9.229  1.00  0.00    -0.367 N 
ATOM     31  H5  UNL     1       5.036   0.999   9.344  1.00  0.00     0.161 HD
BRANCH  30  32
HETATM   32  C17 UNL     1       6.443   2.130   8.200  1.00  0.00     0.174 C 
HETATM   33  S1  UNL     1       6.685   3.670   7.655  1.00  0.00    -0.041 SA
BRANCH  32  34
HETATM   34  N6  UNL     1       7.173   1.043   7.708  1.00  0.00    -0.308 N 
HETATM   35  C18 UNL     1       8.308   0.737   8.278  1.00  0.00     0.191 C 
HETATM   36  N7  UNL     1       8.973  -0.380   7.708  1.00  0.00    -0.063 NA
HETATM   37  N8  UNL     1       8.875   1.422   9.358  1.00  0.00    -0.356 N 
ATOM     38  H8  UNL     1       9.359   2.296   9.151  1.00  0.00     0.162 HD
ATOM     39  H6  UNL     1       6.826   0.499   6.919  1.00  0.00     0.171 HD
BRANCH  37  40
HETATM   40  C19 UNL     1       8.836   1.000  10.756  1.00  0.00     0.110 A 
HETATM   41  C20 UNL     1       7.892  -0.098  10.932  1.00  0.00    -0.002 A 
HETATM   42  C21 UNL     1       6.950  -0.134  11.835  1.00  0.00    -0.002 A 
HETATM   43  C22 UNL     1       6.789   0.980  12.750  1.00  0.00    -0.004 A 
HETATM   44  C23 UNL     1       7.589   2.015  12.654  1.00  0.00    -0.024 A 
HETATM   45  C24 UNL     1       8.665   2.144  11.662  1.00  0.00     0.056 A 
ENDBRANCH  37  40
ENDBRANCH  32  34
ENDBRANCH  30  32
ENDBRANCH  29  30
ENDBRANCH  28  29
ENDBRANCH  27  28
ENDBRANCH  26  27
ENDBRANCH  25  26
ENDBRANCH  24  25
ENDBRANCH   1  24
TORSDOF 18
ENDMDL
MODEL 5
REMARK VINA RESULT: -8.352382594      0.964      1.220
REMARK  18 active torsions:
REMARK  status: ('A' for Active; 'I' for Inactive)
REMARK    1  A    between atoms: C2_2  and  N1_3 
REMARK    2  A    between atoms: C4_5  and  N2_6 
REMARK       I    between atoms: N2_6  and  C5_8 
REMARK    3  A    between atoms: N4_13  and  C7_14 
REMARK    4  A    between atoms: C7_14  and  C8_15 
REMARK    5  A    between atoms: C8_15  and  C9_16 
REMARK    6  A    between atoms: C9_16  and  C10_17 
REMARK    7  A    between atoms: C10_17  and  C11_18 
REMARK    8  A    between atoms: C11_18  and  C12_19 
REMARK    9  A    between atoms: C12_19  and  C13_20 
REMARK   10  A    between atoms: C13_20  and  C14_21 
REMARK   11  A    between atoms: C14_21  and  C15_22 
REMARK   12  A    between atoms: C15_22  and  C16_23 
REMARK   13  A    between atoms: C16_23  and  N5_24 
REMARK   14  A    between atoms: N5_24  and  C17_26 
REMARK   15  A    between atoms: C17_26  and  N6_28 
REMARK       I    between atoms: C18_30  and  N8_32 
REMARK   16  A    between atoms: N8_32  and  C19_34 
REMARK   17  A    between atoms: C25_40  and  C26_41 
REMARK   18  A    between atoms: C26_41  and  O3_42 
ROOT
HETATM    1  C10 UNL     1       2.011  -1.019  13.195  1.00  0.00     0.000 C 
ENDROOT
BRANCH   1   2
HETATM    2  C9  UNL     1       2.957  -0.511  12.164  1.00  0.00     0.002 C 
BRANCH   2   3
HETATM    3  C8  UNL     1       4.302  -1.198  12.141  1.00  0.00     0.020 C 
BRANCH   3   4
HETATM    4  C7  UNL     1       4.219  -2.523  12.810  1.00  0.00     0.127 C 
BRANCH   4   5
HETATM    5  N4  UNL     1       4.902  -2.637  14.055  1.00  0.00    -0.335 N 
HETATM    6  C6  UNL     1       4.769  -3.856  14.791  1.00  0.00     0.245 C 
HETATM    7  C4  UNL     1       5.738  -4.500  15.749  1.00  0.00     0.196 C 
HETATM    8  O2  UNL     1       3.680  -4.444  14.584  1.00  0.00    -0.271 OA
HETATM    9  C3  UNL     1       7.137  -4.414  15.216  1.00  0.00     0.160 C 
HETATM   10  N1  UNL     1       7.692  -3.103  15.157  1.00  0.00    -0.348 N 
HETATM   11  C27 UNL     1       7.147  -1.917  14.609  1.00  0.00     0.245 C 
HETATM   12  C25 UNL     1       5.712  -1.517  14.503  1.00  0.00     0.203 C 
HETATM   13  O4  UNL     1       7.979  -1.095  14.153  1.00  0.00    -0.271 OA
BRANCH   7  14
HETATM   14  N2  UNL     1       5.391  -5.913  15.778  1.00  0.00    -0.331 N 
HETATM   15  C5  UNL     1       5.173  -6.599  17.001  1.00  0.00     0.329 C 
HETATM   16  N3  UNL     1       4.835  -7.975  17.014  1.00  0.00    -0.040 NA
HETATM   17  O1  UNL     1       5.269  -6.023  18.119  1.00  0.00    -0.251 OA
ATOM     18  H2  UNL     1       5.302  -6.422  14.899  1.00  0.00     0.164 HD
ENDBRANCH   7  14
BRANCH  10  19
HETATM   19  C2  UNL     1       9.035  -2.988  15.757  1.00  0.00     0.121 C 
HETATM   20  C1  UNL     1      10.041  -3.811  15.021  1.00  0.00     0.026 C 
ENDBRANCH  10  19
BRANCH  12  21
HETATM   21  C26 UNL     1       5.237  -0.976  15.854  1.00  0.00     0.199 C 
BRANCH  21  22
HETATM   22  O3  UNL     1       4.965   0.368  15.834  1.00  0.00    -0.398 OA
ATOM     23  H3  UNL     1       5.730   0.903  15.656  1.00  0.00     0.209 HD
ENDBRANCH  21  22
ENDBRANCH  12  21
ENDBRANCH   4   5
ENDBRANCH   3   4
ENDBRANCH   2   3
ENDBRANCH   1   2
BRANCH   1  24
HETATM   24  C11 UNL     1       0.867  -0.060  13.464  1.00  0.00     0.000 C 
BRANCH  24  25
HETATM   25  C12 UNL     1       0.087   0.117  12.176  1.00  0.00     0.000 C 
BRANCH  25  26
HETATM   26  C13 UNL     1      -0.291   1.557  12.031  1.00  0.00     0.000 C 
BRANCH  26  27
HETATM   27  C14 UNL     1      -0.755   1.850  10.634  1.00  0.00     0.002 C 
BRANCH  27  28
HETATM   28  C15 UNL     1       0.412   2.013   9.712  1.00  0.00     0.020 C 
BRANCH  28  29
HETATM   29  C16 UNL     1       1.385   3.009  10.330  1.00  0.00     0.122 C 
BRANCH  29  30
HETATM   30  N5  UNL     1       2.726   2.595  10.028  1.00  0.00    -0.367 N 
ATOM     31  H5  UNL     1       2.967   1.606  10.087  1.00  0.00     0.161 HD
BRANCH  30  32
HETATM   32  C17 UNL     1       3.743   3.548   9.642  1.00  0.00     0.174 C 
HETATM   33  S1  UNL     1       4.304   3.495   8.090  1.00  0.00    -0.041 SA
BRANCH  32  34
HETATM   34  N6  UNL     1       4.211   4.484  10.571  1.00  0.00    -0.308 N 
HETATM   35  C18 UNL     1       5.203   4.155  11.352  1.00  0.00     0.191 C 
HETATM   36  N7  UNL     1       5.604   5.171  12.259  1.00  0.00    -0.063 NA
HETATM   37  N8  UNL     1       5.852   2.915  11.348  1.00  0.00    -0.356 N 
ATOM     38  H8  UNL     1       5.385   2.145  11.826  1.00  0.00     0.162 HD
ATOM     39  H6  UNL     1       3.783   5.407  10.636  1.00  0.00     0.171 HD
BRANCH  37  40
HETATM   40  C19 UNL     1       7.138   2.623  10.720  1.00  0.00     0.110 A 
HETATM   41  C20 UNL     1       7.048   1.414   9.910  1.00  0.00    -0.002 A 
HETATM   42  C21 UNL     1       7.875   0.405   9.979  1.00  0.00    -0.002 A 
HETATM   43  C22 UNL     1       8.977   0.444  10.922  1.00  0.00    -0.004 A 
HETATM   44  C23 UNL     1       9.126   1.491  11.699  1.00  0.00    -0.024 A 
HETATM   45  C24 UNL     1       8.237   2.660  11.696  1.00  0.00     0.056 A 
ENDBRANCH  37  40
ENDBRANCH  32  34
ENDBRANCH  30  32
ENDBRANCH  29  30
ENDBRANCH  28  29
ENDBRANCH  27  28
ENDBRANCH  26  27
ENDBRANCH  25  26
ENDBRANCH  24  25
ENDBRANCH   1  24
TORSDOF 18
ENDMDL
