MODEL 1
REMARK VINA RESULT: -9.377643206      0.000      0.000
REMARK  17 active torsions:
REMARK  status: ('A' for Active; 'I' for Inactive)
REMARK    1  A    between atoms: C5_5  and  C6_6 
REMARK    2  A    between atoms: C6_6  and  C7_7 
REMARK    3  A    between atoms: C7_7  and  C8_8 
REMARK    4  A    between atoms: C8_8  and  C9_9 
REMARK    5  A    between atoms: C9_9  and  C10_10 
REMARK    6  A    between atoms: C10_10  and  N1_11 
REMARK    7  A    between atoms: C10_10  and  C11_15 
REMARK       I    between atoms: C11_15  and  N2_17 
REMARK    8  A    between atoms: N2_17  and  C12_19 
REMARK    9  A    between atoms: C12_19  and  C13_20 
REMARK   10  A    between atoms: C13_20  and  N3_21 
REMARK   11  A    between atoms: N3_21  and  C14_22 
REMARK   12  A    between atoms: C15_23  and  O2_24 
REMARK   13  A    between atoms: C15_23  and  N4_26 
REMARK   14  A    between atoms: N4_26  and  C16_28 
REMARK   15  A    between atoms: C16_28  and  C17_29 
REMARK   16  A    between atoms: C17_29  and  C18_30 
REMARK   17  A    between atoms: C18_30  and  N5_31 
ROOT
HETATM    1  N3  UNL     1      16.373  31.870  11.799  1.00  0.00     0.029 N 
HETATM    2  C20 UNL     1      16.754  32.254  10.476  1.00  0.00     0.293 C 
HETATM    3  C21 UNL     1      17.085  33.659  10.329  1.00  0.00    -0.019 A 
HETATM    4  C22 UNL     1      17.053  34.195   9.049  1.00  0.00     0.010 A 
HETATM    5  C23 UNL     1      17.373  35.511   8.829  1.00  0.00     0.002 A 
HETATM    6  C24 UNL     1      17.736  36.325   9.880  1.00  0.00     0.012 A 
HETATM    7  C25 UNL     1      17.770  35.800  11.152  1.00  0.00    -0.024 A 
HETATM    8  C26 UNL     1      18.118  36.571  12.236  1.00  0.00     0.012 A 
HETATM    9  C27 UNL     1      18.144  36.041  13.508  1.00  0.00     0.002 A 
HETATM   10  C28 UNL     1      17.814  34.720  13.688  1.00  0.00     0.018 A 
HETATM   11  C29 UNL     1      17.463  33.935  12.617  1.00  0.00     0.052 A 
HETATM   12  C30 UNL     1      17.443  34.479  11.342  1.00  0.00    -0.002 A 
HETATM   13  C31 UNL     1      17.102  32.531  12.800  1.00  0.00     0.357 C 
HETATM   14  O3  UNL     1      17.476  31.966  13.885  1.00  0.00    -0.259 OA
ENDROOT
BRANCH   1  15
HETATM   15  C13 UNL     1      14.993  32.374  11.947  1.00  0.00     0.273 C 
BRANCH  15  16
HETATM   16  C12 UNL     1      13.944  31.456  11.482  1.00  0.00     0.151 C 
BRANCH  16  17
HETATM   17  N2  UNL     1      13.393  30.703  12.597  1.00  0.00    -0.358 N 
HETATM   18  C11 UNL     1      13.128  29.328  12.564  1.00  0.00     0.248 C 
HETATM   19  O1  UNL     1      13.355  28.659  11.498  1.00  0.00    -0.271 OA
ATOM     20  H2  UNL     1      13.187  31.208  13.459  1.00  0.00     0.162 HD
BRANCH  18  21
HETATM   21  C10 UNL     1      12.580  28.627  13.746  1.00  0.00     0.274 C 
BRANCH  21  22
HETATM   22  C9  UNL     1      13.437  28.749  14.950  1.00  0.00     0.042 C 
BRANCH  22  23
HETATM   23  C8  UNL     1      13.475  30.014  15.693  1.00  0.00     0.003 C 
BRANCH  23  24
HETATM   24  C7  UNL     1      14.784  30.689  15.880  1.00  0.00     0.006 C 
BRANCH  24  25
HETATM   25  C6  UNL     1      14.679  32.202  15.710  1.00  0.00     0.057 C 
BRANCH  25  26
HETATM   26  C5  UNL     1      15.537  32.938  16.648  1.00  0.00     0.009 A 
HETATM   27  C4  UNL     1      15.696  32.675  17.988  1.00  0.00     0.027 A 
HETATM   28  C3  UNL     1      16.583  33.607  18.466  1.00  0.00     0.026 A 
HETATM   29  C2  UNL     1      16.971  34.440  17.435  1.00  0.00     0.005 A 
HETATM   30  C1  UNL     1      17.924  35.580  17.544  1.00  0.00     0.068 C 
HETATM   31  N8  UNL     1      16.315  34.001  16.350  1.00  0.00    -0.363 N 
ATOM     32  H8  UNL     1      16.394  34.415  15.422  1.00  0.00     0.165 HD
ENDBRANCH  25  26
ENDBRANCH  24  25
ENDBRANCH  23  24
ENDBRANCH  22  23
ENDBRANCH  21  22
BRANCH  21  33
HETATM   33  N1  UNL     1      11.195  28.861  13.878  1.00  0.00    -0.067 N 
ATOM     34  H13 UNL     1      11.030  29.868  13.895  1.00  0.00     0.275 HD
ATOM     35  H12 UNL     1      10.730  28.600  13.008  1.00  0.00     0.275 HD
ATOM     36  H11 UNL     1      10.700  28.431  14.660  1.00  0.00     0.275 HD
ENDBRANCH  21  33
ENDBRANCH  18  21
ENDBRANCH  16  17
ENDBRANCH  15  16
ENDBRANCH   1  15
BRANCH   1  37
HETATM   37  C14 UNL     1      16.365  30.448  11.989  1.00  0.00     0.268 C 
HETATM   38  C15 UNL     1      16.582  29.602  10.840  1.00  0.00     0.160 C 
BRANCH  38  39
HETATM   39  O2  UNL     1      16.560  28.313  11.042  1.00  0.00    -0.345 OA
ATOM     40  H2  UNL     1      16.024  27.793  10.454  1.00  0.00     0.219 HD
ENDBRANCH  38  39
BRANCH  38  41
HETATM   41  N4  UNL     1      16.821  29.933   9.493  1.00  0.00    -0.370 N 
ATOM     42  H4  UNL     1      17.501  30.660   9.272  1.00  0.00     0.161 HD
BRANCH  41  43
HETATM   43  C16 UNL     1      16.114  29.256   8.396  1.00  0.00     0.123 C 
BRANCH  43  44
HETATM   44  C17 UNL     1      14.685  29.684   8.413  1.00  0.00     0.039 C 
BRANCH  44  45
HETATM   45  C18 UNL     1      13.761  28.642   7.824  1.00  0.00     0.123 C 
BRANCH  45  46
HETATM   46  N5  UNL     1      13.537  27.574   8.749  1.00  0.00    -0.367 N 
HETATM   47  C19 UNL     1      13.910  26.364   8.571  1.00  0.00     0.196 C 
HETATM   48  N6  UNL     1      13.627  25.377   9.576  1.00  0.00    -0.067 NA
HETATM   49  N7  UNL     1      14.606  25.893   7.425  1.00  0.00    -0.067 NA
ATOM     50  H5  UNL     1      13.044  27.795   9.614  1.00  0.00     0.161 HD
ENDBRANCH  45  46
ENDBRANCH  44  45
ENDBRANCH  43  44
ENDBRANCH  41  43
ENDBRANCH  38  41
ENDBRANCH   1  37
TORSDOF 17
ENDMDL
MODEL 2
REMARK VINA RESULT: -9.293203414      2.090      7.168
REMARK  17 active torsions:
REMARK  status: ('A' for Active; 'I' for Inactive)
REMARK    1  A    between atoms: C5_5  and  C6_6 
REMARK    2  A    between atoms: C6_6  and  C7_7 
REMARK    3  A    between atoms: C7_7  and  C8_8 
REMARK    4  A    between atoms: C8_8  and  C9_9 
REMARK    5  A    between atoms: C9_9  and  C10_10 
REMARK    6  A    between atoms: C10_10  and  N1_11 
REMARK    7  A    between atoms: C10_10  and  C11_15 
REMARK       I    between atoms: C11_15  and  N2_17 
REMARK    8  A    between atoms: N2_17  and  C12_19 
REMARK    9  A    between atoms: C12_19  and  C13_20 
REMARK   10  A    between atoms: C13_20  and  N3_21 
REMARK   11  A    between atoms: N3_21  and  C14_22 
REMARK   12  A    between atoms: C15_23  and  O2_24 
REMARK   13  A    between atoms: C15_23  and  N4_26 
REMARK   14  A    between atoms: N4_26  and  C16_28 
REMARK   15  A    between atoms: C16_28  and  C17_29 
REMARK   16  A    between atoms: C17_29  and  C18_30 
REMARK   17  A    between atoms: C18_30  and  N5_31 
ROOT
HETATM    1  N3  UNL     1      15.305  31.776  14.147  1.00  0.00     0.029 N 
HETATM    2  C20 UNL     1      14.864  32.066  15.475  1.00  0.00     0.293 C 
HETATM    3  C21 UNL     1      15.759  32.920  16.233  1.00  0.00    -0.019 A 
HETATM    4  C22 UNL     1      15.640  32.910  17.616  1.00  0.00     0.010 A 
HETATM    5  C23 UNL     1      16.438  33.707  18.397  1.00  0.00     0.002 A 
HETATM    6  C24 UNL     1      17.373  34.536  17.819  1.00  0.00     0.012 A 
HETATM    7  C25 UNL     1      17.498  34.552  16.449  1.00  0.00    -0.024 A 
HETATM    8  C26 UNL     1      18.421  35.356  15.822  1.00  0.00     0.012 A 
HETATM    9  C27 UNL     1      18.545  35.363  14.450  1.00  0.00     0.002 A 
HETATM   10  C28 UNL     1      17.730  34.549  13.702  1.00  0.00     0.018 A 
HETATM   11  C29 UNL     1      16.803  33.738  14.310  1.00  0.00     0.052 A 
HETATM   12  C30 UNL     1      16.686  33.742  15.692  1.00  0.00    -0.002 A 
HETATM   13  C31 UNL     1      15.937  32.863  13.523  1.00  0.00     0.357 C 
HETATM   14  O3  UNL     1      15.800  33.137  12.282  1.00  0.00    -0.259 OA
ENDROOT
BRANCH   1  15
HETATM   15  C13 UNL     1      16.373  30.772  14.322  1.00  0.00     0.273 C 
BRANCH  15  16
HETATM   16  C12 UNL     1      16.345  29.662  13.358  1.00  0.00     0.151 C 
BRANCH  16  17
HETATM   17  N2  UNL     1      16.798  30.110  12.051  1.00  0.00    -0.358 N 
HETATM   18  C11 UNL     1      16.249  29.676  10.837  1.00  0.00     0.248 C 
HETATM   19  O1  UNL     1      15.298  28.822  10.836  1.00  0.00    -0.271 OA
ATOM     20  H2  UNL     1      17.564  30.783  12.016  1.00  0.00     0.162 HD
BRANCH  18  21
HETATM   21  C10 UNL     1      16.753  30.189   9.545  1.00  0.00     0.274 C 
BRANCH  21  22
HETATM   22  C9  UNL     1      16.310  29.384   8.380  1.00  0.00     0.042 C 
BRANCH  22  23
HETATM   23  C8  UNL     1      15.536  30.019   7.306  1.00  0.00     0.003 C 
BRANCH  23  24
HETATM   24  C7  UNL     1      14.315  29.336   6.813  1.00  0.00     0.006 C 
BRANCH  24  25
HETATM   25  C6  UNL     1      13.337  29.021   7.941  1.00  0.00     0.057 C 
BRANCH  25  26
HETATM   26  C5  UNL     1      13.342  27.601   8.316  1.00  0.00     0.009 A 
HETATM   27  C4  UNL     1      13.614  26.539   7.488  1.00  0.00     0.027 A 
HETATM   28  C3  UNL     1      13.503  25.406   8.255  1.00  0.00     0.026 A 
HETATM   29  C2  UNL     1      13.166  25.761   9.546  1.00  0.00     0.005 A 
HETATM   30  C1  UNL     1      12.952  24.821  10.683  1.00  0.00     0.068 C 
HETATM   31  N8  UNL     1      13.078  27.099   9.542  1.00  0.00    -0.363 N 
ATOM     32  H8  UNL     1      12.843  27.664  10.357  1.00  0.00     0.165 HD
ENDBRANCH  25  26
ENDBRANCH  24  25
ENDBRANCH  23  24
ENDBRANCH  22  23
ENDBRANCH  21  22
BRANCH  21  33
HETATM   33  N1  UNL     1      16.636  31.594   9.476  1.00  0.00    -0.067 N 
ATOM     34  H13 UNL     1      16.280  31.852   8.555  1.00  0.00     0.275 HD
ATOM     35  H12 UNL     1      15.866  31.892  10.074  1.00  0.00     0.275 HD
ATOM     36  H11 UNL     1      17.457  32.162   9.685  1.00  0.00     0.275 HD
ENDBRANCH  21  33
ENDBRANCH  18  21
ENDBRANCH  16  17
ENDBRANCH  15  16
ENDBRANCH   1  15
BRANCH   1  37
HETATM   37  C14 UNL     1      14.273  31.210  13.326  1.00  0.00     0.268 C 
HETATM   38  C15 UNL     1      13.335  30.298  13.935  1.00  0.00     0.160 C 
BRANCH  38  39
HETATM   39  O2  UNL     1      12.414  29.793  13.162  1.00  0.00    -0.345 OA
ATOM     40  H2  UNL     1      11.523  30.091  13.301  1.00  0.00     0.219 HD
ENDBRANCH  38  39
BRANCH  38  41
HETATM   41  N4  UNL     1      13.236  29.841  15.263  1.00  0.00    -0.370 N 
ATOM     42  H4  UNL     1      14.089  29.640  15.785  1.00  0.00     0.161 HD
BRANCH  41  43
HETATM   43  C16 UNL     1      11.934  29.647  15.915  1.00  0.00     0.123 C 
BRANCH  43  44
HETATM   44  C17 UNL     1      11.774  28.199  16.241  1.00  0.00     0.039 C 
BRANCH  44  45
HETATM   45  C18 UNL     1      11.580  27.345  15.010  1.00  0.00     0.123 C 
BRANCH  45  46
HETATM   46  N5  UNL     1      10.287  27.562  14.436  1.00  0.00    -0.367 N 
HETATM   47  C19 UNL     1      10.038  27.576  13.181  1.00  0.00     0.196 C 
HETATM   48  N6  UNL     1       8.695  27.804  12.724  1.00  0.00    -0.067 NA
HETATM   49  N7  UNL     1      11.010  27.377  12.163  1.00  0.00    -0.067 NA
ATOM     50  H5  UNL     1       9.507  27.716  15.074  1.00  0.00     0.161 HD
ENDBRANCH  45  46
ENDBRANCH  44  45
ENDBRANCH  43  44
ENDBRANCH  41  43
ENDBRANCH  38  41
ENDBRANCH   1  37
TORSDOF 17
ENDMDL
MODEL 3
REMARK VINA RESULT: -9.264599779      2.128      4.896
REMARK  17 active torsions:
REMARK  status: ('A' for Active; 'I' for Inactive)
REMARK    1  A    between atoms: C5_5  and  C6_6 
REMARK    2  A    between atoms: C6_6  and  C7_7 
REMARK    3  A    between atoms: C7_7  and  C8_8 
REMARK    4  A    between atoms: C8_8  and  C9_9 
REMARK    5  A    between atoms: C9_9  and  C10_10 
REMARK    6  A    between atoms: C10_10  and  N1_11 
REMARK    7  A    between atoms: C10_10  and  C11_15 
REMARK       I    between atoms: C11_15  and  N2_17 
REMARK    8  A    between atoms: N2_17  and  C12_19 
REMARK    9  A    between atoms: C12_19  and  C13_20 
REMARK   10  A    between atoms: C13_20  and  N3_21 
REMARK   11  A    between atoms: N3_21  and  C14_22 
REMARK   12  A    between atoms: C15_23  and  O2_24 
REMARK   13  A    between atoms: C15_23  and  N4_26 
REMARK   14  A    between atoms: N4_26  and  C16_28 
REMARK   15  A    between atoms: C16_28  and  C17_29 
REMARK   16  A    between atoms: C17_29  and  C18_30 
REMARK   17  A    between atoms: C18_30  and  N5_31 
ROOT
HETATM    1  N3  UNL     1      16.735  32.202  12.649  1.00  0.00     0.029 N 
HETATM    2  C20 UNL     1      17.170  32.088  11.293  1.00  0.00     0.293 C 
HETATM    3  C21 UNL     1      17.319  33.355  10.600  1.00  0.00    -0.019 A 
HETATM    4  C22 UNL     1      17.321  33.331   9.212  1.00  0.00     0.010 A 
HETATM    5  C23 UNL     1      17.478  34.486   8.489  1.00  0.00     0.002 A 
HETATM    6  C24 UNL     1      17.639  35.694   9.132  1.00  0.00     0.012 A 
HETATM    7  C25 UNL     1      17.637  35.725  10.508  1.00  0.00    -0.024 A 
HETATM    8  C26 UNL     1      17.786  36.905  11.198  1.00  0.00     0.012 A 
HETATM    9  C27 UNL     1      17.778  36.931  12.576  1.00  0.00     0.002 A 
HETATM   10  C28 UNL     1      17.615  35.754  13.264  1.00  0.00     0.018 A 
HETATM   11  C29 UNL     1      17.464  34.566  12.592  1.00  0.00     0.052 A 
HETATM   12  C30 UNL     1      17.477  34.553  11.206  1.00  0.00    -0.002 A 
HETATM   13  C31 UNL     1      17.282  33.310  13.316  1.00  0.00     0.357 C 
HETATM   14  O3  UNL     1      17.637  33.285  14.544  1.00  0.00    -0.259 OA
ENDROOT
BRANCH   1  15
HETATM   15  C13 UNL     1      15.292  32.500  12.551  1.00  0.00     0.273 C 
BRANCH  15  16
HETATM   16  C12 UNL     1      14.572  32.508  13.834  1.00  0.00     0.151 C 
BRANCH  16  17
HETATM   17  N2  UNL     1      13.722  31.333  13.948  1.00  0.00    -0.358 N 
HETATM   18  C11 UNL     1      13.593  30.567  15.114  1.00  0.00     0.248 C 
HETATM   19  O1  UNL     1      14.260  30.877  16.159  1.00  0.00    -0.271 OA
ATOM     20  H2  UNL     1      13.186  31.050  13.128  1.00  0.00     0.162 HD
BRANCH  18  21
HETATM   21  C10 UNL     1      12.696  29.392  15.159  1.00  0.00     0.274 C 
BRANCH  21  22
HETATM   22  C9  UNL     1      13.377  28.119  14.820  1.00  0.00     0.042 C 
BRANCH  22  23
HETATM   23  C8  UNL     1      12.593  26.884  14.690  1.00  0.00     0.003 C 
BRANCH  23  24
HETATM   24  C7  UNL     1      12.789  26.043  13.482  1.00  0.00     0.006 C 
BRANCH  24  25
HETATM   25  C6  UNL     1      12.194  26.686  12.232  1.00  0.00     0.057 C 
BRANCH  25  26
HETATM   26  C5  UNL     1      10.732  26.565  12.172  1.00  0.00     0.009 A 
HETATM   27  C4  UNL     1      10.012  25.396  12.086  1.00  0.00     0.027 A 
HETATM   28  C3  UNL     1       8.688  25.755  12.055  1.00  0.00     0.026 A 
HETATM   29  C2  UNL     1       8.585  27.130  12.122  1.00  0.00     0.005 A 
HETATM   30  C1  UNL     1       7.318  27.913  12.115  1.00  0.00     0.068 C 
HETATM   31  N8  UNL     1       9.846  27.583  12.193  1.00  0.00    -0.363 N 
ATOM     32  H8  UNL     1      10.101  28.568  12.253  1.00  0.00     0.165 HD
ENDBRANCH  25  26
ENDBRANCH  24  25
ENDBRANCH  23  24
ENDBRANCH  22  23
ENDBRANCH  21  22
BRANCH  21  33
HETATM   33  N1  UNL     1      11.869  29.429  16.302  1.00  0.00    -0.067 N 
ATOM     34  H13 UNL     1      10.933  29.116  16.044  1.00  0.00     0.275 HD
ATOM     35  H12 UNL     1      12.154  28.688  16.942  1.00  0.00     0.275 HD
ATOM     36  H11 UNL     1      11.794  30.304  16.821  1.00  0.00     0.275 HD
ENDBRANCH  21  33
ENDBRANCH  18  21
ENDBRANCH  16  17
ENDBRANCH  15  16
ENDBRANCH   1  15
BRANCH   1  37
HETATM   37  C14 UNL     1      16.904  30.988  13.395  1.00  0.00     0.268 C 
HETATM   38  C15 UNL     1      16.854  29.734  12.683  1.00  0.00     0.160 C 
BRANCH  38  39
HETATM   39  O2  UNL     1      17.001  28.647  13.389  1.00  0.00    -0.345 OA
ATOM     40  H2  UNL     1      17.465  28.727  14.215  1.00  0.00     0.219 HD
ENDBRANCH  38  39
BRANCH  38  41
HETATM   41  N4  UNL     1      16.667  29.467  11.314  1.00  0.00    -0.370 N 
ATOM     42  H4  UNL     1      17.462  29.544  10.679  1.00  0.00     0.161 HD
BRANCH  41  43
HETATM   43  C16 UNL     1      15.356  29.079  10.776  1.00  0.00     0.123 C 
BRANCH  43  44
HETATM   44  C17 UNL     1      15.365  29.289   9.299  1.00  0.00     0.039 C 
BRANCH  44  45
HETATM   45  C18 UNL     1      14.108  28.778   8.633  1.00  0.00     0.123 C 
BRANCH  45  46
HETATM   46  N5  UNL     1      13.730  27.504   9.164  1.00  0.00    -0.367 N 
HETATM   47  C19 UNL     1      13.989  26.378   8.614  1.00  0.00     0.196 C 
HETATM   48  N6  UNL     1      13.557  25.162   9.245  1.00  0.00    -0.067 NA
HETATM   49  N7  UNL     1      14.694  26.220   7.390  1.00  0.00    -0.067 NA
ATOM     50  H5  UNL     1      13.217  27.492  10.045  1.00  0.00     0.161 HD
ENDBRANCH  45  46
ENDBRANCH  44  45
ENDBRANCH  43  44
ENDBRANCH  41  43
ENDBRANCH  38  41
ENDBRANCH   1  37
TORSDOF 17
ENDMDL
MODEL 4
REMARK VINA RESULT: -9.224510979      2.124      4.915
REMARK  17 active torsions:
REMARK  status: ('A' for Active; 'I' for Inactive)
REMARK    1  A    between atoms: C5_5  and  C6_6 
REMARK    2  A    between atoms: C6_6  and  C7_7 
REMARK    3  A    between atoms: C7_7  and  C8_8 
REMARK    4  A    between atoms: C8_8  and  C9_9 
REMARK    5  A    between atoms: C9_9  and  C10_10 
REMARK    6  A    between atoms: C10_10  and  N1_11 
REMARK    7  A    between atoms: C10_10  and  C11_15 
REMARK       I    between atoms: C11_15  and  N2_17 
REMARK    8  A    between atoms: N2_17  and  C12_19 
REMARK    9  A    between atoms: C12_19  and  C13_20 
REMARK   10  A    between atoms: C13_20  and  N3_21 
REMARK   11  A    between atoms: N3_21  and  C14_22 
REMARK   12  A    between atoms: C15_23  and  O2_24 
REMARK   13  A    between atoms: C15_23  and  N4_26 
REMARK   14  A    between atoms: N4_26  and  C16_28 
REMARK   15  A    between atoms: C16_28  and  C17_29 
REMARK   16  A    between atoms: C17_29  and  C18_30 
REMARK   17  A    between atoms: C18_30  and  N5_31 
ROOT
HETATM    1  N3  UNL     1      16.790  32.284  12.617  1.00  0.00     0.029 N 
HETATM    2  C20 UNL     1      17.226  32.174  11.261  1.00  0.00     0.293 C 
HETATM    3  C21 UNL     1      17.355  33.440  10.565  1.00  0.00    -0.019 A 
HETATM    4  C22 UNL     1      17.357  33.413   9.176  1.00  0.00     0.010 A 
HETATM    5  C23 UNL     1      17.495  34.569   8.451  1.00  0.00     0.002 A 
HETATM    6  C24 UNL     1      17.638  35.781   9.090  1.00  0.00     0.012 A 
HETATM    7  C25 UNL     1      17.636  35.815  10.465  1.00  0.00    -0.024 A 
HETATM    8  C26 UNL     1      17.768  37.000  11.152  1.00  0.00     0.012 A 
HETATM    9  C27 UNL     1      17.760  37.029  12.530  1.00  0.00     0.002 A 
HETATM   10  C28 UNL     1      17.616  35.851  13.222  1.00  0.00     0.018 A 
HETATM   11  C29 UNL     1      17.483  34.659  12.553  1.00  0.00     0.052 A 
HETATM   12  C30 UNL     1      17.495  34.642  11.166  1.00  0.00    -0.002 A 
HETATM   13  C31 UNL     1      17.321  33.402  13.281  1.00  0.00     0.357 C 
HETATM   14  O3  UNL     1      17.676  33.386  14.508  1.00  0.00    -0.259 OA
ENDROOT
BRANCH   1  15
HETATM   15  C13 UNL     1      15.343  32.560  12.519  1.00  0.00     0.273 C 
BRANCH  15  16
HETATM   16  C12 UNL     1      14.623  32.557  13.801  1.00  0.00     0.151 C 
BRANCH  16  17
HETATM   17  N2  UNL     1      13.940  31.289  14.000  1.00  0.00    -0.358 N 
HETATM   18  C11 UNL     1      14.026  30.525  15.172  1.00  0.00     0.248 C 
HETATM   19  O1  UNL     1      14.752  30.926  16.144  1.00  0.00    -0.271 OA
ATOM     20  H2  UNL     1      13.362  30.934  13.239  1.00  0.00     0.162 HD
BRANCH  18  21
HETATM   21  C10 UNL     1      13.289  29.250  15.307  1.00  0.00     0.274 C 
BRANCH  21  22
HETATM   22  C9  UNL     1      11.828  29.390  15.095  1.00  0.00     0.042 C 
BRANCH  22  23
HETATM   23  C8  UNL     1      10.929  28.287  15.457  1.00  0.00     0.003 C 
BRANCH  23  24
HETATM   24  C7  UNL     1      10.307  27.492  14.368  1.00  0.00     0.006 C 
BRANCH  24  25
HETATM   25  C6  UNL     1      10.745  27.970  12.986  1.00  0.00     0.057 C 
BRANCH  25  26
HETATM   26  C5  UNL     1      11.240  26.877  12.138  1.00  0.00     0.009 A 
HETATM   27  C4  UNL     1      12.404  26.169  12.316  1.00  0.00     0.027 A 
HETATM   28  C3  UNL     1      12.463  25.252  11.296  1.00  0.00     0.026 A 
HETATM   29  C2  UNL     1      11.348  25.389  10.494  1.00  0.00     0.005 A 
HETATM   30  C1  UNL     1      11.038  24.580   9.281  1.00  0.00     0.068 C 
HETATM   31  N8  UNL     1      10.632  26.384  11.038  1.00  0.00    -0.363 N 
ATOM     32  H8  UNL     1       9.744  26.724  10.670  1.00  0.00     0.165 HD
ENDBRANCH  25  26
ENDBRANCH  24  25
ENDBRANCH  23  24
ENDBRANCH  22  23
ENDBRANCH  21  22
BRANCH  21  33
HETATM   33  N1  UNL     1      13.967  28.200  14.651  1.00  0.00    -0.067 N 
ATOM     34  H13 UNL     1      14.392  28.563  13.798  1.00  0.00     0.275 HD
ATOM     35  H12 UNL     1      14.796  27.952  15.192  1.00  0.00     0.275 HD
ATOM     36  H11 UNL     1      13.450  27.350  14.429  1.00  0.00     0.275 HD
ENDBRANCH  21  33
ENDBRANCH  18  21
ENDBRANCH  16  17
ENDBRANCH  15  16
ENDBRANCH   1  15
BRANCH   1  37
HETATM   37  C14 UNL     1      16.978  31.075  13.366  1.00  0.00     0.268 C 
HETATM   38  C15 UNL     1      16.760  29.815  12.698  1.00  0.00     0.160 C 
BRANCH  38  39
HETATM   39  O2  UNL     1      16.929  28.732  13.406  1.00  0.00    -0.345 OA
ATOM     40  H2  UNL     1      17.036  28.843  14.344  1.00  0.00     0.219 HD
ENDBRANCH  38  39
BRANCH  38  41
HETATM   41  N4  UNL     1      16.384  29.536  11.370  1.00  0.00    -0.370 N 
ATOM     42  H4  UNL     1      16.942  29.917  10.605  1.00  0.00     0.161 HD
BRANCH  41  43
HETATM   43  C16 UNL     1      15.208  28.712  11.059  1.00  0.00     0.123 C 
BRANCH  43  44
HETATM   44  C17 UNL     1      14.184  29.571  10.396  1.00  0.00     0.039 C 
BRANCH  44  45
HETATM   45  C18 UNL     1      13.931  29.168   8.961  1.00  0.00     0.123 C 
BRANCH  45  46
HETATM   46  N5  UNL     1      13.852  27.745   8.835  1.00  0.00    -0.367 N 
HETATM   47  C19 UNL     1      14.363  27.067   7.878  1.00  0.00     0.196 C 
HETATM   48  N6  UNL     1      14.217  25.638   7.861  1.00  0.00    -0.067 NA
HETATM   49  N7  UNL     1      15.090  27.625   6.792  1.00  0.00    -0.067 NA
ATOM     50  H5  UNL     1      13.351  27.234   9.562  1.00  0.00     0.161 HD
ENDBRANCH  45  46
ENDBRANCH  44  45
ENDBRANCH  43  44
ENDBRANCH  41  43
ENDBRANCH  38  41
ENDBRANCH   1  37
TORSDOF 17
ENDMDL
MODEL 5
REMARK VINA RESULT: -9.202198021      2.573      5.392
REMARK  17 active torsions:
REMARK  status: ('A' for Active; 'I' for Inactive)
REMARK    1  A    between atoms: C5_5  and  C6_6 
REMARK    2  A    between atoms: C6_6  and  C7_7 
REMARK    3  A    between atoms: C7_7  and  C8_8 
REMARK    4  A    between atoms: C8_8  and  C9_9 
REMARK    5  A    between atoms: C9_9  and  C10_10 
REMARK    6  A    between atoms: C10_10  and  N1_11 
REMARK    7  A    between atoms: C10_10  and  C11_15 
REMARK       I    between atoms: C11_15  and  N2_17 
REMARK    8  A    between atoms: N2_17  and  C12_19 
REMARK    9  A    between atoms: C12_19  and  C13_20 
REMARK   10  A    between atoms: C13_20  and  N3_21 
REMARK   11  A    between atoms: N3_21  and  C14_22 
REMARK   12  A    between atoms: C15_23  and  O2_24 
REMARK   13  A    between atoms: C15_23  and  N4_26 
REMARK   14  A    between atoms: N4_26  and  C16_28 
REMARK   15  A    between atoms: C16_28  and  C17_29 
REMARK   16  A    between atoms: C17_29  and  C18_30 
REMARK   17  A    between atoms: C18_30  and  N5_31 
ROOT
HETATM    1  N3  UNL     1      16.901  32.219  12.545  1.00  0.00     0.029 N 
HETATM    2  C20 UNL     1      17.314  32.152  11.179  1.00  0.00     0.293 C 
HETATM    3  C21 UNL     1      17.387  33.438  10.509  1.00  0.00    -0.019 A 
HETATM    4  C22 UNL     1      17.363  33.440   9.121  1.00  0.00     0.010 A 
HETATM    5  C23 UNL     1      17.449  34.615   8.418  1.00  0.00     0.002 A 
HETATM    6  C24 UNL     1      17.564  35.817   9.081  1.00  0.00     0.012 A 
HETATM    7  C25 UNL     1      17.589  35.822  10.457  1.00  0.00    -0.024 A 
HETATM    8  C26 UNL     1      17.695  36.995  11.168  1.00  0.00     0.012 A 
HETATM    9  C27 UNL     1      17.713  36.994  12.546  1.00  0.00     0.002 A 
HETATM   10  C28 UNL     1      17.621  35.798  13.213  1.00  0.00     0.018 A 
HETATM   11  C29 UNL     1      17.514  34.617  12.521  1.00  0.00     0.052 A 
HETATM   12  C30 UNL     1      17.500  34.630  11.134  1.00  0.00    -0.002 A 
HETATM   13  C31 UNL     1      17.408  33.339  13.223  1.00  0.00     0.357 C 
HETATM   14  O3  UNL     1      17.788  33.309  14.444  1.00  0.00    -0.259 OA
ENDROOT
BRANCH   1  15
HETATM   15  C13 UNL     1      15.444  32.449  12.481  1.00  0.00     0.273 C 
BRANCH  15  16
HETATM   16  C12 UNL     1      14.728  32.244  13.749  1.00  0.00     0.151 C 
BRANCH  16  17
HETATM   17  N2  UNL     1      14.044  30.961  13.747  1.00  0.00    -0.358 N 
HETATM   18  C11 UNL     1      14.081  30.049  14.810  1.00  0.00     0.248 C 
HETATM   19  O1  UNL     1      14.761  30.317  15.859  1.00  0.00    -0.271 OA
ATOM     20  H2  UNL     1      13.503  30.709  12.920  1.00  0.00     0.162 HD
BRANCH  18  21
HETATM   21  C10 UNL     1      13.347  28.766  14.741  1.00  0.00     0.274 C 
BRANCH  21  22
HETATM   22  C9  UNL     1      11.965  28.908  14.222  1.00  0.00     0.042 C 
BRANCH  22  23
HETATM   23  C8  UNL     1      10.832  28.431  15.024  1.00  0.00     0.003 C 
BRANCH  23  24
HETATM   24  C7  UNL     1       9.816  27.566  14.374  1.00  0.00     0.006 C 
BRANCH  24  25
HETATM   25  C6  UNL     1      10.095  27.372  12.886  1.00  0.00     0.057 C 
BRANCH  25  26
HETATM   26  C5  UNL     1       8.868  27.214  12.094  1.00  0.00     0.009 A 
HETATM   27  C4  UNL     1       7.657  27.820  12.336  1.00  0.00     0.027 A 
HETATM   28  C3  UNL     1       6.802  27.388  11.353  1.00  0.00     0.026 A 
HETATM   29  C2  UNL     1       7.474  26.524  10.510  1.00  0.00     0.005 A 
HETATM   30  C1  UNL     1       6.896  25.839   9.320  1.00  0.00     0.068 C 
HETATM   31  N8  UNL     1       8.722  26.446  10.993  1.00  0.00    -0.363 N 
ATOM     32  H8  UNL     1       9.465  25.881  10.583  1.00  0.00     0.165 HD
ENDBRANCH  25  26
ENDBRANCH  24  25
ENDBRANCH  23  24
ENDBRANCH  22  23
ENDBRANCH  21  22
BRANCH  21  33
HETATM   33  N1  UNL     1      14.163  27.742  14.216  1.00  0.00    -0.067 N 
ATOM     34  H13 UNL     1      13.622  27.202  13.539  1.00  0.00     0.275 HD
ATOM     35  H12 UNL     1      14.871  28.160  13.612  1.00  0.00     0.275 HD
ATOM     36  H11 UNL     1      14.617  27.100  14.865  1.00  0.00     0.275 HD
ENDBRANCH  21  33
ENDBRANCH  18  21
ENDBRANCH  16  17
ENDBRANCH  15  16
ENDBRANCH   1  15
BRANCH   1  37
HETATM   37  C14 UNL     1      17.143  31.001  13.264  1.00  0.00     0.268 C 
HETATM   38  C15 UNL     1      17.023  29.751  12.553  1.00  0.00     0.160 C 
BRANCH  38  39
HETATM   39  O2  UNL     1      17.240  28.660  13.234  1.00  0.00    -0.345 OA
ATOM     40  H2  UNL     1      17.465  27.880  12.739  1.00  0.00     0.219 HD
ENDBRANCH  38  39
BRANCH  38  41
HETATM   41  N4  UNL     1      16.701  29.492  11.207  1.00  0.00    -0.370 N 
ATOM     42  H4  UNL     1      17.413  29.631  10.489  1.00  0.00     0.161 HD
BRANCH  41  43
HETATM   43  C16 UNL     1      15.366  29.026  10.810  1.00  0.00     0.123 C 
BRANCH  43  44
HETATM   44  C17 UNL     1      14.981  29.706   9.538  1.00  0.00     0.039 C 
BRANCH  44  45
HETATM   45  C18 UNL     1      14.511  28.734   8.480  1.00  0.00     0.123 C 
BRANCH  45  46
HETATM   46  N5  UNL     1      13.968  27.553   9.076  1.00  0.00    -0.367 N 
HETATM   47  C19 UNL     1      14.043  26.379   8.572  1.00  0.00     0.196 C 
HETATM   48  N6  UNL     1      13.457  25.267   9.267  1.00  0.00    -0.067 NA
HETATM   49  N7  UNL     1      14.681  26.069   7.340  1.00  0.00    -0.067 NA
ATOM     50  H5  UNL     1      13.484  27.653   9.969  1.00  0.00     0.161 HD
ENDBRANCH  45  46
ENDBRANCH  44  45
ENDBRANCH  43  44
ENDBRANCH  41  43
ENDBRANCH  38  41
ENDBRANCH   1  37
TORSDOF 17
ENDMDL
