MODEL 1
REMARK VINA RESULT: -8.980227862      0.000      0.000
REMARK  16 active torsions:
REMARK  status: ('A' for Active; 'I' for Inactive)
REMARK    1  A    between atoms: N1_5  and  C5_6 
REMARK    2  A    between atoms: C5_6  and  C6_7 
REMARK    3  A    between atoms: C6_7  and  C7_8 
REMARK    4  A    between atoms: C7_8  and  C8_9 
REMARK    5  A    between atoms: C8_9  and  C9_10 
REMARK    6  A    between atoms: C9_10  and  C10_11 
REMARK    7  A    between atoms: C10_11  and  C11_12 
REMARK    8  A    between atoms: C11_12  and  C12_13 
REMARK    9  A    between atoms: C12_13  and  C13_14 
REMARK   10  A    between atoms: C13_14  and  C14_15 
REMARK   11  A    between atoms: C14_15  and  C15_16 
REMARK   12  A    between atoms: C15_16  and  C16_17 
REMARK   13  A    between atoms: C16_17  and  C17_18 
REMARK       I    between atoms: C17_18  and  N2_20 
REMARK   14  A    between atoms: N2_20  and  C18_22 
REMARK   15  A    between atoms: C21_28  and  N4_29 
REMARK       I    between atoms: N4_29  and  C22_31 
REMARK   16  A    between atoms: C22_31  and  C23_33 
REMARK       I    between atoms: C23_33  and  N5_35 
ROOT
HETATM    1  C18 UNL     1      14.532  30.248  14.867  1.00  0.00     0.197 C 
HETATM    2  C19 UNL     1      13.273  30.102  15.658  1.00  0.00     0.169 C 
HETATM    3  N3  UNL     1      12.203  29.653  14.800  1.00  0.00    -0.356 N 
ATOM      4  H3  UNL     1      11.281  30.040  15.004  1.00  0.00     0.162 HD
HETATM    5  C20 UNL     1      12.262  28.740  13.703  1.00  0.00     0.242 C 
HETATM    6  O2  UNL     1      11.174  28.479  13.145  1.00  0.00    -0.271 OA
HETATM    7  C21 UNL     1      13.519  28.069  13.167  1.00  0.00     0.194 C 
HETATM    8  C27 UNL     1      14.403  27.879  14.337  1.00  0.00     0.150 C 
HETATM    9  N8  UNL     1      15.221  29.006  14.632  1.00  0.00    -0.398 N 
ATOM     10  H8  UNL     1      16.237  28.938  14.674  1.00  0.00     0.155 HD
ENDROOT
BRANCH   1  11
HETATM   11  N2  UNL     1      14.376  31.065  13.695  1.00  0.00    -0.339 N 
HETATM   12  C17 UNL     1      15.540  31.457  12.963  1.00  0.00     0.219 C 
HETATM   13  O1  UNL     1      16.653  31.065  13.378  1.00  0.00    -0.274 OA
ATOM     14  H2  UNL     1      13.449  31.361  13.390  1.00  0.00     0.164 HD
BRANCH  12  15
HETATM   15  C16 UNL     1      15.435  32.300  11.747  1.00  0.00     0.103 C 
BRANCH  15  16
HETATM   16  C15 UNL     1      16.414  33.403  11.694  1.00  0.00     0.009 C 
BRANCH  16  17
HETATM   17  C14 UNL     1      17.541  33.310  10.736  1.00  0.00     0.000 C 
BRANCH  17  18
HETATM   18  C13 UNL     1      17.252  33.888   9.366  1.00  0.00     0.000 C 
BRANCH  18  19
HETATM   19  C12 UNL     1      16.557  35.222   9.453  1.00  0.00     0.000 C 
BRANCH  19  20
HETATM   20  C11 UNL     1      17.614  36.253   9.860  1.00  0.00     0.000 C 
BRANCH  20  21
HETATM   21  C10 UNL     1      17.032  37.304  10.743  1.00  0.00     0.000 C 
BRANCH  21  22
HETATM   22  C9  UNL     1      17.906  37.543  11.946  1.00  0.00     0.000 C 
BRANCH  22  23
HETATM   23  C8  UNL     1      18.174  36.331  12.780  1.00  0.00     0.000 C 
BRANCH  23  24
HETATM   24  C7  UNL     1      19.454  36.513  13.544  1.00  0.00     0.002 C 
BRANCH  24  25
HETATM   25  C6  UNL     1      19.535  35.690  14.783  1.00  0.00     0.020 C 
BRANCH  25  26
HETATM   26  C5  UNL     1      18.657  36.179  15.900  1.00  0.00     0.128 C 
BRANCH  26  27
HETATM   27  N1  UNL     1      17.815  35.166  16.491  1.00  0.00    -0.366 N 
HETATM   28  C4  UNL     1      17.604  35.042  17.822  1.00  0.00     0.091 A 
HETATM   29  C3  UNL     1      16.787  34.066  18.375  1.00  0.00     0.024 A 
HETATM   30  C2  UNL     1      16.137  33.148  17.538  1.00  0.00    -0.059 A 
HETATM   31  C1  UNL     1      15.252  32.093  18.100  1.00  0.00     0.048 C 
HETATM   32  C29 UNL     1      16.356  33.278  16.189  1.00  0.00     0.024 A 
HETATM   33  C28 UNL     1      17.183  34.275  15.709  1.00  0.00     0.091 A 
ENDBRANCH  26  27
ENDBRANCH  25  26
ENDBRANCH  24  25
ENDBRANCH  23  24
ENDBRANCH  22  23
ENDBRANCH  21  22
ENDBRANCH  20  21
ENDBRANCH  19  20
ENDBRANCH  18  19
ENDBRANCH  17  18
ENDBRANCH  16  17
ENDBRANCH  15  16
ENDBRANCH  12  15
ENDBRANCH   1  11
BRANCH   7  34
HETATM   34  N4  UNL     1      13.128  26.889  12.451  1.00  0.00    -0.338 N 
HETATM   35  C22 UNL     1      13.341  26.903  11.012  1.00  0.00     0.310 C 
HETATM   36  O3  UNL     1      13.833  27.881  10.477  1.00  0.00    -0.262 OA
ATOM     37  H4  UNL     1      12.721  26.083  12.926  1.00  0.00     0.163 HD
BRANCH  35  38
HETATM   38  C23 UNL     1      12.931  25.683  10.268  1.00  0.00     0.327 C 
HETATM   39  O4  UNL     1      13.757  25.175   9.497  1.00  0.00    -0.261 OA
HETATM   40  N5  UNL     1      11.658  25.141  10.449  1.00  0.00    -0.151 N 
HETATM   41  C24 UNL     1      10.699  25.058   9.627  1.00  0.00     0.684 A 
ATOM     42  H5  UNL     1      11.474  24.755  11.375  1.00  0.00     0.188 HD
HETATM   43  N6  UNL     1      10.636  25.465   8.366  1.00  0.00    -0.200 N 
HETATM   44  N7  UNL     1       9.501  24.469   9.918  1.00  0.00    -0.200 N 
HETATM   45  C25 UNL     1       9.450  25.161   7.831  1.00  0.00     0.123 A 
ATOM     46  H6  UNL     1      11.390  25.943   7.872  1.00  0.00     0.183 HD
HETATM   47  C26 UNL     1       8.730  24.521   8.839  1.00  0.00     0.123 A 
ATOM     48  H7  UNL     1       9.243  24.057  10.815  1.00  0.00     0.183 HD
ENDBRANCH  35  38
ENDBRANCH   7  34
TORSDOF 16
ENDMDL
MODEL 2
REMARK VINA RESULT: -8.907953336      2.848     10.965
REMARK  16 active torsions:
REMARK  status: ('A' for Active; 'I' for Inactive)
REMARK    1  A    between atoms: N1_5  and  C5_6 
REMARK    2  A    between atoms: C5_6  and  C6_7 
REMARK    3  A    between atoms: C6_7  and  C7_8 
REMARK    4  A    between atoms: C7_8  and  C8_9 
REMARK    5  A    between atoms: C8_9  and  C9_10 
REMARK    6  A    between atoms: C9_10  and  C10_11 
REMARK    7  A    between atoms: C10_11  and  C11_12 
REMARK    8  A    between atoms: C11_12  and  C12_13 
REMARK    9  A    between atoms: C12_13  and  C13_14 
REMARK   10  A    between atoms: C13_14  and  C14_15 
REMARK   11  A    between atoms: C14_15  and  C15_16 
REMARK   12  A    between atoms: C15_16  and  C16_17 
REMARK   13  A    between atoms: C16_17  and  C17_18 
REMARK       I    between atoms: C17_18  and  N2_20 
REMARK   14  A    between atoms: N2_20  and  C18_22 
REMARK   15  A    between atoms: C21_28  and  N4_29 
REMARK       I    between atoms: N4_29  and  C22_31 
REMARK   16  A    between atoms: C22_31  and  C23_33 
REMARK       I    between atoms: C23_33  and  N5_35 
ROOT
HETATM    1  C18 UNL     1      15.802  29.804  12.443  1.00  0.00     0.197 C 
HETATM    2  C19 UNL     1      16.167  30.473  11.158  1.00  0.00     0.169 C 
HETATM    3  N3  UNL     1      16.144  31.906  11.325  1.00  0.00    -0.356 N 
ATOM      4  H3  UNL     1      15.809  32.439  10.523  1.00  0.00     0.162 HD
HETATM    5  C20 UNL     1      16.528  32.677  12.465  1.00  0.00     0.242 C 
HETATM    6  O2  UNL     1      16.456  33.919  12.338  1.00  0.00    -0.271 OA
HETATM    7  C21 UNL     1      17.011  32.122  13.797  1.00  0.00     0.194 C 
HETATM    8  C27 UNL     1      17.728  30.871  13.474  1.00  0.00     0.150 C 
HETATM    9  N8  UNL     1      16.885  29.727  13.388  1.00  0.00    -0.398 N 
ATOM     10  H8  UNL     1      17.039  28.899  13.963  1.00  0.00     0.155 HD
ENDROOT
BRANCH   1  11
HETATM   11  N2  UNL     1      14.567  30.281  13.001  1.00  0.00    -0.339 N 
HETATM   12  C17 UNL     1      14.024  29.622  14.147  1.00  0.00     0.219 C 
HETATM   13  O1  UNL     1      14.657  28.650  14.619  1.00  0.00    -0.274 OA
ATOM     14  H2  UNL     1      14.085  31.078  12.586  1.00  0.00     0.164 HD
BRANCH  12  15
HETATM   15  C16 UNL     1      12.752  30.073  14.763  1.00  0.00     0.103 C 
BRANCH  15  16
HETATM   16  C15 UNL     1      12.344  29.288  15.944  1.00  0.00     0.009 C 
BRANCH  16  17
HETATM   17  C14 UNL     1      11.163  28.400  15.837  1.00  0.00     0.000 C 
BRANCH  17  18
HETATM   18  C13 UNL     1      10.348  28.585  14.573  1.00  0.00     0.000 C 
BRANCH  18  19
HETATM   19  C12 UNL     1       9.827  27.274  14.043  1.00  0.00     0.000 C 
BRANCH  19  20
HETATM   20  C11 UNL     1      10.181  27.219  12.554  1.00  0.00     0.000 C 
BRANCH  20  21
HETATM   21  C10 UNL     1      11.604  27.598  12.323  1.00  0.00     0.000 C 
BRANCH  21  22
HETATM   22  C9  UNL     1      12.524  26.440  12.606  1.00  0.00     0.000 C 
BRANCH  22  23
HETATM   23  C8  UNL     1      12.053  25.120  12.083  1.00  0.00     0.000 C 
BRANCH  23  24
HETATM   24  C7  UNL     1      12.770  24.795  10.804  1.00  0.00     0.002 C 
BRANCH  24  25
HETATM   25  C6  UNL     1      12.020  25.186   9.578  1.00  0.00     0.020 C 
BRANCH  25  26
HETATM   26  C5  UNL     1      12.858  25.217   8.332  1.00  0.00     0.128 C 
BRANCH  26  27
HETATM   27  N1  UNL     1      13.627  26.426   8.153  1.00  0.00    -0.366 N 
HETATM   28  C4  UNL     1      13.578  27.483   8.997  1.00  0.00     0.091 A 
HETATM   29  C3  UNL     1      14.327  28.637   8.814  1.00  0.00     0.024 A 
HETATM   30  C2  UNL     1      15.185  28.740   7.711  1.00  0.00    -0.059 A 
HETATM   31  C1  UNL     1      16.005  29.962   7.491  1.00  0.00     0.048 C 
HETATM   32  C29 UNL     1      15.231  27.665   6.859  1.00  0.00     0.024 A 
HETATM   33  C28 UNL     1      14.455  26.548   7.103  1.00  0.00     0.091 A 
ENDBRANCH  26  27
ENDBRANCH  25  26
ENDBRANCH  24  25
ENDBRANCH  23  24
ENDBRANCH  22  23
ENDBRANCH  21  22
ENDBRANCH  20  21
ENDBRANCH  19  20
ENDBRANCH  18  19
ENDBRANCH  17  18
ENDBRANCH  16  17
ENDBRANCH  15  16
ENDBRANCH  12  15
ENDBRANCH   1  11
BRANCH   7  34
HETATM   34  N4  UNL     1      17.760  33.146  14.465  1.00  0.00    -0.338 N 
HETATM   35  C22 UNL     1      17.235  33.604  15.743  1.00  0.00     0.310 C 
HETATM   36  O3  UNL     1      16.213  33.119  16.193  1.00  0.00    -0.262 OA
ATOM     37  H4  UNL     1      18.615  33.532  14.066  1.00  0.00     0.163 HD
BRANCH  35  38
HETATM   38  C23 UNL     1      18.009  34.669  16.434  1.00  0.00     0.327 C 
HETATM   39  O4  UNL     1      17.966  34.700  17.672  1.00  0.00    -0.261 OA
HETATM   40  N5  UNL     1      18.754  35.592  15.698  1.00  0.00    -0.151 N 
HETATM   41  C24 UNL     1      18.582  36.838  15.567  1.00  0.00     0.684 A 
ATOM     42  H5  UNL     1      19.552  35.205  15.193  1.00  0.00     0.188 HD
HETATM   43  N6  UNL     1      17.645  37.617  16.093  1.00  0.00    -0.200 N 
HETATM   44  N7  UNL     1      19.410  37.644  14.838  1.00  0.00    -0.200 N 
HETATM   45  C25 UNL     1      17.834  38.890  15.735  1.00  0.00     0.123 A 
ATOM     46  H6  UNL     1      16.885  37.288  16.689  1.00  0.00     0.183 HD
HETATM   47  C26 UNL     1      18.971  38.894  14.928  1.00  0.00     0.123 A 
ATOM     48  H7  UNL     1      20.227  37.337  14.311  1.00  0.00     0.183 HD
ENDBRANCH  35  38
ENDBRANCH   7  34
TORSDOF 16
ENDMDL
MODEL 3
REMARK VINA RESULT: -8.754722943      3.124     11.167
REMARK  16 active torsions:
REMARK  status: ('A' for Active; 'I' for Inactive)
REMARK    1  A    between atoms: N1_5  and  C5_6 
REMARK    2  A    between atoms: C5_6  and  C6_7 
REMARK    3  A    between atoms: C6_7  and  C7_8 
REMARK    4  A    between atoms: C7_8  and  C8_9 
REMARK    5  A    between atoms: C8_9  and  C9_10 
REMARK    6  A    between atoms: C9_10  and  C10_11 
REMARK    7  A    between atoms: C10_11  and  C11_12 
REMARK    8  A    between atoms: C11_12  and  C12_13 
REMARK    9  A    between atoms: C12_13  and  C13_14 
REMARK   10  A    between atoms: C13_14  and  C14_15 
REMARK   11  A    between atoms: C14_15  and  C15_16 
REMARK   12  A    between atoms: C15_16  and  C16_17 
REMARK   13  A    between atoms: C16_17  and  C17_18 
REMARK       I    between atoms: C17_18  and  N2_20 
REMARK   14  A    between atoms: N2_20  and  C18_22 
REMARK   15  A    between atoms: C21_28  and  N4_29 
REMARK       I    between atoms: N4_29  and  C22_31 
REMARK   16  A    between atoms: C22_31  and  C23_33 
REMARK       I    between atoms: C23_33  and  N5_35 
ROOT
HETATM    1  C18 UNL     1      17.475  33.195  10.170  1.00  0.00     0.197 C 
HETATM    2  C19 UNL     1      17.690  34.361   9.262  1.00  0.00     0.169 C 
HETATM    3  N3  UNL     1      17.281  35.579   9.919  1.00  0.00    -0.356 N 
ATOM      4  H3  UNL     1      16.842  36.278   9.320  1.00  0.00     0.162 HD
HETATM    5  C20 UNL     1      17.408  35.935  11.297  1.00  0.00     0.242 C 
HETATM    6  O2  UNL     1      17.013  37.079  11.608  1.00  0.00    -0.271 OA
HETATM    7  C21 UNL     1      17.978  35.052  12.398  1.00  0.00     0.194 C 
HETATM    8  C27 UNL     1      19.013  34.219  11.750  1.00  0.00     0.150 C 
HETATM    9  N8  UNL     1      18.508  33.027  11.159  1.00  0.00    -0.398 N 
ATOM     10  H8  UNL     1      18.858  32.106  11.420  1.00  0.00     0.155 HD
ENDROOT
BRANCH   1  11
HETATM   11  N2  UNL     1      16.140  33.123  10.697  1.00  0.00    -0.339 N 
HETATM   12  C17 UNL     1      15.669  31.881  11.227  1.00  0.00     0.219 C 
HETATM   13  O1  UNL     1      16.450  30.904  11.211  1.00  0.00    -0.274 OA
ATOM     14  H2  UNL     1      15.537  33.945  10.693  1.00  0.00     0.164 HD
BRANCH  12  15
HETATM   15  C16 UNL     1      14.300  31.753  11.782  1.00  0.00     0.103 C 
BRANCH  15  16
HETATM   16  C15 UNL     1      14.108  32.444  13.072  1.00  0.00     0.009 C 
BRANCH  16  17
HETATM   17  C14 UNL     1      15.021  32.126  14.195  1.00  0.00     0.000 C 
BRANCH  17  18
HETATM   18  C13 UNL     1      14.928  30.700  14.697  1.00  0.00     0.000 C 
BRANCH  18  19
HETATM   19  C12 UNL     1      13.797  30.521  15.677  1.00  0.00     0.000 C 
BRANCH  19  20
HETATM   20  C11 UNL     1      12.674  29.791  14.936  1.00  0.00     0.000 C 
BRANCH  20  21
HETATM   21  C10 UNL     1      11.969  28.832  15.834  1.00  0.00     0.000 C 
BRANCH  21  22
HETATM   22  C9  UNL     1      11.929  27.454  15.226  1.00  0.00     0.000 C 
BRANCH  22  23
HETATM   23  C8  UNL     1      13.163  27.060  14.479  1.00  0.00     0.000 C 
BRANCH  23  24
HETATM   24  C7  UNL     1      12.787  26.269  13.259  1.00  0.00     0.002 C 
BRANCH  24  25
HETATM   25  C6  UNL     1      12.276  27.103  12.136  1.00  0.00     0.020 C 
BRANCH  25  26
HETATM   26  C5  UNL     1      13.244  28.151  11.664  1.00  0.00     0.128 C 
BRANCH  26  27
HETATM   27  N1  UNL     1      13.634  28.030  10.279  1.00  0.00    -0.366 N 
HETATM   28  C4  UNL     1      13.862  29.085   9.464  1.00  0.00     0.091 A 
HETATM   29  C3  UNL     1      14.242  28.952   8.135  1.00  0.00     0.024 A 
HETATM   30  C2  UNL     1      14.404  27.673   7.584  1.00  0.00    -0.059 A 
HETATM   31  C1  UNL     1      14.814  27.499   6.165  1.00  0.00     0.048 C 
HETATM   32  C29 UNL     1      14.171  26.607   8.416  1.00  0.00     0.024 A 
HETATM   33  C28 UNL     1      13.795  26.815   9.729  1.00  0.00     0.091 A 
ENDBRANCH  26  27
ENDBRANCH  25  26
ENDBRANCH  24  25
ENDBRANCH  23  24
ENDBRANCH  22  23
ENDBRANCH  21  22
ENDBRANCH  20  21
ENDBRANCH  19  20
ENDBRANCH  18  19
ENDBRANCH  17  18
ENDBRANCH  16  17
ENDBRANCH  15  16
ENDBRANCH  12  15
ENDBRANCH   1  11
BRANCH   7  34
HETATM   34  N4  UNL     1      18.405  35.897  13.475  1.00  0.00    -0.338 N 
HETATM   35  C22 UNL     1      18.229  35.372  14.821  1.00  0.00     0.310 C 
HETATM   36  O3  UNL     1      17.745  34.267  14.987  1.00  0.00    -0.262 OA
ATOM     37  H4  UNL     1      18.810  36.818  13.306  1.00  0.00     0.163 HD
BRANCH  35  38
HETATM   38  C23 UNL     1      18.667  36.250  15.938  1.00  0.00     0.327 C 
HETATM   39  O4  UNL     1      18.652  35.775  17.082  1.00  0.00    -0.261 OA
HETATM   40  N5  UNL     1      19.080  37.559  15.687  1.00  0.00    -0.151 N 
HETATM   41  C24 UNL     1      18.539  38.650  16.031  1.00  0.00     0.684 A 
ATOM     42  H5  UNL     1      19.943  37.650  15.150  1.00  0.00     0.188 HD
HETATM   43  N6  UNL     1      17.427  38.854  16.726  1.00  0.00    -0.200 N 
HETATM   44  N7  UNL     1      19.065  39.879  15.749  1.00  0.00    -0.200 N 
HETATM   45  C25 UNL     1      17.215  40.160  16.905  1.00  0.00     0.123 A 
ATOM     46  H6  UNL     1      16.817  38.113  17.075  1.00  0.00     0.183 HD
HETATM   47  C26 UNL     1      18.275  40.809  16.273  1.00  0.00     0.123 A 
ATOM     48  H7  UNL     1      19.922  40.053  15.224  1.00  0.00     0.183 HD
ENDBRANCH  35  38
ENDBRANCH   7  34
TORSDOF 16
ENDMDL
MODEL 4
REMARK VINA RESULT: -8.659229245      2.632      8.439
REMARK  16 active torsions:
REMARK  status: ('A' for Active; 'I' for Inactive)
REMARK    1  A    between atoms: N1_5  and  C5_6 
REMARK    2  A    between atoms: C5_6  and  C6_7 
REMARK    3  A    between atoms: C6_7  and  C7_8 
REMARK    4  A    between atoms: C7_8  and  C8_9 
REMARK    5  A    between atoms: C8_9  and  C9_10 
REMARK    6  A    between atoms: C9_10  and  C10_11 
REMARK    7  A    between atoms: C10_11  and  C11_12 
REMARK    8  A    between atoms: C11_12  and  C12_13 
REMARK    9  A    between atoms: C12_13  and  C13_14 
REMARK   10  A    between atoms: C13_14  and  C14_15 
REMARK   11  A    between atoms: C14_15  and  C15_16 
REMARK   12  A    between atoms: C15_16  and  C16_17 
REMARK   13  A    between atoms: C16_17  and  C17_18 
REMARK       I    between atoms: C17_18  and  N2_20 
REMARK   14  A    between atoms: N2_20  and  C18_22 
REMARK   15  A    between atoms: C21_28  and  N4_29 
REMARK       I    between atoms: N4_29  and  C22_31 
REMARK   16  A    between atoms: C22_31  and  C23_33 
REMARK       I    between atoms: C23_33  and  N5_35 
ROOT
HETATM    1  C18 UNL     1      14.245  27.544   8.154  1.00  0.00     0.197 C 
HETATM    2  C19 UNL     1      13.191  28.582   7.942  1.00  0.00     0.169 C 
HETATM    3  N3  UNL     1      13.075  29.413   9.116  1.00  0.00    -0.356 N 
ATOM      4  H3  UNL     1      12.131  29.720   9.349  1.00  0.00     0.162 HD
HETATM    5  C20 UNL     1      14.107  29.862   9.996  1.00  0.00     0.242 C 
HETATM    6  O2  UNL     1      13.749  30.618  10.925  1.00  0.00    -0.271 OA
HETATM    7  C21 UNL     1      15.583  29.502   9.898  1.00  0.00     0.194 C 
HETATM    8  C27 UNL     1      15.861  29.336   8.456  1.00  0.00     0.150 C 
HETATM    9  N8  UNL     1      15.586  28.029   7.962  1.00  0.00    -0.398 N 
ATOM     10  H8  UNL     1      16.300  27.468   7.498  1.00  0.00     0.155 HD
ENDROOT
BRANCH   1  11
HETATM   11  N2  UNL     1      14.061  26.784   9.360  1.00  0.00    -0.339 N 
HETATM   12  C17 UNL     1      13.262  25.600   9.318  1.00  0.00     0.219 C 
HETATM   13  O1  UNL     1      12.755  25.273   8.221  1.00  0.00    -0.274 OA
ATOM     14  H2  UNL     1      14.494  27.085  10.233  1.00  0.00     0.164 HD
BRANCH  12  15
HETATM   15  C16 UNL     1      13.040  24.779  10.533  1.00  0.00     0.103 C 
BRANCH  15  16
HETATM   16  C15 UNL     1      11.997  25.308  11.434  1.00  0.00     0.009 C 
BRANCH  16  17
HETATM   17  C14 UNL     1      10.603  25.389  10.940  1.00  0.00     0.000 C 
BRANCH  17  18
HETATM   18  C13 UNL     1       9.631  26.042  11.901  1.00  0.00     0.000 C 
BRANCH  18  19
HETATM   19  C12 UNL     1      10.175  27.330  12.463  1.00  0.00     0.000 C 
BRANCH  19  20
HETATM   20  C11 UNL     1       9.587  27.490  13.868  1.00  0.00     0.000 C 
BRANCH  20  21
HETATM   21  C10 UNL     1      10.204  28.644  14.584  1.00  0.00     0.000 C 
BRANCH  21  22
HETATM   22  C9  UNL     1      11.187  28.170  15.623  1.00  0.00     0.000 C 
BRANCH  22  23
HETATM   23  C8  UNL     1      12.463  27.616  15.075  1.00  0.00     0.000 C 
BRANCH  23  24
HETATM   24  C7  UNL     1      13.322  28.735  14.559  1.00  0.00     0.002 C 
BRANCH  24  25
HETATM   25  C6  UNL     1      13.330  29.940  15.434  1.00  0.00     0.020 C 
BRANCH  25  26
HETATM   26  C5  UNL     1      14.064  31.114  14.852  1.00  0.00     0.128 C 
BRANCH  26  27
HETATM   27  N1  UNL     1      14.750  31.936  15.820  1.00  0.00    -0.366 N 
HETATM   28  C4  UNL     1      15.139  31.498  17.040  1.00  0.00     0.091 A 
HETATM   29  C3  UNL     1      15.803  32.299  17.959  1.00  0.00     0.024 A 
HETATM   30  C2  UNL     1      16.098  33.631  17.635  1.00  0.00    -0.059 A 
HETATM   31  C1  UNL     1      16.813  34.512  18.597  1.00  0.00     0.048 C 
HETATM   32  C29 UNL     1      15.701  34.068  16.396  1.00  0.00     0.024 A 
HETATM   33  C28 UNL     1      15.043  33.214  15.532  1.00  0.00     0.091 A 
ENDBRANCH  26  27
ENDBRANCH  25  26
ENDBRANCH  24  25
ENDBRANCH  23  24
ENDBRANCH  22  23
ENDBRANCH  21  22
ENDBRANCH  20  21
ENDBRANCH  19  20
ENDBRANCH  18  19
ENDBRANCH  17  18
ENDBRANCH  16  17
ENDBRANCH  15  16
ENDBRANCH  12  15
ENDBRANCH   1  11
BRANCH   7  34
HETATM   34  N4  UNL     1      16.337  30.505  10.592  1.00  0.00    -0.338 N 
HETATM   35  C22 UNL     1      16.723  30.196  11.961  1.00  0.00     0.310 C 
HETATM   36  O3  UNL     1      16.409  29.129  12.458  1.00  0.00    -0.262 OA
ATOM     37  H4  UNL     1      16.589  31.389  10.150  1.00  0.00     0.163 HD
BRANCH  35  38
HETATM   38  C23 UNL     1      17.500  31.237  12.683  1.00  0.00     0.327 C 
HETATM   39  O4  UNL     1      17.495  31.204  13.922  1.00  0.00    -0.261 OA
HETATM   40  N5  UNL     1      18.207  32.210  11.973  1.00  0.00    -0.151 N 
HETATM   41  C24 UNL     1      18.011  33.458  11.912  1.00  0.00     0.684 A 
ATOM     42  H5  UNL     1      18.995  31.864  11.426  1.00  0.00     0.188 HD
HETATM   43  N6  UNL     1      17.078  34.192  12.506  1.00  0.00    -0.200 N 
HETATM   44  N7  UNL     1      18.802  34.315  11.202  1.00  0.00    -0.200 N 
HETATM   45  C25 UNL     1      17.235  35.485  12.209  1.00  0.00     0.123 A 
ATOM     46  H6  UNL     1      16.343  33.820  13.107  1.00  0.00     0.183 HD
HETATM   47  C26 UNL     1      18.347  35.551  11.370  1.00  0.00     0.123 A 
ATOM     48  H7  UNL     1      19.608  34.049  10.635  1.00  0.00     0.183 HD
ENDBRANCH  35  38
ENDBRANCH   7  34
TORSDOF 16
ENDMDL
MODEL 5
REMARK VINA RESULT: -8.572258988      2.133      7.452
REMARK  16 active torsions:
REMARK  status: ('A' for Active; 'I' for Inactive)
REMARK    1  A    between atoms: N1_5  and  C5_6 
REMARK    2  A    between atoms: C5_6  and  C6_7 
REMARK    3  A    between atoms: C6_7  and  C7_8 
REMARK    4  A    between atoms: C7_8  and  C8_9 
REMARK    5  A    between atoms: C8_9  and  C9_10 
REMARK    6  A    between atoms: C9_10  and  C10_11 
REMARK    7  A    between atoms: C10_11  and  C11_12 
REMARK    8  A    between atoms: C11_12  and  C12_13 
REMARK    9  A    between atoms: C12_13  and  C13_14 
REMARK   10  A    between atoms: C13_14  and  C14_15 
REMARK   11  A    between atoms: C14_15  and  C15_16 
REMARK   12  A    between atoms: C15_16  and  C16_17 
REMARK   13  A    between atoms: C16_17  and  C17_18 
REMARK       I    between atoms: C17_18  and  N2_20 
REMARK   14  A    between atoms: N2_20  and  C18_22 
REMARK   15  A    between atoms: C21_28  and  N4_29 
REMARK       I    between atoms: N4_29  and  C22_31 
REMARK   16  A    between atoms: C22_31  and  C23_33 
REMARK       I    between atoms: C23_33  and  N5_35 
ROOT
HETATM    1  C18 UNL     1      11.320  24.842   9.805  1.00  0.00     0.197 C 
HETATM    2  C19 UNL     1      11.614  25.018   8.351  1.00  0.00     0.169 C 
HETATM    3  N3  UNL     1      12.118  26.348   8.108  1.00  0.00    -0.356 N 
ATOM      4  H3  UNL     1      11.825  26.779   7.231  1.00  0.00     0.162 HD
HETATM    5  C20 UNL     1      12.973  27.142   8.933  1.00  0.00     0.242 C 
HETATM    6  O2  UNL     1      13.305  28.255   8.470  1.00  0.00    -0.271 OA
HETATM    7  C21 UNL     1      13.504  26.752  10.304  1.00  0.00     0.194 C 
HETATM    8  C27 UNL     1      13.666  25.283  10.270  1.00  0.00     0.150 C 
HETATM    9  N8  UNL     1      12.484  24.564  10.605  1.00  0.00    -0.398 N 
ATOM     10  H8  UNL     1      12.463  23.889  11.370  1.00  0.00     0.155 HD
ENDROOT
BRANCH   1  11
HETATM   11  N2  UNL     1      10.469  25.868  10.341  1.00  0.00    -0.339 N 
HETATM   12  C17 UNL     1       9.475  25.511  11.305  1.00  0.00     0.219 C 
HETATM   13  O1  UNL     1       9.393  24.309  11.644  1.00  0.00    -0.274 OA
ATOM     14  H2  UNL     1      10.572  26.837  10.039  1.00  0.00     0.164 HD
BRANCH  12  15
HETATM   15  C16 UNL     1       8.571  26.530  11.890  1.00  0.00     0.103 C 
BRANCH  15  16
HETATM   16  C15 UNL     1       9.272  27.624  12.591  1.00  0.00     0.009 C 
BRANCH  16  17
HETATM   17  C14 UNL     1      10.106  27.295  13.770  1.00  0.00     0.000 C 
BRANCH  17  18
HETATM   18  C13 UNL     1      10.843  28.475  14.370  1.00  0.00     0.000 C 
BRANCH  18  19
HETATM   19  C12 UNL     1      11.139  28.270  15.833  1.00  0.00     0.000 C 
BRANCH  19  20
HETATM   20  C11 UNL     1      12.037  29.428  16.277  1.00  0.00     0.000 C 
BRANCH  20  21
HETATM   21  C10 UNL     1      12.845  29.951  15.138  1.00  0.00     0.000 C 
BRANCH  21  22
HETATM   22  C9  UNL     1      14.278  30.169  15.550  1.00  0.00     0.000 C 
BRANCH  22  23
HETATM   23  C8  UNL     1      14.609  31.568  15.960  1.00  0.00     0.000 C 
BRANCH  23  24
HETATM   24  C7  UNL     1      15.468  31.547  17.192  1.00  0.00     0.002 C 
BRANCH  24  25
HETATM   25  C6  UNL     1      15.753  32.899  17.749  1.00  0.00     0.020 C 
BRANCH  25  26
HETATM   26  C5  UNL     1      15.470  34.024  16.795  1.00  0.00     0.128 C 
BRANCH  26  27
HETATM   27  N1  UNL     1      16.624  34.507  16.075  1.00  0.00    -0.366 N 
HETATM   28  C4  UNL     1      16.938  34.132  14.813  1.00  0.00     0.091 A 
HETATM   29  C3  UNL     1      18.049  34.610  14.131  1.00  0.00     0.024 A 
HETATM   30  C2  UNL     1      18.906  35.526  14.756  1.00  0.00    -0.059 A 
HETATM   31  C1  UNL     1      20.102  36.058  14.050  1.00  0.00     0.048 C 
HETATM   32  C29 UNL     1      18.583  35.902  16.035  1.00  0.00     0.024 A 
HETATM   33  C28 UNL     1      17.460  35.385  16.653  1.00  0.00     0.091 A 
ENDBRANCH  26  27
ENDBRANCH  25  26
ENDBRANCH  24  25
ENDBRANCH  23  24
ENDBRANCH  22  23
ENDBRANCH  21  22
ENDBRANCH  20  21
ENDBRANCH  19  20
ENDBRANCH  18  19
ENDBRANCH  17  18
ENDBRANCH  16  17
ENDBRANCH  15  16
ENDBRANCH  12  15
ENDBRANCH   1  11
BRANCH   7  34
HETATM   34  N4  UNL     1      14.680  27.528  10.568  1.00  0.00    -0.338 N 
HETATM   35  C22 UNL     1      14.537  28.623  11.516  1.00  0.00     0.310 C 
HETATM   36  O3  UNL     1      13.460  28.838  12.042  1.00  0.00    -0.262 OA
ATOM     37  H4  UNL     1      15.571  27.324  10.115  1.00  0.00     0.163 HD
BRANCH  35  38
HETATM   38  C23 UNL     1      15.755  29.431  11.786  1.00  0.00     0.327 C 
HETATM   39  O4  UNL     1      16.223  29.402  12.933  1.00  0.00    -0.261 OA
HETATM   40  N5  UNL     1      16.339  30.189  10.769  1.00  0.00    -0.151 N 
HETATM   41  C24 UNL     1      16.435  31.446  10.661  1.00  0.00     0.684 A 
ATOM     42  H5  UNL     1      16.747  29.652  10.004  1.00  0.00     0.188 HD
HETATM   43  N6  UNL     1      16.007  32.395  11.484  1.00  0.00    -0.200 N 
HETATM   44  N7  UNL     1      17.066  32.071   9.624  1.00  0.00    -0.200 N 
HETATM   45  C25 UNL     1      16.337  33.604  11.022  1.00  0.00     0.123 A 
ATOM     46  H6  UNL     1      15.496  32.224  12.351  1.00  0.00     0.183 HD
HETATM   47  C26 UNL     1      17.017  33.383   9.826  1.00  0.00     0.123 A 
ATOM     48  H7  UNL     1      17.502  31.607   8.827  1.00  0.00     0.183 HD
ENDBRANCH  35  38
ENDBRANCH   7  34
TORSDOF 16
ENDMDL
