MODEL 1
REMARK VINA RESULT: -9.844820202      0.000      0.000
REMARK  16 active torsions:
REMARK  status: ('A' for Active; 'I' for Inactive)
REMARK    1  A    between atoms: N3_4  and  C2_6 
REMARK    2  A    between atoms: C2_6  and  C3_7 
REMARK    3  A    between atoms: C3_7  and  C4_8 
REMARK    4  A    between atoms: C4_8  and  C5_9 
REMARK    5  A    between atoms: C5_9  and  C6_10 
REMARK    6  A    between atoms: C5_9  and  C20_33 
REMARK    7  A    between atoms: C6_10  and  C7_11 
REMARK    8  A    between atoms: C7_11  and  C8_12 
REMARK    9  A    between atoms: C8_12  and  N4_13 
REMARK       I    between atoms: C9_15  and  N6_17 
REMARK   10  A    between atoms: N6_17  and  C10_19 
REMARK   11  A    between atoms: C10_19  and  C11_20 
REMARK   12  A    between atoms: C11_20  and  C12_21 
REMARK   13  A    between atoms: C12_21  and  C13_22 
REMARK       I    between atoms: C20_33  and  N9_35 
REMARK   14  A    between atoms: N9_35  and  C21_37 
REMARK   15  A    between atoms: C21_37  and  C22_38 
REMARK   16  A    between atoms: C25_41  and  N10_42 
ROOT
HETATM    1  C5  UNL     1      14.491  31.774  14.125  1.00  0.00     0.078 C 
ENDROOT
BRANCH   1   2
HETATM    2  C4  UNL     1      14.737  32.842  15.160  1.00  0.00     0.015 C 
BRANCH   2   3
HETATM    3  C3  UNL     1      15.137  32.303  16.510  1.00  0.00     0.020 C 
BRANCH   3   4
HETATM    4  C2  UNL     1      15.708  33.508  17.275  1.00  0.00     0.122 C 
BRANCH   4   5
HETATM    5  N3  UNL     1      16.699  34.112  16.413  1.00  0.00    -0.367 N 
HETATM    6  C1  UNL     1      17.751  34.698  16.844  1.00  0.00     0.196 C 
HETATM    7  N1  UNL     1      17.945  34.752  18.262  1.00  0.00    -0.067 NA
HETATM    8  N2  UNL     1      18.723  35.291  16.017  1.00  0.00    -0.067 NA
ATOM      9  H3  UNL     1      16.552  34.067  15.404  1.00  0.00     0.161 HD
ENDBRANCH   4   5
ENDBRANCH   3   4
ENDBRANCH   2   3
ENDBRANCH   1   2
BRANCH   1  10
HETATM   10  C6  UNL     1      15.160  30.471  14.606  1.00  0.00     0.015 C 
BRANCH  10  11
HETATM   11  C7  UNL     1      14.863  29.316  13.703  1.00  0.00     0.020 C 
BRANCH  11  12
HETATM   12  C8  UNL     1      13.944  28.345  14.446  1.00  0.00     0.122 C 
BRANCH  12  13
HETATM   13  N4  UNL     1      13.048  27.801  13.502  1.00  0.00    -0.365 N 
HETATM   14  C9  UNL     1      11.840  28.121  13.244  1.00  0.00     0.183 C 
HETATM   15  N5  UNL     1      11.206  29.167  13.957  1.00  0.00    -0.064 NA
HETATM   16  N6  UNL     1      11.143  27.380  12.225  1.00  0.00    -0.365 N 
ATOM     17  H6  UNL     1      10.488  27.853  11.603  1.00  0.00     0.162 HD
ATOM     18  H4  UNL     1      13.424  27.036  12.941  1.00  0.00     0.162 HD
BRANCH  16  19
HETATM   19  C10 UNL     1      11.380  25.949  12.089  1.00  0.00     0.122 C 
BRANCH  19  20
HETATM   20  C11 UNL     1      11.597  25.711  10.598  1.00  0.00     0.027 C 
BRANCH  20  21
HETATM   21  C12 UNL     1      13.050  25.337  10.418  1.00  0.00     0.078 C 
BRANCH  21  22
HETATM   22  C13 UNL     1      13.815  26.530   9.911  1.00  0.00     0.082 A 
HETATM   23  N7  UNL     1      14.006  26.874   8.636  1.00  0.00    -0.344 N 
HETATM   24  C14 UNL     1      14.756  27.990   8.520  1.00  0.00     0.060 A 
ATOM     25  H7  UNL     1      13.630  26.355   7.843  1.00  0.00     0.167 HD
HETATM   26  C15 UNL     1      15.221  28.732   7.455  1.00  0.00     0.032 A 
HETATM   27  C19 UNL     1      15.045  28.359   9.834  1.00  0.00     0.060 A 
HETATM   28  C16 UNL     1      15.982  29.849   7.698  1.00  0.00     0.002 A 
HETATM   29  C17 UNL     1      16.286  30.239   8.984  1.00  0.00     0.002 A 
HETATM   30  C18 UNL     1      15.811  29.485  10.025  1.00  0.00     0.032 A 
HETATM   31  N8  UNL     1      14.460  27.454  10.654  1.00  0.00    -0.344 N 
ATOM     32  H8  UNL     1      14.501  27.469  11.674  1.00  0.00     0.167 HD
ENDBRANCH  21  22
ENDBRANCH  20  21
ENDBRANCH  19  20
ENDBRANCH  16  19
ENDBRANCH  12  13
ENDBRANCH  11  12
ENDBRANCH  10  11
ENDBRANCH   1  10
BRANCH   1  33
HETATM   33  C20 UNL     1      15.186  32.200  12.855  1.00  0.00     0.222 C 
HETATM   34  O1  UNL     1      14.498  32.347  11.811  1.00  0.00    -0.273 OA
HETATM   35  N9  UNL     1      16.579  32.441  12.797  1.00  0.00    -0.356 N 
ATOM     36  H9  UNL     1      17.158  32.334  13.630  1.00  0.00     0.162 HD
BRANCH  35  37
HETATM   37  C21 UNL     1      17.171  32.843  11.539  1.00  0.00     0.162 C 
BRANCH  37  38
HETATM   38  C22 UNL     1      17.178  34.335  11.406  1.00  0.00    -0.025 A 
HETATM   39  C23 UNL     1      16.915  34.949  10.204  1.00  0.00     0.014 A 
HETATM   40  C24 UNL     1      16.924  36.340  10.163  1.00  0.00     0.050 A 
HETATM   41  C25 UNL     1      17.187  37.113  11.273  1.00  0.00     0.111 A 
HETATM   42  N11 UNL     1      17.439  36.472  12.426  1.00  0.00    -0.351 N 
HETATM   43  C31 UNL     1      17.440  35.128  12.511  1.00  0.00     0.098 A 
ATOM     44  H11 UNL     1      17.636  37.020  13.263  1.00  0.00     0.166 HD
BRANCH  41  45
HETATM   45  N10 UNL     1      17.170  38.527  11.134  1.00  0.00    -0.319 N 
HETATM   46  C26 UNL     1      18.319  39.220  11.015  1.00  0.00     0.098 A 
HETATM   47  C27 UNL     1      18.386  40.582  10.878  1.00  0.00     0.018 A 
HETATM   48  C28 UNL     1      17.192  41.283  10.862  1.00  0.00     0.003 A 
HETATM   49  C29 UNL     1      16.012  40.587  10.982  1.00  0.00     0.018 A 
HETATM   50  C30 UNL     1      16.001  39.223  11.118  1.00  0.00     0.098 A 
ENDBRANCH  41  45
ENDBRANCH  37  38
ENDBRANCH  35  37
ENDBRANCH   1  33
TORSDOF 16
ENDMDL
MODEL 2
REMARK VINA RESULT: -9.663409988      2.208     10.710
REMARK  16 active torsions:
REMARK  status: ('A' for Active; 'I' for Inactive)
REMARK    1  A    between atoms: N3_4  and  C2_6 
REMARK    2  A    between atoms: C2_6  and  C3_7 
REMARK    3  A    between atoms: C3_7  and  C4_8 
REMARK    4  A    between atoms: C4_8  and  C5_9 
REMARK    5  A    between atoms: C5_9  and  C6_10 
REMARK    6  A    between atoms: C5_9  and  C20_33 
REMARK    7  A    between atoms: C6_10  and  C7_11 
REMARK    8  A    between atoms: C7_11  and  C8_12 
REMARK    9  A    between atoms: C8_12  and  N4_13 
REMARK       I    between atoms: C9_15  and  N6_17 
REMARK   10  A    between atoms: N6_17  and  C10_19 
REMARK   11  A    between atoms: C10_19  and  C11_20 
REMARK   12  A    between atoms: C11_20  and  C12_21 
REMARK   13  A    between atoms: C12_21  and  C13_22 
REMARK       I    between atoms: C20_33  and  N9_35 
REMARK   14  A    between atoms: N9_35  and  C21_37 
REMARK   15  A    between atoms: C21_37  and  C22_38 
REMARK   16  A    between atoms: C25_41  and  N10_42 
ROOT
HETATM    1  C5  UNL     1      14.999  31.298  10.956  1.00  0.00     0.078 C 
ENDROOT
BRANCH   1   2
HETATM    2  C4  UNL     1      16.055  30.260  10.676  1.00  0.00     0.015 C 
BRANCH   2   3
HETATM    3  C3  UNL     1      16.093  29.798   9.242  1.00  0.00     0.020 C 
BRANCH   3   4
HETATM    4  C2  UNL     1      14.671  29.296   8.940  1.00  0.00     0.122 C 
BRANCH   4   5
HETATM    5  N3  UNL     1      14.808  28.216   7.989  1.00  0.00    -0.367 N 
HETATM    6  C1  UNL     1      14.450  27.011   8.227  1.00  0.00     0.196 C 
HETATM    7  N1  UNL     1      13.883  26.732   9.512  1.00  0.00    -0.067 NA
HETATM    8  N2  UNL     1      14.580  25.951   7.312  1.00  0.00    -0.067 NA
ATOM      9  H3  UNL     1      15.213  28.426   7.076  1.00  0.00     0.161 HD
ENDBRANCH   4   5
ENDBRANCH   3   4
ENDBRANCH   2   3
ENDBRANCH   1   2
BRANCH   1  10
HETATM   10  C6  UNL     1      15.704  32.638  11.246  1.00  0.00     0.015 C 
BRANCH  10  11
HETATM   11  C7  UNL     1      17.148  32.455  11.595  1.00  0.00     0.020 C 
BRANCH  11  12
HETATM   12  C8  UNL     1      17.966  33.497  10.831  1.00  0.00     0.122 C 
BRANCH  12  13
HETATM   13  N4  UNL     1      17.985  34.675  11.607  1.00  0.00    -0.365 N 
HETATM   14  C9  UNL     1      17.473  35.820  11.367  1.00  0.00     0.183 C 
HETATM   15  N5  UNL     1      16.757  36.049  10.167  1.00  0.00    -0.064 NA
HETATM   16  N6  UNL     1      17.659  36.865  12.340  1.00  0.00    -0.365 N 
ATOM     17  H6  UNL     1      16.911  37.533  12.524  1.00  0.00     0.162 HD
ATOM     18  H4  UNL     1      18.483  34.600  12.494  1.00  0.00     0.162 HD
BRANCH  16  19
HETATM   19  C10 UNL     1      18.922  36.961  13.058  1.00  0.00     0.122 C 
BRANCH  19  20
HETATM   20  C11 UNL     1      18.562  36.836  14.535  1.00  0.00     0.027 C 
BRANCH  20  21
HETATM   21  C12 UNL     1      19.258  35.600  15.056  1.00  0.00     0.078 C 
BRANCH  21  22
HETATM   22  C13 UNL     1      18.232  34.631  15.580  1.00  0.00     0.082 A 
HETATM   23  N7  UNL     1      17.670  33.622  14.912  1.00  0.00    -0.344 N 
HETATM   24  C14 UNL     1      16.772  32.954  15.665  1.00  0.00     0.060 A 
ATOM     25  H7  UNL     1      17.894  33.383  13.946  1.00  0.00     0.167 HD
HETATM   26  C15 UNL     1      15.949  31.869  15.447  1.00  0.00     0.032 A 
HETATM   27  C19 UNL     1      16.786  33.610  16.896  1.00  0.00     0.060 A 
HETATM   28  C16 UNL     1      15.133  31.433  16.462  1.00  0.00     0.002 A 
HETATM   29  C17 UNL     1      15.124  32.060  17.688  1.00  0.00     0.002 A 
HETATM   30  C18 UNL     1      15.951  33.135  17.880  1.00  0.00     0.032 A 
HETATM   31  N8  UNL     1      17.682  34.622  16.814  1.00  0.00    -0.344 N 
ATOM     32  H8  UNL     1      17.907  35.274  17.565  1.00  0.00     0.167 HD
ENDBRANCH  21  22
ENDBRANCH  20  21
ENDBRANCH  19  20
ENDBRANCH  16  19
ENDBRANCH  12  13
ENDBRANCH  11  12
ENDBRANCH  10  11
ENDBRANCH   1  10
BRANCH   1  33
HETATM   33  C20 UNL     1      14.273  30.885  12.212  1.00  0.00     0.222 C 
HETATM   34  O1  UNL     1      13.575  31.742  12.815  1.00  0.00    -0.273 OA
HETATM   35  N9  UNL     1      14.348  29.572  12.735  1.00  0.00    -0.356 N 
ATOM     36  H9  UNL     1      14.903  28.858  12.263  1.00  0.00     0.162 HD
BRANCH  35  37
HETATM   37  C21 UNL     1      13.624  29.256  13.948  1.00  0.00     0.162 C 
BRANCH  37  38
HETATM   38  C22 UNL     1      12.263  28.717  13.631  1.00  0.00    -0.025 A 
HETATM   39  C23 UNL     1      11.195  28.927  14.472  1.00  0.00     0.014 A 
HETATM   40  C24 UNL     1       9.958  28.408  14.102  1.00  0.00     0.050 A 
HETATM   41  C25 UNL     1       9.770  27.699  12.935  1.00  0.00     0.111 A 
HETATM   42  N11 UNL     1      10.840  27.518  12.144  1.00  0.00    -0.351 N 
HETATM   43  C31 UNL     1      12.056  28.002  12.463  1.00  0.00     0.098 A 
ATOM     44  H11 UNL     1      10.729  26.996  11.274  1.00  0.00     0.166 HD
BRANCH  41  45
HETATM   45  N10 UNL     1       8.468  27.212  12.640  1.00  0.00    -0.319 N 
HETATM   46  C26 UNL     1       8.114  25.954  12.968  1.00  0.00     0.098 A 
HETATM   47  C27 UNL     1       6.881  25.412  12.718  1.00  0.00     0.018 A 
HETATM   48  C28 UNL     1       5.945  26.214  12.086  1.00  0.00     0.003 A 
HETATM   49  C29 UNL     1       6.295  27.500  11.746  1.00  0.00     0.018 A 
HETATM   50  C30 UNL     1       7.544  27.993  12.020  1.00  0.00     0.098 A 
ENDBRANCH  41  45
ENDBRANCH  37  38
ENDBRANCH  35  37
ENDBRANCH   1  33
TORSDOF 16
ENDMDL
MODEL 3
REMARK VINA RESULT: -9.590501475      1.405      2.073
REMARK  16 active torsions:
REMARK  status: ('A' for Active; 'I' for Inactive)
REMARK    1  A    between atoms: N3_4  and  C2_6 
REMARK    2  A    between atoms: C2_6  and  C3_7 
REMARK    3  A    between atoms: C3_7  and  C4_8 
REMARK    4  A    between atoms: C4_8  and  C5_9 
REMARK    5  A    between atoms: C5_9  and  C6_10 
REMARK    6  A    between atoms: C5_9  and  C20_33 
REMARK    7  A    between atoms: C6_10  and  C7_11 
REMARK    8  A    between atoms: C7_11  and  C8_12 
REMARK    9  A    between atoms: C8_12  and  N4_13 
REMARK       I    between atoms: C9_15  and  N6_17 
REMARK   10  A    between atoms: N6_17  and  C10_19 
REMARK   11  A    between atoms: C10_19  and  C11_20 
REMARK   12  A    between atoms: C11_20  and  C12_21 
REMARK   13  A    between atoms: C12_21  and  C13_22 
REMARK       I    between atoms: C20_33  and  N9_35 
REMARK   14  A    between atoms: N9_35  and  C21_37 
REMARK   15  A    between atoms: C21_37  and  C22_38 
REMARK   16  A    between atoms: C25_41  and  N10_42 
ROOT
HETATM    1  C5  UNL     1      13.548  30.944  14.278  1.00  0.00     0.078 C 
ENDROOT
BRANCH   1   2
HETATM    2  C4  UNL     1      14.734  30.601  15.141  1.00  0.00     0.015 C 
BRANCH   2   3
HETATM    3  C3  UNL     1      14.794  31.373  16.434  1.00  0.00     0.020 C 
BRANCH   3   4
HETATM    4  C2  UNL     1      15.435  32.723  16.071  1.00  0.00     0.122 C 
BRANCH   4   5
HETATM    5  N3  UNL     1      16.260  33.104  17.196  1.00  0.00    -0.367 N 
HETATM    6  C1  UNL     1      17.019  34.133  17.202  1.00  0.00     0.196 C 
HETATM    7  N1  UNL     1      17.042  34.946  16.023  1.00  0.00    -0.067 NA
HETATM    8  N2  UNL     1      17.829  34.514  18.288  1.00  0.00    -0.067 NA
ATOM      9  H3  UNL     1      16.235  32.519  18.031  1.00  0.00     0.161 HD
ENDBRANCH   4   5
ENDBRANCH   3   4
ENDBRANCH   2   3
ENDBRANCH   1   2
BRANCH   1  10
HETATM   10  C6  UNL     1      12.773  29.644  13.983  1.00  0.00     0.015 C 
BRANCH  10  11
HETATM   11  C7  UNL     1      11.842  29.276  15.095  1.00  0.00     0.020 C 
BRANCH  11  12
HETATM   12  C8  UNL     1      10.451  29.038  14.503  1.00  0.00     0.122 C 
BRANCH  12  13
HETATM   13  N4  UNL     1      10.574  28.033  13.520  1.00  0.00    -0.365 N 
HETATM   14  C9  UNL     1       9.708  27.587  12.695  1.00  0.00     0.183 C 
HETATM   15  N5  UNL     1       8.393  28.111  12.682  1.00  0.00    -0.064 NA
HETATM   16  N6  UNL     1      10.103  26.532  11.798  1.00  0.00    -0.365 N 
ATOM     17  H6  UNL     1       9.750  26.512  10.842  1.00  0.00     0.162 HD
ATOM     18  H4  UNL     1      11.495  27.598  13.459  1.00  0.00     0.162 HD
BRANCH  16  19
HETATM   19  C10 UNL     1      11.010  25.494  12.267  1.00  0.00     0.122 C 
BRANCH  19  20
HETATM   20  C11 UNL     1      12.180  25.500  11.287  1.00  0.00     0.027 C 
BRANCH  20  21
HETATM   21  C12 UNL     1      13.167  26.530  11.785  1.00  0.00     0.078 C 
BRANCH  21  22
HETATM   22  C13 UNL     1      13.681  27.334  10.621  1.00  0.00     0.082 A 
HETATM   23  N7  UNL     1      14.863  27.947  10.533  1.00  0.00    -0.344 N 
HETATM   24  C14 UNL     1      15.008  28.601   9.362  1.00  0.00     0.060 A 
ATOM     25  H7  UNL     1      15.574  27.923  11.264  1.00  0.00     0.167 HD
HETATM   26  C15 UNL     1      16.012  29.363   8.802  1.00  0.00     0.032 A 
HETATM   27  C19 UNL     1      13.815  28.368   8.677  1.00  0.00     0.060 A 
HETATM   28  C16 UNL     1      15.828  29.898   7.551  1.00  0.00     0.002 A 
HETATM   29  C17 UNL     1      14.661  29.687   6.850  1.00  0.00     0.002 A 
HETATM   30  C18 UNL     1      13.679  28.926   7.428  1.00  0.00     0.032 A 
HETATM   31  N8  UNL     1      13.031  27.596   9.467  1.00  0.00    -0.344 N 
ATOM     32  H8  UNL     1      12.097  27.265   9.227  1.00  0.00     0.167 HD
ENDBRANCH  21  22
ENDBRANCH  20  21
ENDBRANCH  19  20
ENDBRANCH  16  19
ENDBRANCH  12  13
ENDBRANCH  11  12
ENDBRANCH  10  11
ENDBRANCH   1  10
BRANCH   1  33
HETATM   33  C20 UNL     1      14.073  31.468  12.965  1.00  0.00     0.222 C 
HETATM   34  O1  UNL     1      13.300  32.138  12.231  1.00  0.00    -0.273 OA
HETATM   35  N9  UNL     1      15.400  31.236  12.532  1.00  0.00    -0.356 N 
ATOM     36  H9  UNL     1      16.047  30.701  13.110  1.00  0.00     0.162 HD
BRANCH  35  37
HETATM   37  C21 UNL     1      15.827  31.770  11.256  1.00  0.00     0.162 C 
BRANCH  37  38
HETATM   38  C22 UNL     1      16.409  33.140  11.420  1.00  0.00    -0.025 A 
HETATM   39  C23 UNL     1      16.549  33.992  10.350  1.00  0.00     0.014 A 
HETATM   40  C24 UNL     1      17.085  35.255  10.584  1.00  0.00     0.050 A 
HETATM   41  C25 UNL     1      17.476  35.674  11.837  1.00  0.00     0.111 A 
HETATM   42  N11 UNL     1      17.322  34.809  12.853  1.00  0.00    -0.351 N 
HETATM   43  C31 UNL     1      16.808  33.578  12.672  1.00  0.00     0.098 A 
ATOM     44  H11 UNL     1      17.604  35.094  13.791  1.00  0.00     0.166 HD
BRANCH  41  45
HETATM   45  N10 UNL     1      18.009  36.984  11.979  1.00  0.00    -0.319 N 
HETATM   46  C26 UNL     1      18.830  37.285  13.003  1.00  0.00     0.098 A 
HETATM   47  C27 UNL     1      19.383  38.522  13.208  1.00  0.00     0.018 A 
HETATM   48  C28 UNL     1      19.073  39.521  12.300  1.00  0.00     0.003 A 
HETATM   49  C29 UNL     1      18.235  39.226  11.250  1.00  0.00     0.018 A 
HETATM   50  C30 UNL     1      17.708  37.970  11.091  1.00  0.00     0.098 A 
ENDBRANCH  41  45
ENDBRANCH  37  38
ENDBRANCH  35  37
ENDBRANCH   1  33
TORSDOF 16
ENDMDL
MODEL 4
REMARK VINA RESULT: -9.556156867      1.172      3.422
REMARK  16 active torsions:
REMARK  status: ('A' for Active; 'I' for Inactive)
REMARK    1  A    between atoms: N3_4  and  C2_6 
REMARK    2  A    between atoms: C2_6  and  C3_7 
REMARK    3  A    between atoms: C3_7  and  C4_8 
REMARK    4  A    between atoms: C4_8  and  C5_9 
REMARK    5  A    between atoms: C5_9  and  C6_10 
REMARK    6  A    between atoms: C5_9  and  C20_33 
REMARK    7  A    between atoms: C6_10  and  C7_11 
REMARK    8  A    between atoms: C7_11  and  C8_12 
REMARK    9  A    between atoms: C8_12  and  N4_13 
REMARK       I    between atoms: C9_15  and  N6_17 
REMARK   10  A    between atoms: N6_17  and  C10_19 
REMARK   11  A    between atoms: C10_19  and  C11_20 
REMARK   12  A    between atoms: C11_20  and  C12_21 
REMARK   13  A    between atoms: C12_21  and  C13_22 
REMARK       I    between atoms: C20_33  and  N9_35 
REMARK   14  A    between atoms: N9_35  and  C21_37 
REMARK   15  A    between atoms: C21_37  and  C22_38 
REMARK   16  A    between atoms: C25_41  and  N10_42 
ROOT
HETATM    1  C5  UNL     1      14.825  32.029  13.712  1.00  0.00     0.078 C 
ENDROOT
BRANCH   1   2
HETATM    2  C4  UNL     1      14.791  33.085  14.787  1.00  0.00     0.015 C 
BRANCH   2   3
HETATM    3  C3  UNL     1      15.167  32.576  16.155  1.00  0.00     0.020 C 
BRANCH   3   4
HETATM    4  C2  UNL     1      15.595  33.823  16.947  1.00  0.00     0.122 C 
BRANCH   4   5
HETATM    5  N3  UNL     1      16.697  34.415  16.222  1.00  0.00    -0.367 N 
HETATM    6  C1  UNL     1      17.785  34.798  16.774  1.00  0.00     0.196 C 
HETATM    7  N1  UNL     1      17.905  34.624  18.191  1.00  0.00    -0.067 NA
HETATM    8  N2  UNL     1      18.863  35.378  16.081  1.00  0.00    -0.067 NA
ATOM      9  H3  UNL     1      16.601  34.534  15.213  1.00  0.00     0.161 HD
ENDBRANCH   4   5
ENDBRANCH   3   4
ENDBRANCH   2   3
ENDBRANCH   1   2
BRANCH   1  10
HETATM   10  C6  UNL     1      15.533  30.783  14.280  1.00  0.00     0.015 C 
BRANCH  10  11
HETATM   11  C7  UNL     1      15.192  29.541  13.519  1.00  0.00     0.020 C 
BRANCH  11  12
HETATM   12  C8  UNL     1      16.307  29.273  12.506  1.00  0.00     0.122 C 
BRANCH  12  13
HETATM   13  N4  UNL     1      15.703  28.782  11.330  1.00  0.00    -0.365 N 
HETATM   14  C9  UNL     1      15.814  29.186  10.124  1.00  0.00     0.183 C 
HETATM   15  N5  UNL     1      16.644  30.290   9.810  1.00  0.00    -0.064 NA
HETATM   16  N6  UNL     1      15.062  28.501   9.105  1.00  0.00    -0.365 N 
ATOM     17  H6  UNL     1      15.464  28.359   8.179  1.00  0.00     0.162 HD
ATOM     18  H4  UNL     1      15.084  27.982  11.463  1.00  0.00     0.162 HD
BRANCH  16  19
HETATM   19  C10 UNL     1      13.723  28.014   9.406  1.00  0.00     0.122 C 
BRANCH  19  20
HETATM   20  C11 UNL     1      13.865  26.503   9.565  1.00  0.00     0.027 C 
BRANCH  20  21
HETATM   21  C12 UNL     1      12.523  25.980  10.021  1.00  0.00     0.078 C 
BRANCH  21  22
HETATM   22  C13 UNL     1      12.228  26.495  11.404  1.00  0.00     0.082 A 
HETATM   23  N7  UNL     1      11.148  27.178  11.789  1.00  0.00    -0.344 N 
HETATM   24  C14 UNL     1      11.199  27.510  13.096  1.00  0.00     0.060 A 
ATOM     25  H7  UNL     1      10.376  27.421  11.169  1.00  0.00     0.167 HD
HETATM   26  C15 UNL     1      10.359  28.193  13.949  1.00  0.00     0.032 A 
HETATM   27  C19 UNL     1      12.410  26.985  13.547  1.00  0.00     0.060 A 
HETATM   28  C16 UNL     1      10.726  28.357  15.263  1.00  0.00     0.002 A 
HETATM   29  C17 UNL     1      11.916  27.850  15.738  1.00  0.00     0.002 A 
HETATM   30  C18 UNL     1      12.733  27.175  14.870  1.00  0.00     0.032 A 
HETATM   31  N8  UNL     1      13.011  26.375  12.498  1.00  0.00    -0.344 N 
ATOM     32  H8  UNL     1      13.913  25.899  12.529  1.00  0.00     0.167 HD
ENDBRANCH  21  22
ENDBRANCH  20  21
ENDBRANCH  19  20
ENDBRANCH  16  19
ENDBRANCH  12  13
ENDBRANCH  11  12
ENDBRANCH  10  11
ENDBRANCH   1  10
BRANCH   1  33
HETATM   33  C20 UNL     1      15.669  32.555  12.579  1.00  0.00     0.222 C 
HETATM   34  O1  UNL     1      15.118  32.779  11.469  1.00  0.00    -0.273 OA
HETATM   35  N9  UNL     1      17.055  32.808  12.718  1.00  0.00    -0.356 N 
ATOM     36  H9  UNL     1      17.524  32.639  13.608  1.00  0.00     0.162 HD
BRANCH  35  37
HETATM   37  C21 UNL     1      17.797  33.309  11.581  1.00  0.00     0.162 C 
BRANCH  37  38
HETATM   38  C22 UNL     1      17.622  34.791  11.443  1.00  0.00    -0.025 A 
HETATM   39  C23 UNL     1      17.414  35.376  10.217  1.00  0.00     0.014 A 
HETATM   40  C24 UNL     1      17.246  36.757  10.171  1.00  0.00     0.050 A 
HETATM   41  C25 UNL     1      17.283  37.547  11.300  1.00  0.00     0.111 A 
HETATM   42  N11 UNL     1      17.490  36.933  12.476  1.00  0.00    -0.351 N 
HETATM   43  C31 UNL     1      17.657  35.599  12.567  1.00  0.00     0.098 A 
ATOM     44  H11 UNL     1      17.521  37.494  13.327  1.00  0.00     0.166 HD
BRANCH  41  45
HETATM   45  N10 UNL     1      17.097  38.948  11.153  1.00  0.00    -0.319 N 
HETATM   46  C26 UNL     1      18.154  39.773  11.023  1.00  0.00     0.098 A 
HETATM   47  C27 UNL     1      18.057  41.131  10.879  1.00  0.00     0.018 A 
HETATM   48  C28 UNL     1      16.788  41.685  10.867  1.00  0.00     0.003 A 
HETATM   49  C29 UNL     1      15.700  40.854  10.998  1.00  0.00     0.018 A 
HETATM   50  C30 UNL     1      15.853  39.499  11.141  1.00  0.00     0.098 A 
ENDBRANCH  41  45
ENDBRANCH  37  38
ENDBRANCH  35  37
ENDBRANCH   1  33
TORSDOF 16
ENDMDL
MODEL 5
REMARK VINA RESULT: -9.421289625      1.747      8.535
REMARK  16 active torsions:
REMARK  status: ('A' for Active; 'I' for Inactive)
REMARK    1  A    between atoms: N3_4  and  C2_6 
REMARK    2  A    between atoms: C2_6  and  C3_7 
REMARK    3  A    between atoms: C3_7  and  C4_8 
REMARK    4  A    between atoms: C4_8  and  C5_9 
REMARK    5  A    between atoms: C5_9  and  C6_10 
REMARK    6  A    between atoms: C5_9  and  C20_33 
REMARK    7  A    between atoms: C6_10  and  C7_11 
REMARK    8  A    between atoms: C7_11  and  C8_12 
REMARK    9  A    between atoms: C8_12  and  N4_13 
REMARK       I    between atoms: C9_15  and  N6_17 
REMARK   10  A    between atoms: N6_17  and  C10_19 
REMARK   11  A    between atoms: C10_19  and  C11_20 
REMARK   12  A    between atoms: C11_20  and  C12_21 
REMARK   13  A    between atoms: C12_21  and  C13_22 
REMARK       I    between atoms: C20_33  and  N9_35 
REMARK   14  A    between atoms: N9_35  and  C21_37 
REMARK   15  A    between atoms: C21_37  and  C22_38 
REMARK   16  A    between atoms: C25_41  and  N10_42 
ROOT
HETATM    1  C5  UNL     1      17.062  34.869  12.234  1.00  0.00     0.078 C 
ENDROOT
BRANCH   1   2
HETATM    2  C4  UNL     1      17.746  36.136  11.788  1.00  0.00     0.015 C 
BRANCH   2   3
HETATM    3  C3  UNL     1      17.068  36.821  10.629  1.00  0.00     0.020 C 
BRANCH   3   4
HETATM    4  C2  UNL     1      16.660  38.205  11.160  1.00  0.00     0.122 C 
BRANCH   4   5
HETATM    5  N3  UNL     1      17.397  38.411  12.386  1.00  0.00    -0.367 N 
HETATM    6  C1  UNL     1      17.360  39.497  13.062  1.00  0.00     0.196 C 
HETATM    7  N1  UNL     1      16.539  40.559  12.564  1.00  0.00    -0.067 NA
HETATM    8  N2  UNL     1      18.073  39.711  14.256  1.00  0.00    -0.067 NA
ATOM      9  H3  UNL     1      17.978  37.648  12.733  1.00  0.00     0.161 HD
ENDBRANCH   4   5
ENDBRANCH   3   4
ENDBRANCH   2   3
ENDBRANCH   1   2
BRANCH   1  10
HETATM   10  C6  UNL     1      17.412  34.627  13.715  1.00  0.00     0.015 C 
BRANCH  10  11
HETATM   11  C7  UNL     1      18.572  35.456  14.166  1.00  0.00     0.020 C 
BRANCH  11  12
HETATM   12  C8  UNL     1      18.192  36.150  15.475  1.00  0.00     0.122 C 
BRANCH  12  13
HETATM   13  N4  UNL     1      17.156  35.400  16.069  1.00  0.00    -0.365 N 
HETATM   14  C9  UNL     1      17.110  34.831  17.211  1.00  0.00     0.183 C 
HETATM   15  N5  UNL     1      18.215  34.904  18.094  1.00  0.00    -0.064 NA
HETATM   16  N6  UNL     1      15.916  34.108  17.563  1.00  0.00    -0.365 N 
ATOM     17  H6  UNL     1      15.571  34.122  18.522  1.00  0.00     0.162 HD
ATOM     18  H4  UNL     1      16.316  35.296  15.499  1.00  0.00     0.162 HD
BRANCH  16  19
HETATM   19  C10 UNL     1      15.205  33.355  16.539  1.00  0.00     0.122 C 
BRANCH  19  20
HETATM   20  C11 UNL     1      15.648  31.906  16.716  1.00  0.00     0.027 C 
BRANCH  20  21
HETATM   21  C12 UNL     1      15.824  31.325  15.332  1.00  0.00     0.078 C 
BRANCH  21  22
HETATM   22  C13 UNL     1      14.746  30.307  15.076  1.00  0.00     0.082 A 
HETATM   23  N7  UNL     1      14.918  29.028  14.736  1.00  0.00    -0.344 N 
HETATM   24  C14 UNL     1      13.744  28.388  14.560  1.00  0.00     0.060 A 
ATOM     25  H7  UNL     1      15.831  28.587  14.624  1.00  0.00     0.167 HD
HETATM   26  C15 UNL     1      13.391  27.100  14.216  1.00  0.00     0.032 A 
HETATM   27  C19 UNL     1      12.772  29.357  14.814  1.00  0.00     0.060 A 
HETATM   28  C16 UNL     1      12.060  26.773  14.123  1.00  0.00     0.002 A 
HETATM   29  C17 UNL     1      11.077  27.707  14.367  1.00  0.00     0.002 A 
HETATM   30  C18 UNL     1      11.454  28.979  14.707  1.00  0.00     0.032 A 
HETATM   31  N8  UNL     1      13.411  30.509  15.125  1.00  0.00    -0.344 N 
ATOM     32  H8  UNL     1      12.956  31.392  15.359  1.00  0.00     0.167 HD
ENDBRANCH  21  22
ENDBRANCH  20  21
ENDBRANCH  19  20
ENDBRANCH  16  19
ENDBRANCH  12  13
ENDBRANCH  11  12
ENDBRANCH  10  11
ENDBRANCH   1  10
BRANCH   1  33
HETATM   33  C20 UNL     1      17.644  33.729  11.436  1.00  0.00     0.222 C 
HETATM   34  O1  UNL     1      18.860  33.778  11.112  1.00  0.00    -0.273 OA
HETATM   35  N9  UNL     1      16.876  32.608  11.043  1.00  0.00    -0.356 N 
ATOM     36  H9  UNL     1      15.890  32.541  11.296  1.00  0.00     0.162 HD
BRANCH  35  37
HETATM   37  C21 UNL     1      17.508  31.556  10.275  1.00  0.00     0.162 C 
BRANCH  37  38
HETATM   38  C22 UNL     1      16.564  30.413  10.058  1.00  0.00    -0.025 A 
HETATM   39  C23 UNL     1      16.159  30.048   8.796  1.00  0.00     0.014 A 
HETATM   40  C24 UNL     1      15.291  28.966   8.674  1.00  0.00     0.050 A 
HETATM   41  C25 UNL     1      14.830  28.260   9.764  1.00  0.00     0.111 A 
HETATM   42  N11 UNL     1      15.251  28.652  10.977  1.00  0.00    -0.351 N 
HETATM   43  C31 UNL     1      16.090  29.692  11.141  1.00  0.00     0.098 A 
ATOM     44  H11 UNL     1      14.924  28.145  11.800  1.00  0.00     0.166 HD
BRANCH  41  45
HETATM   45  N10 UNL     1      13.950  27.166   9.539  1.00  0.00    -0.319 N 
HETATM   46  C26 UNL     1      13.136  26.727  10.519  1.00  0.00     0.098 A 
HETATM   47  C27 UNL     1      12.261  25.681  10.381  1.00  0.00     0.018 A 
HETATM   48  C28 UNL     1      12.218  25.040   9.154  1.00  0.00     0.003 A 
HETATM   49  C29 UNL     1      13.044  25.479   8.146  1.00  0.00     0.018 A 
HETATM   50  C30 UNL     1      13.902  26.531   8.337  1.00  0.00     0.098 A 
ENDBRANCH  41  45
ENDBRANCH  37  38
ENDBRANCH  35  37
ENDBRANCH   1  33
TORSDOF 16
ENDMDL
