MODEL 1
REMARK VINA RESULT: -8.342508941      0.000      0.000
REMARK  15 active torsions:
REMARK  status: ('A' for Active; 'I' for Inactive)
REMARK    1  A    between atoms: N1_2  and  C3_4 
REMARK    2  A    between atoms: C3_4  and  C4_5 
REMARK    3  A    between atoms: C4_5  and  C5_6 
REMARK    4  A    between atoms: C5_6  and  C6_7 
REMARK    5  A    between atoms: C6_7  and  C7_8 
REMARK    6  A    between atoms: C6_7  and  N5_19 
REMARK    7  A    between atoms: C7_8  and  C8_9 
REMARK    8  A    between atoms: C8_9  and  C9_10 
REMARK    9  A    between atoms: C9_10  and  C10_11 
REMARK   10  A    between atoms: C10_11  and  N2_12 
REMARK       I    between atoms: N2_12  and  C11_14 
REMARK   11  A    between atoms: C13_22  and  C14_23 
REMARK   12  A    between atoms: C14_23  and  C15_24 
REMARK   13  A    between atoms: C15_24  and  C16_25 
REMARK   14  A    between atoms: C16_25  and  N6_26 
REMARK   15  A    between atoms: C18_34  and  C19_35 
ROOT
HETATM    1  N5  UNL     1      17.153  33.438  13.922  1.00  0.00    -0.311 N 
HETATM    2  C12 UNL     1      17.106  32.296  13.061  1.00  0.00     0.255 C 
HETATM    3  O1  UNL     1      17.996  32.392  12.218  1.00  0.00    -0.271 OA
HETATM    4  C13 UNL     1      16.261  31.065  12.955  1.00  0.00     0.278 C 
HETATM    5  N9  UNL     1      15.756  30.675  14.269  1.00  0.00    -0.052 N 
ATOM      6  H91 UNL     1      16.420  30.938  14.999  1.00  0.00     0.279 HD
ATOM      7  H92 UNL     1      15.777  29.661  14.374  1.00  0.00     0.279 HD
HETATM    8  C18 UNL     1      14.467  31.178  14.568  1.00  0.00     0.240 C 
HETATM    9  C25 UNL     1      14.351  32.182  15.671  1.00  0.00     0.080 C 
HETATM   10  C26 UNL     1      15.556  32.975  15.962  1.00  0.00    -0.029 A 
HETATM   11  C27 UNL     1      15.475  33.268  17.320  1.00  0.00     0.009 A 
HETATM   12  C28 UNL     1      16.434  34.015  17.970  1.00  0.00     0.001 A 
HETATM   13  C29 UNL     1      17.524  34.508  17.288  1.00  0.00     0.002 A 
HETATM   14  C30 UNL     1      17.635  34.234  15.937  1.00  0.00     0.030 A 
HETATM   15  C31 UNL     1      16.672  33.490  15.306  1.00  0.00     0.044 A 
ENDROOT
BRANCH   1  16
HETATM   16  C6  UNL     1      17.684  34.629  13.502  1.00  0.00     0.093 C 
BRANCH  16  17
HETATM   17  C5  UNL     1      19.098  34.876  13.090  1.00  0.00     0.027 C 
BRANCH  17  18
HETATM   18  C4  UNL     1      19.856  35.817  14.008  1.00  0.00     0.032 C 
BRANCH  18  19
HETATM   19  C3  UNL     1      19.861  37.240  13.578  1.00  0.00     0.271 C 
BRANCH  19  20
HETATM   20  N1  UNL     1      18.921  38.091  14.261  1.00  0.00     0.080 N 
HETATM   21  C1  UNL     1      18.596  37.693  15.585  1.00  0.00     0.309 C 
HETATM   22  C2  UNL     1      19.187  39.485  14.104  1.00  0.00     0.309 C 
ENDBRANCH  19  20
ENDBRANCH  18  19
ENDBRANCH  17  18
ENDBRANCH  16  17
BRANCH  16  23
HETATM   23  C7  UNL     1      16.866  35.048  12.268  1.00  0.00     0.026 C 
BRANCH  23  24
HETATM   24  C8  UNL     1      17.737  35.548  11.135  1.00  0.00     0.004 C 
BRANCH  24  25
HETATM   25  C9  UNL     1      16.978  36.700  10.486  1.00  0.00     0.020 C 
BRANCH  25  26
HETATM   26  C10 UNL     1      17.479  38.047  10.914  1.00  0.00     0.122 C 
BRANCH  26  27
HETATM   27  N2  UNL     1      16.496  38.758  11.711  1.00  0.00    -0.365 N 
HETATM   28  C11 UNL     1      15.734  39.779  11.073  1.00  0.00     0.181 C 
HETATM   29  N3  UNL     1      14.510  39.628  10.731  1.00  0.00    -0.374 N 
HETATM   30  N4  UNL     1      16.375  41.007  10.815  1.00  0.00    -0.064 NA
ATOM     31  H32 UNL     1      14.046  38.739  10.918  1.00  0.00     0.158 HD
ATOM     32  H31 UNL     1      13.965  40.360  10.274  1.00  0.00     0.158 HD
ATOM     33  H2  UNL     1      16.355  38.534  12.696  1.00  0.00     0.162 HD
ENDBRANCH  26  27
ENDBRANCH  25  26
ENDBRANCH  24  25
ENDBRANCH  23  24
ENDBRANCH  16  23
ENDBRANCH   1  16
BRANCH   4  34
HETATM   34  C14 UNL     1      17.096  30.029  12.285  1.00  0.00     0.044 C 
BRANCH  34  35
HETATM   35  C15 UNL     1      16.370  29.303  11.187  1.00  0.00     0.022 C 
BRANCH  35  36
HETATM   36  C16 UNL     1      16.281  30.252   9.997  1.00  0.00     0.122 C 
BRANCH  36  37
HETATM   37  N6  UNL     1      16.355  29.514   8.752  1.00  0.00    -0.367 N 
HETATM   38  C17 UNL     1      15.330  29.047   8.130  1.00  0.00     0.196 C 
HETATM   39  N7  UNL     1      13.993  29.196   8.586  1.00  0.00    -0.067 NA
HETATM   40  N8  UNL     1      15.569  28.350   6.927  1.00  0.00    -0.067 NA
ATOM     41  H6  UNL     1      17.276  29.354   8.344  1.00  0.00     0.161 HD
ENDBRANCH  36  37
ENDBRANCH  35  36
ENDBRANCH  34  35
ENDBRANCH   4  34
BRANCH   8  42
HETATM   42  C19 UNL     1      13.410  30.135  14.655  1.00  0.00     0.042 A 
HETATM   43  C20 UNL     1      12.939  29.619  15.844  1.00  0.00     0.027 A 
HETATM   44  C21 UNL     1      11.967  28.653  15.913  1.00  0.00     0.003 A 
HETATM   45  C22 UNL     1      11.439  28.177  14.734  1.00  0.00     0.017 A 
HETATM   46  C23 UNL     1      11.916  28.700  13.559  1.00  0.00     0.090 A 
HETATM   47  N10 UNL     1      12.881  29.656  13.533  1.00  0.00    -0.363 N 
HETATM   48  C24 UNL     1      13.300  30.115  12.256  1.00  0.00     0.155 C 
ENDBRANCH   8  42
TORSDOF 15
ENDMDL
MODEL 2
REMARK VINA RESULT: -8.039109456      2.765      8.329
REMARK  15 active torsions:
REMARK  status: ('A' for Active; 'I' for Inactive)
REMARK    1  A    between atoms: N1_2  and  C3_4 
REMARK    2  A    between atoms: C3_4  and  C4_5 
REMARK    3  A    between atoms: C4_5  and  C5_6 
REMARK    4  A    between atoms: C5_6  and  C6_7 
REMARK    5  A    between atoms: C6_7  and  C7_8 
REMARK    6  A    between atoms: C6_7  and  N5_19 
REMARK    7  A    between atoms: C7_8  and  C8_9 
REMARK    8  A    between atoms: C8_9  and  C9_10 
REMARK    9  A    between atoms: C9_10  and  C10_11 
REMARK   10  A    between atoms: C10_11  and  N2_12 
REMARK       I    between atoms: N2_12  and  C11_14 
REMARK   11  A    between atoms: C13_22  and  C14_23 
REMARK   12  A    between atoms: C14_23  and  C15_24 
REMARK   13  A    between atoms: C15_24  and  C16_25 
REMARK   14  A    between atoms: C16_25  and  N6_26 
REMARK   15  A    between atoms: C18_34  and  C19_35 
ROOT
HETATM    1  N5  UNL     1      14.130  29.210  13.506  1.00  0.00    -0.311 N 
HETATM    2  C12 UNL     1      15.064  29.963  12.727  1.00  0.00     0.255 C 
HETATM    3  O1  UNL     1      15.661  30.746  13.464  1.00  0.00    -0.271 OA
HETATM    4  C13 UNL     1      15.467  30.014  11.286  1.00  0.00     0.278 C 
HETATM    5  N9  UNL     1      15.285  28.709  10.657  1.00  0.00    -0.052 N 
ATOM      6  H91 UNL     1      15.428  27.962  11.337  1.00  0.00     0.279 HD
ATOM      7  H92 UNL     1      16.055  28.510  10.018  1.00  0.00     0.279 HD
HETATM    8  C18 UNL     1      14.042  28.550  10.000  1.00  0.00     0.240 C 
HETATM    9  C25 UNL     1      13.078  27.555  10.566  1.00  0.00     0.080 C 
HETATM   10  C26 UNL     1      13.218  27.254  12.000  1.00  0.00    -0.029 A 
HETATM   11  C27 UNL     1      12.787  25.938  12.135  1.00  0.00     0.009 A 
HETATM   12  C28 UNL     1      12.761  25.293  13.353  1.00  0.00     0.001 A 
HETATM   13  C29 UNL     1      13.167  25.939  14.500  1.00  0.00     0.002 A 
HETATM   14  C30 UNL     1      13.602  27.248  14.400  1.00  0.00     0.030 A 
HETATM   15  C31 UNL     1      13.620  27.874  13.180  1.00  0.00     0.044 A 
ENDROOT
BRANCH   1  16
HETATM   16  C6  UNL     1      13.617  29.700  14.679  1.00  0.00     0.093 C 
BRANCH  16  17
HETATM   17  C5  UNL     1      13.891  31.039  15.278  1.00  0.00     0.027 C 
BRANCH  17  18
HETATM   18  C4  UNL     1      14.582  30.986  16.628  1.00  0.00     0.032 C 
BRANCH  18  19
HETATM   19  C3  UNL     1      15.787  31.848  16.748  1.00  0.00     0.271 C 
BRANCH  19  20
HETATM   20  N1  UNL     1      15.544  33.175  17.253  1.00  0.00     0.080 N 
HETATM   21  C1  UNL     1      16.459  33.623  18.242  1.00  0.00     0.309 C 
HETATM   22  C2  UNL     1      15.246  34.132  16.236  1.00  0.00     0.309 C 
ENDBRANCH  19  20
ENDBRANCH  18  19
ENDBRANCH  17  18
ENDBRANCH  16  17
BRANCH  16  23
HETATM   23  C7  UNL     1      12.087  29.678  14.515  1.00  0.00     0.026 C 
BRANCH  23  24
HETATM   24  C8  UNL     1      11.374  29.249  15.781  1.00  0.00     0.004 C 
BRANCH  24  25
HETATM   25  C9  UNL     1      10.372  28.177  15.367  1.00  0.00     0.020 C 
BRANCH  25  26
HETATM   26  C10 UNL     1      10.029  28.227  13.909  1.00  0.00     0.122 C 
BRANCH  26  27
HETATM   27  N2  UNL     1       9.360  27.015  13.472  1.00  0.00    -0.365 N 
HETATM   28  C11 UNL     1       8.812  26.993  12.157  1.00  0.00     0.181 C 
HETATM   29  N3  UNL     1       9.355  26.365  11.184  1.00  0.00    -0.374 N 
HETATM   30  N4  UNL     1       7.615  27.702  11.937  1.00  0.00    -0.064 NA
ATOM     31  H32 UNL     1      10.222  25.851  11.343  1.00  0.00     0.158 HD
ATOM     32  H31 UNL     1       8.963  26.349  10.242  1.00  0.00     0.158 HD
ATOM     33  H2  UNL     1       9.284  26.205  14.087  1.00  0.00     0.162 HD
ENDBRANCH  26  27
ENDBRANCH  25  26
ENDBRANCH  24  25
ENDBRANCH  23  24
ENDBRANCH  16  23
ENDBRANCH   1  16
BRANCH   4  34
HETATM   34  C14 UNL     1      16.866  30.525  11.250  1.00  0.00     0.044 C 
BRANCH  34  35
HETATM   35  C15 UNL     1      17.063  31.638  10.260  1.00  0.00     0.022 C 
BRANCH  35  36
HETATM   36  C16 UNL     1      16.258  32.834  10.754  1.00  0.00     0.122 C 
BRANCH  36  37
HETATM   37  N6  UNL     1      16.718  33.251  12.064  1.00  0.00    -0.367 N 
HETATM   38  C17 UNL     1      17.401  34.321  12.280  1.00  0.00     0.196 C 
HETATM   39  N7  UNL     1      17.790  35.230  11.260  1.00  0.00    -0.067 NA
HETATM   40  N8  UNL     1      17.774  34.589  13.614  1.00  0.00    -0.067 NA
ATOM     41  H6  UNL     1      16.487  32.661  12.863  1.00  0.00     0.161 HD
ENDBRANCH  36  37
ENDBRANCH  35  36
ENDBRANCH  34  35
ENDBRANCH   4  34
BRANCH   8  42
HETATM   42  C19 UNL     1      14.143  28.441   8.520  1.00  0.00     0.042 A 
HETATM   43  C20 UNL     1      14.163  29.529   7.672  1.00  0.00     0.027 A 
HETATM   44  C21 UNL     1      14.252  29.418   6.307  1.00  0.00     0.003 A 
HETATM   45  C22 UNL     1      14.323  28.156   5.761  1.00  0.00     0.017 A 
HETATM   46  C23 UNL     1      14.303  27.083   6.616  1.00  0.00     0.090 A 
HETATM   47  N10 UNL     1      14.213  27.236   7.963  1.00  0.00    -0.363 N 
HETATM   48  C24 UNL     1      14.194  26.051   8.747  1.00  0.00     0.155 C 
ENDBRANCH   8  42
TORSDOF 15
ENDMDL
MODEL 3
REMARK VINA RESULT: -7.973131330      2.919      9.163
REMARK  15 active torsions:
REMARK  status: ('A' for Active; 'I' for Inactive)
REMARK    1  A    between atoms: N1_2  and  C3_4 
REMARK    2  A    between atoms: C3_4  and  C4_5 
REMARK    3  A    between atoms: C4_5  and  C5_6 
REMARK    4  A    between atoms: C5_6  and  C6_7 
REMARK    5  A    between atoms: C6_7  and  C7_8 
REMARK    6  A    between atoms: C6_7  and  N5_19 
REMARK    7  A    between atoms: C7_8  and  C8_9 
REMARK    8  A    between atoms: C8_9  and  C9_10 
REMARK    9  A    between atoms: C9_10  and  C10_11 
REMARK   10  A    between atoms: C10_11  and  N2_12 
REMARK       I    between atoms: N2_12  and  C11_14 
REMARK   11  A    between atoms: C13_22  and  C14_23 
REMARK   12  A    between atoms: C14_23  and  C15_24 
REMARK   13  A    between atoms: C15_24  and  C16_25 
REMARK   14  A    between atoms: C16_25  and  N6_26 
REMARK   15  A    between atoms: C18_34  and  C19_35 
ROOT
HETATM    1  N5  UNL     1      13.222  29.024  12.272  1.00  0.00    -0.311 N 
HETATM    2  C12 UNL     1      14.039  30.082  11.764  1.00  0.00     0.255 C 
HETATM    3  O1  UNL     1      14.122  29.974  10.542  1.00  0.00    -0.271 OA
HETATM    4  C13 UNL     1      14.781  31.242  12.350  1.00  0.00     0.278 C 
HETATM    5  N9  UNL     1      14.123  31.708  13.568  1.00  0.00    -0.052 N 
ATOM      6  H91 UNL     1      13.117  31.552  13.513  1.00  0.00     0.279 HD
ATOM      7  H92 UNL     1      14.139  32.727  13.615  1.00  0.00     0.279 HD
HETATM    8  C18 UNL     1      14.646  31.149  14.759  1.00  0.00     0.240 C 
HETATM    9  C25 UNL     1      13.759  30.237  15.547  1.00  0.00     0.080 C 
HETATM   10  C26 UNL     1      12.694  29.552  14.795  1.00  0.00    -0.029 A 
HETATM   11  C27 UNL     1      11.664  29.371  15.713  1.00  0.00     0.009 A 
HETATM   12  C28 UNL     1      10.482  28.747  15.379  1.00  0.00     0.001 A 
HETATM   13  C29 UNL     1      10.274  28.270  14.104  1.00  0.00     0.002 A 
HETATM   14  C30 UNL     1      11.278  28.435  13.167  1.00  0.00     0.030 A 
HETATM   15  C31 UNL     1      12.448  29.058  13.517  1.00  0.00     0.044 A 
ENDROOT
BRANCH   1  16
HETATM   16  C6  UNL     1      13.086  27.838  11.597  1.00  0.00     0.093 C 
BRANCH  16  17
HETATM   17  C5  UNL     1      13.972  27.327  10.511  1.00  0.00     0.027 C 
BRANCH  17  18
HETATM   18  C4  UNL     1      13.328  27.319   9.136  1.00  0.00     0.032 C 
BRANCH  18  19
HETATM   19  C3  UNL     1      14.279  27.189   8.001  1.00  0.00     0.271 C 
BRANCH  19  20
HETATM   20  N1  UNL     1      14.543  28.408   7.280  1.00  0.00     0.080 N 
HETATM   21  C1  UNL     1      13.465  29.331   7.234  1.00  0.00     0.309 C 
HETATM   22  C2  UNL     1      15.814  28.987   7.578  1.00  0.00     0.309 C 
ENDBRANCH  19  20
ENDBRANCH  18  19
ENDBRANCH  17  18
ENDBRANCH  16  17
BRANCH  16  23
HETATM   23  C7  UNL     1      13.143  26.733  12.666  1.00  0.00     0.026 C 
BRANCH  23  24
HETATM   24  C8  UNL     1      12.836  25.362  12.101  1.00  0.00     0.004 C 
BRANCH  24  25
HETATM   25  C9  UNL     1      11.317  25.235  12.086  1.00  0.00     0.020 C 
BRANCH  25  26
HETATM   26  C10 UNL     1      10.747  25.188  10.700  1.00  0.00     0.122 C 
BRANCH  26  27
HETATM   27  N2  UNL     1       9.534  25.978  10.590  1.00  0.00    -0.365 N 
HETATM   28  C11 UNL     1       8.493  25.487   9.750  1.00  0.00     0.181 C 
HETATM   29  N3  UNL     1       7.423  24.950  10.202  1.00  0.00    -0.374 N 
HETATM   30  N4  UNL     1       8.667  25.609   8.357  1.00  0.00    -0.064 NA
ATOM     31  H32 UNL     1       7.298  24.862  11.211  1.00  0.00     0.158 HD
ATOM     32  H31 UNL     1       6.678  24.598   9.600  1.00  0.00     0.158 HD
ATOM     33  H2  UNL     1       9.430  26.856  11.099  1.00  0.00     0.162 HD
ENDBRANCH  26  27
ENDBRANCH  25  26
ENDBRANCH  24  25
ENDBRANCH  23  24
ENDBRANCH  16  23
ENDBRANCH   1  16
BRANCH   4  34
HETATM   34  C14 UNL     1      14.888  32.270  11.277  1.00  0.00     0.044 C 
BRANCH  34  35
HETATM   35  C15 UNL     1      16.260  32.350  10.669  1.00  0.00     0.022 C 
BRANCH  35  36
HETATM   36  C16 UNL     1      16.554  33.822  10.407  1.00  0.00     0.122 C 
BRANCH  36  37
HETATM   37  N6  UNL     1      17.058  34.462  11.606  1.00  0.00    -0.367 N 
HETATM   38  C17 UNL     1      18.307  34.560  11.899  1.00  0.00     0.196 C 
HETATM   39  N7  UNL     1      19.353  34.051  11.083  1.00  0.00    -0.067 NA
HETATM   40  N8  UNL     1      18.637  35.213  13.105  1.00  0.00    -0.067 NA
ATOM     41  H6  UNL     1      16.381  34.860  12.257  1.00  0.00     0.161 HD
ENDBRANCH  36  37
ENDBRANCH  35  36
ENDBRANCH  34  35
ENDBRANCH   4  34
BRANCH   8  42
HETATM   42  C19 UNL     1      15.352  32.124  15.633  1.00  0.00     0.042 A 
HETATM   43  C20 UNL     1      14.778  32.718  16.738  1.00  0.00     0.027 A 
HETATM   44  C21 UNL     1      15.437  33.620  17.535  1.00  0.00     0.003 A 
HETATM   45  C22 UNL     1      16.735  33.948  17.211  1.00  0.00     0.017 A 
HETATM   46  C23 UNL     1      17.292  33.349  16.110  1.00  0.00     0.090 A 
HETATM   47  N10 UNL     1      16.606  32.460  15.346  1.00  0.00    -0.363 N 
HETATM   48  C24 UNL     1      17.286  31.911  14.226  1.00  0.00     0.155 C 
ENDBRANCH   8  42
TORSDOF 15
ENDMDL
MODEL 4
REMARK VINA RESULT: -7.924428135      1.970      2.597
REMARK  15 active torsions:
REMARK  status: ('A' for Active; 'I' for Inactive)
REMARK    1  A    between atoms: N1_2  and  C3_4 
REMARK    2  A    between atoms: C3_4  and  C4_5 
REMARK    3  A    between atoms: C4_5  and  C5_6 
REMARK    4  A    between atoms: C5_6  and  C6_7 
REMARK    5  A    between atoms: C6_7  and  C7_8 
REMARK    6  A    between atoms: C6_7  and  N5_19 
REMARK    7  A    between atoms: C7_8  and  C8_9 
REMARK    8  A    between atoms: C8_9  and  C9_10 
REMARK    9  A    between atoms: C9_10  and  C10_11 
REMARK   10  A    between atoms: C10_11  and  N2_12 
REMARK       I    between atoms: N2_12  and  C11_14 
REMARK   11  A    between atoms: C13_22  and  C14_23 
REMARK   12  A    between atoms: C14_23  and  C15_24 
REMARK   13  A    between atoms: C15_24  and  C16_25 
REMARK   14  A    between atoms: C16_25  and  N6_26 
REMARK   15  A    between atoms: C18_34  and  C19_35 
ROOT
HETATM    1  N5  UNL     1      17.805  35.066  13.995  1.00  0.00    -0.311 N 
HETATM    2  C12 UNL     1      17.829  34.066  12.973  1.00  0.00     0.255 C 
HETATM    3  O1  UNL     1      18.651  34.386  12.117  1.00  0.00    -0.271 OA
HETATM    4  C13 UNL     1      17.117  32.774  12.717  1.00  0.00     0.278 C 
HETATM    5  N9  UNL     1      16.738  32.140  13.977  1.00  0.00    -0.052 N 
ATOM      6  H91 UNL     1      17.412  32.368  14.708  1.00  0.00     0.279 HD
ATOM      7  H92 UNL     1      16.874  31.130  13.924  1.00  0.00     0.279 HD
HETATM    8  C18 UNL     1      15.422  32.441  14.404  1.00  0.00     0.240 C 
HETATM    9  C25 UNL     1      15.265  33.252  15.652  1.00  0.00     0.080 C 
HETATM   10  C26 UNL     1      16.393  34.128  16.008  1.00  0.00    -0.029 A 
HETATM   11  C27 UNL     1      16.364  34.206  17.397  1.00  0.00     0.009 A 
HETATM   12  C28 UNL     1      17.273  34.955  18.111  1.00  0.00     0.001 A 
HETATM   13  C29 UNL     1      18.261  35.666  17.466  1.00  0.00     0.002 A 
HETATM   14  C30 UNL     1      18.319  35.608  16.085  1.00  0.00     0.030 A 
HETATM   15  C31 UNL     1      17.405  34.859  15.391  1.00  0.00     0.044 A 
ENDROOT
BRANCH   1  16
HETATM   16  C6  UNL     1      18.178  36.360  13.739  1.00  0.00     0.093 C 
BRANCH  16  17
HETATM   17  C5  UNL     1      19.523  36.961  13.980  1.00  0.00     0.027 C 
BRANCH  17  18
HETATM   18  C4  UNL     1      19.521  38.477  14.056  1.00  0.00     0.032 C 
BRANCH  18  19
HETATM   19  C3  UNL     1      19.177  39.035  15.390  1.00  0.00     0.271 C 
BRANCH  19  20
HETATM   20  N1  UNL     1      17.775  39.283  15.608  1.00  0.00     0.080 N 
HETATM   21  C1  UNL     1      17.352  39.222  16.962  1.00  0.00     0.309 C 
HETATM   22  C2  UNL     1      17.268  40.397  14.872  1.00  0.00     0.309 C 
ENDBRANCH  19  20
ENDBRANCH  18  19
ENDBRANCH  17  18
ENDBRANCH  16  17
BRANCH  16  23
HETATM   23  C7  UNL     1      17.943  36.580  12.234  1.00  0.00     0.026 C 
BRANCH  23  24
HETATM   24  C8  UNL     1      17.051  37.770  11.954  1.00  0.00     0.004 C 
BRANCH  24  25
HETATM   25  C9  UNL     1      17.727  38.561  10.840  1.00  0.00     0.020 C 
BRANCH  25  26
HETATM   26  C10 UNL     1      17.585  40.045  11.004  1.00  0.00     0.122 C 
BRANCH  26  27
HETATM   27  N2  UNL     1      16.287  40.404  11.545  1.00  0.00    -0.365 N 
HETATM   28  C11 UNL     1      15.202  40.552  10.633  1.00  0.00     0.181 C 
HETATM   29  N3  UNL     1      14.273  39.682  10.503  1.00  0.00    -0.374 N 
HETATM   30  N4  UNL     1      15.168  41.719   9.845  1.00  0.00    -0.064 NA
ATOM     31  H32 UNL     1      14.298  38.837  11.074  1.00  0.00     0.158 HD
ATOM     32  H31 UNL     1      13.497  39.788   9.849  1.00  0.00     0.158 HD
ATOM     33  H2  UNL     1      16.155  40.545  12.547  1.00  0.00     0.162 HD
ENDBRANCH  26  27
ENDBRANCH  25  26
ENDBRANCH  24  25
ENDBRANCH  23  24
ENDBRANCH  16  23
ENDBRANCH   1  16
BRANCH   4  34
HETATM   34  C14 UNL     1      18.017  31.951  11.861  1.00  0.00     0.044 C 
BRANCH  34  35
HETATM   35  C15 UNL     1      17.327  31.384  10.652  1.00  0.00     0.022 C 
BRANCH  35  36
HETATM   36  C16 UNL     1      16.526  32.513  10.015  1.00  0.00     0.122 C 
BRANCH  36  37
HETATM   37  N6  UNL     1      17.392  33.372   9.232  1.00  0.00    -0.367 N 
HETATM   38  C17 UNL     1      17.157  34.616   9.004  1.00  0.00     0.196 C 
HETATM   39  N7  UNL     1      16.015  35.307   9.493  1.00  0.00    -0.067 NA
HETATM   40  N8  UNL     1      18.099  35.318   8.222  1.00  0.00    -0.067 NA
ATOM     41  H6  UNL     1      18.240  32.965   8.837  1.00  0.00     0.161 HD
ENDBRANCH  36  37
ENDBRANCH  35  36
ENDBRANCH  34  35
ENDBRANCH   4  34
BRANCH   8  42
HETATM   42  C19 UNL     1      14.491  31.281  14.377  1.00  0.00     0.042 A 
HETATM   43  C20 UNL     1      14.308  30.421  15.440  1.00  0.00     0.027 A 
HETATM   44  C21 UNL     1      13.449  29.351  15.402  1.00  0.00     0.003 A 
HETATM   45  C22 UNL     1      12.739  29.127  14.245  1.00  0.00     0.017 A 
HETATM   46  C23 UNL     1      12.931  29.991  13.196  1.00  0.00     0.090 A 
HETATM   47  N10 UNL     1      13.791  31.040  13.273  1.00  0.00    -0.363 N 
HETATM   48  C24 UNL     1      13.911  31.862  12.120  1.00  0.00     0.155 C 
ENDBRANCH   8  42
TORSDOF 15
ENDMDL
MODEL 5
REMARK VINA RESULT: -7.870985646      0.992      1.083
REMARK  15 active torsions:
REMARK  status: ('A' for Active; 'I' for Inactive)
REMARK    1  A    between atoms: N1_2  and  C3_4 
REMARK    2  A    between atoms: C3_4  and  C4_5 
REMARK    3  A    between atoms: C4_5  and  C5_6 
REMARK    4  A    between atoms: C5_6  and  C6_7 
REMARK    5  A    between atoms: C6_7  and  C7_8 
REMARK    6  A    between atoms: C6_7  and  N5_19 
REMARK    7  A    between atoms: C7_8  and  C8_9 
REMARK    8  A    between atoms: C8_9  and  C9_10 
REMARK    9  A    between atoms: C9_10  and  C10_11 
REMARK   10  A    between atoms: C10_11  and  N2_12 
REMARK       I    between atoms: N2_12  and  C11_14 
REMARK   11  A    between atoms: C13_22  and  C14_23 
REMARK   12  A    between atoms: C14_23  and  C15_24 
REMARK   13  A    between atoms: C15_24  and  C16_25 
REMARK   14  A    between atoms: C16_25  and  N6_26 
REMARK   15  A    between atoms: C18_34  and  C19_35 
ROOT
HETATM    1  N5  UNL     1      17.334  34.195  13.664  1.00  0.00    -0.311 N 
HETATM    2  C12 UNL     1      17.317  33.172  12.665  1.00  0.00     0.255 C 
HETATM    3  O1  UNL     1      18.139  33.448  11.793  1.00  0.00    -0.271 OA
HETATM    4  C13 UNL     1      16.564  31.896  12.446  1.00  0.00     0.278 C 
HETATM    5  N9  UNL     1      16.181  31.303  13.724  1.00  0.00    -0.052 N 
ATOM      6  H91 UNL     1      16.869  31.527  14.443  1.00  0.00     0.279 HD
ATOM      7  H92 UNL     1      16.286  30.289  13.693  1.00  0.00     0.279 HD
HETATM    8  C18 UNL     1      14.880  31.653  14.159  1.00  0.00     0.240 C 
HETATM    9  C25 UNL     1      14.761  32.496  15.389  1.00  0.00     0.080 C 
HETATM   10  C26 UNL     1      15.918  33.345  15.713  1.00  0.00    -0.029 A 
HETATM   11  C27 UNL     1      15.907  33.456  17.100  1.00  0.00     0.009 A 
HETATM   12  C28 UNL     1      16.847  34.193  17.787  1.00  0.00     0.001 A 
HETATM   13  C29 UNL     1      17.848  34.859  17.115  1.00  0.00     0.002 A 
HETATM   14  C30 UNL     1      17.888  34.768  15.736  1.00  0.00     0.030 A 
HETATM   15  C31 UNL     1      16.945  34.031  15.068  1.00  0.00     0.044 A 
ENDROOT
BRANCH   1  16
HETATM   16  C6  UNL     1      17.743  35.471  13.374  1.00  0.00     0.093 C 
BRANCH  16  17
HETATM   17  C5  UNL     1      19.143  35.917  13.113  1.00  0.00     0.027 C 
BRANCH  17  18
HETATM   18  C4  UNL     1      19.723  36.810  14.196  1.00  0.00     0.032 C 
BRANCH  18  19
HETATM   19  C3  UNL     1      19.265  38.223  14.152  1.00  0.00     0.271 C 
BRANCH  19  20
HETATM   20  N1  UNL     1      18.253  38.571  15.116  1.00  0.00     0.080 N 
HETATM   21  C1  UNL     1      18.619  38.378  16.474  1.00  0.00     0.309 C 
HETATM   22  C2  UNL     1      17.601  39.812  14.842  1.00  0.00     0.309 C 
ENDBRANCH  19  20
ENDBRANCH  18  19
ENDBRANCH  17  18
ENDBRANCH  16  17
BRANCH  16  23
HETATM   23  C7  UNL     1      16.985  35.881  12.100  1.00  0.00     0.026 C 
BRANCH  23  24
HETATM   24  C8  UNL     1      17.681  36.992  11.343  1.00  0.00     0.004 C 
BRANCH  24  25
HETATM   25  C9  UNL     1      16.594  37.981  10.936  1.00  0.00     0.020 C 
BRANCH  25  26
HETATM   26  C10 UNL     1      16.943  39.402  11.261  1.00  0.00     0.122 C 
BRANCH  26  27
HETATM   27  N2  UNL     1      15.778  40.160  11.680  1.00  0.00    -0.365 N 
HETATM   28  C11 UNL     1      14.780  40.441  10.702  1.00  0.00     0.181 C 
HETATM   29  N3  UNL     1      13.657  39.829  10.652  1.00  0.00    -0.374 N 
HETATM   30  N4  UNL     1      15.059  41.445   9.754  1.00  0.00    -0.064 NA
ATOM     31  H32 UNL     1      13.455  39.102  11.339  1.00  0.00     0.158 HD
ATOM     32  H31 UNL     1      12.943  40.030   9.952  1.00  0.00     0.158 HD
ATOM     33  H2  UNL     1      15.676  40.480  12.643  1.00  0.00     0.162 HD
ENDBRANCH  26  27
ENDBRANCH  25  26
ENDBRANCH  24  25
ENDBRANCH  23  24
ENDBRANCH  16  23
ENDBRANCH   1  16
BRANCH   4  34
HETATM   34  C14 UNL     1      17.429  31.028  11.599  1.00  0.00     0.044 C 
BRANCH  34  35
HETATM   35  C15 UNL     1      17.035  31.034  10.149  1.00  0.00     0.022 C 
BRANCH  35  36
HETATM   36  C16 UNL     1      16.405  29.681   9.844  1.00  0.00     0.122 C 
BRANCH  36  37
HETATM   37  N6  UNL     1      15.791  29.689   8.531  1.00  0.00    -0.367 N 
HETATM   38  C17 UNL     1      14.715  29.049   8.235  1.00  0.00     0.196 C 
HETATM   39  N7  UNL     1      13.990  28.251   9.161  1.00  0.00    -0.067 NA
HETATM   40  N8  UNL     1      14.243  29.159   6.910  1.00  0.00    -0.067 NA
ATOM     41  H6  UNL     1      16.240  30.236   7.796  1.00  0.00     0.161 HD
ENDBRANCH  36  37
ENDBRANCH  35  36
ENDBRANCH  34  35
ENDBRANCH   4  34
BRANCH   8  42
HETATM   42  C19 UNL     1      13.914  30.521  14.168  1.00  0.00     0.042 A 
HETATM   43  C20 UNL     1      13.561  29.825  15.305  1.00  0.00     0.027 A 
HETATM   44  C21 UNL     1      12.672  28.779  15.302  1.00  0.00     0.003 A 
HETATM   45  C22 UNL     1      12.108  28.409  14.102  1.00  0.00     0.017 A 
HETATM   46  C23 UNL     1      12.468  29.111  12.979  1.00  0.00     0.090 A 
HETATM   47  N10 UNL     1      13.353  30.141  13.024  1.00  0.00    -0.363 N 
HETATM   48  C24 UNL     1      13.653  30.788  11.796  1.00  0.00     0.155 C 
ENDBRANCH   8  42
TORSDOF 15
ENDMDL
