MODEL 1
REMARK VINA RESULT: -7.621394813      0.000      0.000
REMARK  18 active torsions:
REMARK  status: ('A' for Active; 'I' for Inactive)
REMARK    1  A    between atoms: O1_2  and  C2_3 
REMARK    2  A    between atoms: C2_3  and  C3_4 
REMARK    3  A    between atoms: C9_10  and  O2_11 
REMARK    4  A    between atoms: C10_14  and  C11_15 
REMARK    5  A    between atoms: C12_19  and  C13_20 
REMARK    6  A    between atoms: C13_20  and  O7_21 
REMARK    7  A    between atoms: C14_23  and  O8_24 
REMARK    8  A    between atoms: O8_24  and  C15_25 
REMARK    9  A    between atoms: C15_25  and  C16_26 
REMARK   10  A    between atoms: C16_26  and  O9_28 
REMARK   11  A    between atoms: C19_32  and  O11_33 
REMARK   12  A    between atoms: O11_33  and  C20_34 
REMARK   13  A    between atoms: C20_34  and  C21_36 
REMARK   14  A    between atoms: C21_36  and  O13_37 
REMARK   15  A    between atoms: C21_36  and  C22_39 
REMARK   16  A    between atoms: C22_39  and  O14_40 
REMARK   17  A    between atoms: C22_39  and  C23_42 
REMARK   18  A    between atoms: C23_42  and  O15_43 
ROOT
HETATM    1  C3  UNL     1       3.296  26.985  26.337  1.00  0.00     0.096 C 
HETATM    2  C4  UNL     1       4.023  26.048  27.253  1.00  0.00     0.025 C 
HETATM    3  C5  UNL     1       3.583  24.645  27.168  1.00  0.00     0.009 C 
HETATM    4  C6  UNL     1       2.059  24.486  27.353  1.00  0.00     0.025 C 
HETATM    5  C7  UNL     1       1.433  25.380  26.271  1.00  0.00     0.028 C 
HETATM    6  C8  UNL     1      -0.059  25.346  26.587  1.00  0.00     0.079 C 
HETATM    7  C9  UNL     1      -0.586  24.008  26.111  1.00  0.00     0.198 C 
HETATM    8  O3  UNL     1       0.051  23.532  25.021  1.00  0.00    -0.284 OA
HETATM    9  C10 UNL     1       0.840  22.436  25.175  1.00  0.00     0.381 C 
HETATM   10  O6  UNL     1       0.120  21.342  25.731  1.00  0.00    -0.313 OA
HETATM   11  C12 UNL     1       0.628  21.066  26.999  1.00  0.00     0.191 C 
HETATM   12  C14 UNL     1       0.559  22.419  27.724  1.00  0.00     0.147 C 
HETATM   13  C18 UNL     1       1.814  23.066  27.210  1.00  0.00     0.172 C 
HETATM   14  O10 UNL     1       2.004  22.692  25.875  1.00  0.00    -0.315 OA
HETATM   15  C19 UNL     1      -0.687  23.089  27.306  1.00  0.00     0.234 C 
HETATM   16  C24 UNL     1       1.836  26.804  26.530  1.00  0.00     0.150 C 
HETATM   17  O16 UNL     1       1.177  27.722  25.724  1.00  0.00    -0.348 OA
HETATM   18  C25 UNL     1       1.334  28.965  26.337  1.00  0.00     0.166 C 
HETATM   19  C26 UNL     1       0.620  29.032  27.664  1.00  0.00     0.079 C 
HETATM   20  C27 UNL     1       0.729  30.073  25.466  1.00  0.00     0.079 C 
HETATM   21  O17 UNL     1       2.679  29.329  26.546  1.00  0.00    -0.283 OA
HETATM   22  C28 UNL     1       3.614  28.380  26.850  1.00  0.00     0.275 C 
HETATM   23  O18 UNL     1       4.658  28.578  27.491  1.00  0.00    -0.264 OA
ENDROOT
BRANCH  15  24
HETATM   24  O11 UNL     1      -1.823  22.293  27.064  1.00  0.00    -0.305 OA
BRANCH  24  25
HETATM   25  C20 UNL     1      -2.984  22.373  27.819  1.00  0.00     0.291 C 
HETATM   26  O12 UNL     1      -3.758  23.344  27.485  1.00  0.00    -0.262 OA
BRANCH  25  27
HETATM   27  C21 UNL     1      -3.335  21.459  28.896  1.00  0.00     0.248 C 
BRANCH  27  28
HETATM   28  O13 UNL     1      -2.192  20.923  29.521  1.00  0.00    -0.383 OA
ATOM     29  H13 UNL     1      -2.379  20.625  30.404  1.00  0.00     0.210 HD
ENDBRANCH  27  28
BRANCH  27  30
HETATM   30  C22 UNL     1      -4.233  20.323  28.564  1.00  0.00     0.180 C 
BRANCH  30  31
HETATM   31  O14 UNL     1      -5.576  20.616  28.901  1.00  0.00    -0.390 OA
ATOM     32  H14 UNL     1      -6.166  20.384  28.193  1.00  0.00     0.210 HD
ENDBRANCH  30  31
BRANCH  30  33
HETATM   33  C23 UNL     1      -3.870  19.082  29.377  1.00  0.00     0.199 C 
BRANCH  33  34
HETATM   34  O15 UNL     1      -3.133  18.175  28.655  1.00  0.00    -0.398 OA
ATOM     35  H15 UNL     1      -2.810  17.458  29.189  1.00  0.00     0.209 HD
ENDBRANCH  33  34
ENDBRANCH  30  33
ENDBRANCH  27  30
ENDBRANCH  25  27
ENDBRANCH  24  25
ENDBRANCH  15  24
BRANCH   7  36
HETATM   36  O2  UNL     1      -1.918  24.286  25.726  1.00  0.00    -0.363 OA
ATOM     37  H2  UNL     1      -2.283  23.430  25.535  1.00  0.00     0.213 HD
ENDBRANCH   7  36
BRANCH  12  38
HETATM   38  O8  UNL     1       0.534  22.109  29.037  1.00  0.00    -0.369 OA
BRANCH  38  39
HETATM   39  C15 UNL     1       1.368  22.600  29.945  1.00  0.00     0.200 C 
BRANCH  39  40
HETATM   40  C16 UNL     1       0.635  22.584  31.309  1.00  0.00     0.138 C 
HETATM   41  C17 UNL     1       0.732  21.149  31.811  1.00  0.00     0.041 C 
BRANCH  40  42
HETATM   42  O9  UNL     1      -0.681  22.960  31.177  1.00  0.00    -0.394 OA
ATOM     43  H9  UNL     1      -0.778  23.904  31.222  1.00  0.00     0.210 HD
ENDBRANCH  40  42
ENDBRANCH  39  40
ENDBRANCH  38  39
ENDBRANCH  12  38
BRANCH  11  44
HETATM   44  C13 UNL     1       0.036  19.913  27.646  1.00  0.00     0.199 C 
BRANCH  44  45
HETATM   45  O7  UNL     1      -1.120  19.387  27.120  1.00  0.00    -0.398 OA
ATOM     46  H7  UNL     1      -1.938  19.844  27.275  1.00  0.00     0.209 HD
ENDBRANCH  44  45
ENDBRANCH  11  44
BRANCH   9  47
HETATM   47  C11 UNL     1       1.254  21.969  23.827  1.00  0.00     0.271 C 
HETATM   48  O4  UNL     1       1.892  22.738  23.071  1.00  0.00    -0.642 OA
HETATM   49  O5  UNL     1       0.968  20.701  23.349  1.00  0.00    -0.642 OA
ENDBRANCH   9  47
BRANCH   1  50
HETATM   50  C2  UNL     1       3.758  26.963  24.929  1.00  0.00     0.189 C 
BRANCH  50  51
HETATM   51  O1  UNL     1       4.123  28.152  24.369  1.00  0.00    -0.395 OA
HETATM   52  C1  UNL     1       3.393  28.307  23.183  1.00  0.00     0.201 C 
ENDBRANCH  50  51
ENDBRANCH   1  50
TORSDOF 18
ENDMDL
MODEL 2
REMARK VINA RESULT: -7.557883287      1.163      1.593
REMARK  18 active torsions:
REMARK  status: ('A' for Active; 'I' for Inactive)
REMARK    1  A    between atoms: O1_2  and  C2_3 
REMARK    2  A    between atoms: C2_3  and  C3_4 
REMARK    3  A    between atoms: C9_10  and  O2_11 
REMARK    4  A    between atoms: C10_14  and  C11_15 
REMARK    5  A    between atoms: C12_19  and  C13_20 
REMARK    6  A    between atoms: C13_20  and  O7_21 
REMARK    7  A    between atoms: C14_23  and  O8_24 
REMARK    8  A    between atoms: O8_24  and  C15_25 
REMARK    9  A    between atoms: C15_25  and  C16_26 
REMARK   10  A    between atoms: C16_26  and  O9_28 
REMARK   11  A    between atoms: C19_32  and  O11_33 
REMARK   12  A    between atoms: O11_33  and  C20_34 
REMARK   13  A    between atoms: C20_34  and  C21_36 
REMARK   14  A    between atoms: C21_36  and  O13_37 
REMARK   15  A    between atoms: C21_36  and  C22_39 
REMARK   16  A    between atoms: C22_39  and  O14_40 
REMARK   17  A    between atoms: C22_39  and  C23_42 
REMARK   18  A    between atoms: C23_42  and  O15_43 
ROOT
HETATM    1  C3  UNL     1       1.466  28.188  26.148  1.00  0.00     0.096 C 
HETATM    2  C4  UNL     1       2.416  27.596  27.143  1.00  0.00     0.025 C 
HETATM    3  C5  UNL     1       2.465  26.124  27.142  1.00  0.00     0.009 C 
HETATM    4  C6  UNL     1       1.070  25.481  27.299  1.00  0.00     0.025 C 
HETATM    5  C7  UNL     1       0.237  26.058  26.143  1.00  0.00     0.028 C 
HETATM    6  C8  UNL     1      -1.175  25.551  26.422  1.00  0.00     0.079 C 
HETATM    7  C9  UNL     1      -1.211  24.089  26.024  1.00  0.00     0.198 C 
HETATM    8  O3  UNL     1      -0.404  23.791  24.985  1.00  0.00    -0.284 OA
HETATM    9  C10 UNL     1       0.693  23.027  25.233  1.00  0.00     0.381 C 
HETATM   10  O6  UNL     1       0.346  21.789  25.843  1.00  0.00    -0.313 OA
HETATM   11  C12 UNL     1       0.857  21.767  27.139  1.00  0.00     0.191 C 
HETATM   12  C14 UNL     1       0.315  23.059  27.769  1.00  0.00     0.147 C 
HETATM   13  C18 UNL     1       1.311  24.054  27.245  1.00  0.00     0.172 C 
HETATM   14  O10 UNL     1       1.674  23.691  25.943  1.00  0.00    -0.315 OA
HETATM   15  C19 UNL     1      -1.061  23.257  27.275  1.00  0.00     0.234 C 
HETATM   16  C24 UNL     1       0.138  27.547  26.315  1.00  0.00     0.150 C 
HETATM   17  O16 UNL     1      -0.747  28.150  25.432  1.00  0.00    -0.348 OA
HETATM   18  C25 UNL     1      -1.035  29.407  25.964  1.00  0.00     0.166 C 
HETATM   19  C26 UNL     1      -1.792  29.308  27.265  1.00  0.00     0.079 C 
HETATM   20  C27 UNL     1      -1.929  30.203  25.005  1.00  0.00     0.079 C 
HETATM   21  O17 UNL     1       0.105  30.205  26.183  1.00  0.00    -0.283 OA
HETATM   22  C28 UNL     1       1.285  29.636  26.574  1.00  0.00     0.275 C 
HETATM   23  O18 UNL     1       2.175  30.203  27.226  1.00  0.00    -0.264 OA
ENDROOT
BRANCH  15  24
HETATM   24  O11 UNL     1      -1.861  22.118  27.059  1.00  0.00    -0.305 OA
BRANCH  24  25
HETATM   25  C20 UNL     1      -3.032  21.865  27.759  1.00  0.00     0.291 C 
HETATM   26  O12 UNL     1      -4.076  22.410  27.244  1.00  0.00    -0.262 OA
BRANCH  25  27
HETATM   27  C21 UNL     1      -3.115  21.057  28.966  1.00  0.00     0.248 C 
BRANCH  27  28
HETATM   28  O13 UNL     1      -1.925  21.117  29.719  1.00  0.00    -0.383 OA
ATOM     29  H13 UNL     1      -2.067  21.510  30.573  1.00  0.00     0.210 HD
ENDBRANCH  27  28
BRANCH  27  30
HETATM   30  C22 UNL     1      -3.468  19.623  28.808  1.00  0.00     0.180 C 
BRANCH  30  31
HETATM   31  O14 UNL     1      -2.926  19.091  27.614  1.00  0.00    -0.390 OA
ATOM     32  H14 UNL     1      -3.531  19.190  26.888  1.00  0.00     0.210 HD
ENDBRANCH  30  31
BRANCH  30  33
HETATM   33  C23 UNL     1      -4.980  19.441  28.687  1.00  0.00     0.199 C 
BRANCH  33  34
HETATM   34  O15 UNL     1      -5.679  20.556  29.081  1.00  0.00    -0.398 OA
ATOM     35  H15 UNL     1      -6.109  20.993  28.355  1.00  0.00     0.209 HD
ENDBRANCH  33  34
ENDBRANCH  30  33
ENDBRANCH  27  30
ENDBRANCH  25  27
ENDBRANCH  24  25
ENDBRANCH  15  24
BRANCH   7  36
HETATM   36  O2  UNL     1      -2.541  23.891  25.587  1.00  0.00    -0.363 OA
ATOM     37  H2  UNL     1      -2.483  23.131  25.020  1.00  0.00     0.213 HD
ENDBRANCH   7  36
BRANCH  12  38
HETATM   38  O8  UNL     1       0.332  22.832  29.100  1.00  0.00    -0.369 OA
BRANCH  38  39
HETATM   39  C15 UNL     1       1.325  23.173  29.911  1.00  0.00     0.200 C 
BRANCH  39  40
HETATM   40  C16 UNL     1       0.848  22.921  31.363  1.00  0.00     0.138 C 
HETATM   41  C17 UNL     1       1.171  21.462  31.655  1.00  0.00     0.041 C 
BRANCH  40  42
HETATM   42  O9  UNL     1      -0.501  23.152  31.496  1.00  0.00    -0.394 OA
ATOM     43  H9  UNL     1      -0.744  23.276  32.406  1.00  0.00     0.210 HD
ENDBRANCH  40  42
ENDBRANCH  39  40
ENDBRANCH  38  39
ENDBRANCH  12  38
BRANCH  11  44
HETATM   44  C13 UNL     1       0.646  20.521  27.848  1.00  0.00     0.199 C 
BRANCH  44  45
HETATM   45  O7  UNL     1      -0.284  19.636  27.355  1.00  0.00    -0.398 OA
ATOM     46  H7  UNL     1       0.021  18.806  27.007  1.00  0.00     0.209 HD
ENDBRANCH  44  45
ENDBRANCH  11  44
BRANCH   9  47
HETATM   47  C11 UNL     1       1.299  22.649  23.930  1.00  0.00     0.271 C 
HETATM   48  O4  UNL     1       0.748  23.001  22.862  1.00  0.00    -0.642 OA
HETATM   49  O5  UNL     1       2.468  21.913  23.831  1.00  0.00    -0.642 OA
ENDBRANCH   9  47
BRANCH   1  50
HETATM   50  C2  UNL     1       1.974  28.242  24.757  1.00  0.00     0.189 C 
BRANCH  50  51
HETATM   51  O1  UNL     1       3.323  28.153  24.576  1.00  0.00    -0.395 OA
HETATM   52  C1  UNL     1       3.576  28.233  23.201  1.00  0.00     0.201 C 
ENDBRANCH  50  51
ENDBRANCH   1  50
TORSDOF 18
ENDMDL
MODEL 3
REMARK VINA RESULT: -7.485428631      0.895      1.233
REMARK  18 active torsions:
REMARK  status: ('A' for Active; 'I' for Inactive)
REMARK    1  A    between atoms: O1_2  and  C2_3 
REMARK    2  A    between atoms: C2_3  and  C3_4 
REMARK    3  A    between atoms: C9_10  and  O2_11 
REMARK    4  A    between atoms: C10_14  and  C11_15 
REMARK    5  A    between atoms: C12_19  and  C13_20 
REMARK    6  A    between atoms: C13_20  and  O7_21 
REMARK    7  A    between atoms: C14_23  and  O8_24 
REMARK    8  A    between atoms: O8_24  and  C15_25 
REMARK    9  A    between atoms: C15_25  and  C16_26 
REMARK   10  A    between atoms: C16_26  and  O9_28 
REMARK   11  A    between atoms: C19_32  and  O11_33 
REMARK   12  A    between atoms: O11_33  and  C20_34 
REMARK   13  A    between atoms: C20_34  and  C21_36 
REMARK   14  A    between atoms: C21_36  and  O13_37 
REMARK   15  A    between atoms: C21_36  and  C22_39 
REMARK   16  A    between atoms: C22_39  and  O14_40 
REMARK   17  A    between atoms: C22_39  and  C23_42 
REMARK   18  A    between atoms: C23_42  and  O15_43 
ROOT
HETATM    1  C3  UNL     1       3.370  27.074  26.338  1.00  0.00     0.096 C 
HETATM    2  C4  UNL     1       4.121  26.143  27.239  1.00  0.00     0.025 C 
HETATM    3  C5  UNL     1       3.728  24.728  27.123  1.00  0.00     0.009 C 
HETATM    4  C6  UNL     1       2.208  24.516  27.295  1.00  0.00     0.025 C 
HETATM    5  C7  UNL     1       1.561  25.412  26.227  1.00  0.00     0.028 C 
HETATM    6  C8  UNL     1       0.068  25.324  26.532  1.00  0.00     0.079 C 
HETATM    7  C9  UNL     1      -0.412  23.979  26.024  1.00  0.00     0.198 C 
HETATM    8  O3  UNL     1       0.246  23.547  24.929  1.00  0.00    -0.284 OA
HETATM    9  C10 UNL     1       1.069  22.474  25.066  1.00  0.00     0.381 C 
HETATM   10  O6  UNL     1       0.382  21.346  25.595  1.00  0.00    -0.313 OA
HETATM   11  C12 UNL     1       0.891  21.060  26.860  1.00  0.00     0.191 C 
HETATM   12  C14 UNL     1       0.773  22.395  27.613  1.00  0.00     0.147 C 
HETATM   13  C18 UNL     1       2.010  23.092  27.120  1.00  0.00     0.172 C 
HETATM   14  O10 UNL     1       2.220  22.753  25.779  1.00  0.00    -0.315 OA
HETATM   15  C19 UNL     1      -0.491  23.034  27.200  1.00  0.00     0.234 C 
HETATM   16  C24 UNL     1       1.916  26.843  26.517  1.00  0.00     0.150 C 
HETATM   17  O16 UNL     1       1.232  27.756  25.726  1.00  0.00    -0.348 OA
HETATM   18  C25 UNL     1       1.345  28.990  26.365  1.00  0.00     0.166 C 
HETATM   19  C26 UNL     1       0.622  29.007  27.689  1.00  0.00     0.079 C 
HETATM   20  C27 UNL     1       0.710  30.096  25.513  1.00  0.00     0.079 C 
HETATM   21  O17 UNL     1       2.677  29.392  26.591  1.00  0.00    -0.283 OA
HETATM   22  C28 UNL     1       3.640  28.468  26.882  1.00  0.00     0.275 C 
HETATM   23  O18 UNL     1       4.673  28.686  27.533  1.00  0.00    -0.264 OA
ENDROOT
BRANCH  15  24
HETATM   24  O11 UNL     1      -1.599  22.207  26.934  1.00  0.00    -0.305 OA
BRANCH  24  25
HETATM   25  C20 UNL     1      -2.757  22.216  27.697  1.00  0.00     0.291 C 
HETATM   26  O12 UNL     1      -3.461  23.284  27.566  1.00  0.00    -0.262 OA
BRANCH  25  27
HETATM   27  C21 UNL     1      -3.178  21.134  28.576  1.00  0.00     0.248 C 
BRANCH  27  28
HETATM   28  O13 UNL     1      -4.580  20.995  28.602  1.00  0.00    -0.383 OA
ATOM     29  H13 UNL     1      -4.843  20.099  28.780  1.00  0.00     0.210 HD
ENDBRANCH  27  28
BRANCH  27  30
HETATM   30  C22 UNL     1      -2.710  21.175  29.985  1.00  0.00     0.180 C 
BRANCH  30  31
HETATM   31  O14 UNL     1      -2.004  22.371  30.256  1.00  0.00    -0.390 OA
ATOM     32  H14 UNL     1      -2.256  22.736  31.096  1.00  0.00     0.210 HD
ENDBRANCH  30  31
BRANCH  30  33
HETATM   33  C23 UNL     1      -1.722  20.045  30.268  1.00  0.00     0.199 C 
BRANCH  33  34
HETATM   34  O15 UNL     1      -0.742  20.410  31.159  1.00  0.00    -0.398 OA
ATOM     35  H15 UNL     1      -0.922  20.111  32.043  1.00  0.00     0.209 HD
ENDBRANCH  33  34
ENDBRANCH  30  33
ENDBRANCH  27  30
ENDBRANCH  25  27
ENDBRANCH  24  25
ENDBRANCH  15  24
BRANCH   7  36
HETATM   36  O2  UNL     1      -1.750  24.223  25.636  1.00  0.00    -0.363 OA
ATOM     37  H2  UNL     1      -1.703  24.292  24.690  1.00  0.00     0.213 HD
ENDBRANCH   7  36
BRANCH  12  38
HETATM   38  O8  UNL     1       0.751  22.058  28.919  1.00  0.00    -0.369 OA
BRANCH  38  39
HETATM   39  C15 UNL     1       1.813  22.042  29.713  1.00  0.00     0.200 C 
BRANCH  39  40
HETATM   40  C16 UNL     1       1.649  23.195  30.735  1.00  0.00     0.138 C 
HETATM   41  C17 UNL     1       2.611  22.877  31.871  1.00  0.00     0.041 C 
BRANCH  40  42
HETATM   42  O9  UNL     1       0.358  23.271  31.203  1.00  0.00    -0.394 OA
ATOM     43  H9  UNL     1       0.279  23.913  31.900  1.00  0.00     0.210 HD
ENDBRANCH  40  42
ENDBRANCH  39  40
ENDBRANCH  38  39
ENDBRANCH  12  38
BRANCH  11  44
HETATM   44  C13 UNL     1       0.331  19.876  27.480  1.00  0.00     0.199 C 
BRANCH  44  45
HETATM   45  O7  UNL     1      -0.759  19.280  26.892  1.00  0.00    -0.398 OA
ATOM     46  H7  UNL     1      -0.741  18.341  26.749  1.00  0.00     0.209 HD
ENDBRANCH  44  45
ENDBRANCH  11  44
BRANCH   9  47
HETATM   47  C11 UNL     1       1.507  22.049  23.712  1.00  0.00     0.271 C 
HETATM   48  O4  UNL     1       0.740  22.204  22.733  1.00  0.00    -0.642 OA
HETATM   49  O5  UNL     1       2.744  21.478  23.466  1.00  0.00    -0.642 OA
ENDBRANCH   9  47
BRANCH   1  50
HETATM   50  C2  UNL     1       3.841  27.097  24.933  1.00  0.00     0.189 C 
BRANCH  50  51
HETATM   51  O1  UNL     1       4.061  28.317  24.363  1.00  0.00    -0.395 OA
HETATM   52  C1  UNL     1       3.408  28.332  23.124  1.00  0.00     0.201 C 
ENDBRANCH  50  51
ENDBRANCH   1  50
TORSDOF 18
ENDMDL
MODEL 4
REMARK VINA RESULT: -7.325911296      2.346      7.857
REMARK  18 active torsions:
REMARK  status: ('A' for Active; 'I' for Inactive)
REMARK    1  A    between atoms: O1_2  and  C2_3 
REMARK    2  A    between atoms: C2_3  and  C3_4 
REMARK    3  A    between atoms: C9_10  and  O2_11 
REMARK    4  A    between atoms: C10_14  and  C11_15 
REMARK    5  A    between atoms: C12_19  and  C13_20 
REMARK    6  A    between atoms: C13_20  and  O7_21 
REMARK    7  A    between atoms: C14_23  and  O8_24 
REMARK    8  A    between atoms: O8_24  and  C15_25 
REMARK    9  A    between atoms: C15_25  and  C16_26 
REMARK   10  A    between atoms: C16_26  and  O9_28 
REMARK   11  A    between atoms: C19_32  and  O11_33 
REMARK   12  A    between atoms: O11_33  and  C20_34 
REMARK   13  A    between atoms: C20_34  and  C21_36 
REMARK   14  A    between atoms: C21_36  and  O13_37 
REMARK   15  A    between atoms: C21_36  and  C22_39 
REMARK   16  A    between atoms: C22_39  and  O14_40 
REMARK   17  A    between atoms: C22_39  and  C23_42 
REMARK   18  A    between atoms: C23_42  and  O15_43 
ROOT
HETATM    1  C3  UNL     1       1.106  20.137  27.814  1.00  0.00     0.096 C 
HETATM    2  C4  UNL     1       0.786  20.241  26.354  1.00  0.00     0.025 C 
HETATM    3  C5  UNL     1       1.449  21.359  25.661  1.00  0.00     0.009 C 
HETATM    4  C6  UNL     1       1.206  22.718  26.352  1.00  0.00     0.025 C 
HETATM    5  C7  UNL     1       1.702  22.523  27.793  1.00  0.00     0.028 C 
HETATM    6  C8  UNL     1       1.290  23.811  28.500  1.00  0.00     0.079 C 
HETATM    7  C9  UNL     1       2.263  24.888  28.066  1.00  0.00     0.198 C 
HETATM    8  O3  UNL     1       3.508  24.428  27.822  1.00  0.00    -0.284 OA
HETATM    9  C10 UNL     1       3.942  24.425  26.535  1.00  0.00     0.381 C 
HETATM   10  O6  UNL     1       3.870  25.721  25.951  1.00  0.00    -0.313 OA
HETATM   11  C12 UNL     1       2.919  25.704  24.933  1.00  0.00     0.191 C 
HETATM   12  C14 UNL     1       1.659  25.149  25.616  1.00  0.00     0.147 C 
HETATM   13  C18 UNL     1       1.949  23.675  25.559  1.00  0.00     0.172 C 
HETATM   14  O10 UNL     1       3.320  23.474  25.748  1.00  0.00    -0.315 OA
HETATM   15  C19 UNL     1       1.606  25.707  26.981  1.00  0.00     0.234 C 
HETATM   16  C24 UNL     1       0.871  21.456  28.450  1.00  0.00     0.150 C 
HETATM   17  O16 UNL     1       1.108  21.328  29.812  1.00  0.00    -0.348 OA
HETATM   18  C25 UNL     1       0.020  20.629  30.334  1.00  0.00     0.166 C 
HETATM   19  C26 UNL     1      -1.259  21.424  30.236  1.00  0.00     0.079 C 
HETATM   20  C27 UNL     1       0.234  20.339  31.825  1.00  0.00     0.079 C 
HETATM   21  O17 UNL     1      -0.196  19.378  29.724  1.00  0.00    -0.283 OA
HETATM   22  C28 UNL     1       0.054  19.204  28.392  1.00  0.00     0.275 C 
HETATM   23  O18 UNL     1      -0.501  18.371  27.659  1.00  0.00    -0.264 OA
ENDROOT
BRANCH  15  24
HETATM   24  O11 UNL     1       2.066  27.023  27.181  1.00  0.00    -0.305 OA
BRANCH  24  25
HETATM   25  C20 UNL     1       1.223  28.121  27.263  1.00  0.00     0.291 C 
HETATM   26  O12 UNL     1       0.010  27.827  27.570  1.00  0.00    -0.262 OA
BRANCH  25  27
HETATM   27  C21 UNL     1       1.635  29.498  27.036  1.00  0.00     0.248 C 
BRANCH  27  28
HETATM   28  O13 UNL     1       2.824  29.810  27.725  1.00  0.00    -0.383 OA
ATOM     29  H13 UNL     1       2.648  30.177  28.584  1.00  0.00     0.210 HD
ENDBRANCH  27  28
BRANCH  27  30
HETATM   30  C22 UNL     1       0.650  30.568  27.344  1.00  0.00     0.180 C 
BRANCH  30  31
HETATM   31  O14 UNL     1      -0.447  30.526  26.452  1.00  0.00    -0.390 OA
ATOM     32  H14 UNL     1      -0.743  31.401  26.231  1.00  0.00     0.210 HD
ENDBRANCH  30  31
BRANCH  30  33
HETATM   33  C23 UNL     1       1.270  31.952  27.165  1.00  0.00     0.199 C 
BRANCH  33  34
HETATM   34  O15 UNL     1       1.292  32.676  28.333  1.00  0.00    -0.398 OA
ATOM     35  H15 UNL     1       1.281  33.614  28.182  1.00  0.00     0.209 HD
ENDBRANCH  33  34
ENDBRANCH  30  33
ENDBRANCH  27  30
ENDBRANCH  25  27
ENDBRANCH  24  25
ENDBRANCH  15  24
BRANCH   7  36
HETATM   36  O2  UNL     1       2.348  25.740  29.192  1.00  0.00    -0.363 OA
ATOM     37  H2  UNL     1       2.233  25.153  29.930  1.00  0.00     0.213 HD
ENDBRANCH   7  36
BRANCH  12  38
HETATM   38  O8  UNL     1       0.631  25.591  24.862  1.00  0.00    -0.369 OA
BRANCH  38  39
HETATM   39  C15 UNL     1      -0.491  24.918  24.646  1.00  0.00     0.200 C 
BRANCH  39  40
HETATM   40  C16 UNL     1      -1.437  25.189  25.843  1.00  0.00     0.138 C 
HETATM   41  C17 UNL     1      -2.582  24.197  25.696  1.00  0.00     0.041 C 
BRANCH  40  42
HETATM   42  O9  UNL     1      -1.912  26.480  25.824  1.00  0.00    -0.394 OA
ATOM     43  H9  UNL     1      -2.595  26.607  26.472  1.00  0.00     0.210 HD
ENDBRANCH  40  42
ENDBRANCH  39  40
ENDBRANCH  38  39
ENDBRANCH  12  38
BRANCH  11  44
HETATM   44  C13 UNL     1       2.805  26.947  24.196  1.00  0.00     0.199 C 
BRANCH  44  45
HETATM   45  O7  UNL     1       2.731  26.892  22.824  1.00  0.00    -0.398 OA
ATOM     46  H7  UNL     1       2.131  26.272  22.427  1.00  0.00     0.209 HD
ENDBRANCH  44  45
ENDBRANCH  11  44
BRANCH   9  47
HETATM   47  C11 UNL     1       5.389  24.091  26.534  1.00  0.00     0.271 C 
HETATM   48  O4  UNL     1       6.124  24.508  25.608  1.00  0.00    -0.642 OA
HETATM   49  O5  UNL     1       5.985  23.326  27.523  1.00  0.00    -0.642 OA
ENDBRANCH   9  47
BRANCH   1  50
HETATM   50  C2  UNL     1       2.410  19.506  28.123  1.00  0.00     0.189 C 
BRANCH  50  51
HETATM   51  O1  UNL     1       2.841  18.513  27.291  1.00  0.00    -0.395 OA
HETATM   52  C1  UNL     1       3.363  17.486  28.088  1.00  0.00     0.201 C 
ENDBRANCH  50  51
ENDBRANCH   1  50
TORSDOF 18
ENDMDL
MODEL 5
REMARK VINA RESULT: -7.323467307      1.352      1.768
REMARK  18 active torsions:
REMARK  status: ('A' for Active; 'I' for Inactive)
REMARK    1  A    between atoms: O1_2  and  C2_3 
REMARK    2  A    between atoms: C2_3  and  C3_4 
REMARK    3  A    between atoms: C9_10  and  O2_11 
REMARK    4  A    between atoms: C10_14  and  C11_15 
REMARK    5  A    between atoms: C12_19  and  C13_20 
REMARK    6  A    between atoms: C13_20  and  O7_21 
REMARK    7  A    between atoms: C14_23  and  O8_24 
REMARK    8  A    between atoms: O8_24  and  C15_25 
REMARK    9  A    between atoms: C15_25  and  C16_26 
REMARK   10  A    between atoms: C16_26  and  O9_28 
REMARK   11  A    between atoms: C19_32  and  O11_33 
REMARK   12  A    between atoms: O11_33  and  C20_34 
REMARK   13  A    between atoms: C20_34  and  C21_36 
REMARK   14  A    between atoms: C21_36  and  O13_37 
REMARK   15  A    between atoms: C21_36  and  C22_39 
REMARK   16  A    between atoms: C22_39  and  O14_40 
REMARK   17  A    between atoms: C22_39  and  C23_42 
REMARK   18  A    between atoms: C23_42  and  O15_43 
ROOT
HETATM    1  C3  UNL     1       1.426  28.363  26.174  1.00  0.00     0.096 C 
HETATM    2  C4  UNL     1       2.407  27.826  27.169  1.00  0.00     0.025 C 
HETATM    3  C5  UNL     1       2.554  26.361  27.156  1.00  0.00     0.009 C 
HETATM    4  C6  UNL     1       1.204  25.625  27.298  1.00  0.00     0.025 C 
HETATM    5  C7  UNL     1       0.341  26.156  26.143  1.00  0.00     0.028 C 
HETATM    6  C8  UNL     1      -1.036  25.554  26.409  1.00  0.00     0.079 C 
HETATM    7  C9  UNL     1      -0.973  24.097  25.997  1.00  0.00     0.198 C 
HETATM    8  O3  UNL     1      -0.141  23.862  24.961  1.00  0.00    -0.284 OA
HETATM    9  C10 UNL     1       1.002  23.170  25.209  1.00  0.00     0.381 C 
HETATM   10  O6  UNL     1       0.735  21.906  25.806  1.00  0.00    -0.313 OA
HETATM   11  C12 UNL     1       1.240  21.906  27.105  1.00  0.00     0.191 C 
HETATM   12  C14 UNL     1       0.609  23.154  27.743  1.00  0.00     0.147 C 
HETATM   13  C18 UNL     1       1.540  24.218  27.233  1.00  0.00     0.172 C 
HETATM   14  O10 UNL     1       1.934  23.892  25.931  1.00  0.00    -0.315 OA
HETATM   15  C19 UNL     1      -0.774  23.264  27.242  1.00  0.00     0.234 C 
HETATM   16  C24 UNL     1       0.143  27.634  26.327  1.00  0.00     0.150 C 
HETATM   17  O16 UNL     1      -0.776  28.185  25.445  1.00  0.00    -0.348 OA
HETATM   18  C25 UNL     1      -1.149  29.415  25.986  1.00  0.00     0.166 C 
HETATM   19  C26 UNL     1      -1.905  29.254  27.281  1.00  0.00     0.079 C 
HETATM   20  C27 UNL     1      -2.089  30.159  25.028  1.00  0.00     0.079 C 
HETATM   21  O17 UNL     1      -0.066  30.285  26.218  1.00  0.00    -0.283 OA
HETATM   22  C28 UNL     1       1.147  29.792  26.611  1.00  0.00     0.275 C 
HETATM   23  O18 UNL     1       1.994  30.410  27.274  1.00  0.00    -0.264 OA
ENDROOT
BRANCH  15  24
HETATM   24  O11 UNL     1      -1.496  22.077  27.011  1.00  0.00    -0.305 OA
BRANCH  24  25
HETATM   25  C20 UNL     1      -2.565  21.670  27.796  1.00  0.00     0.291 C 
HETATM   26  O12 UNL     1      -3.439  22.589  28.006  1.00  0.00    -0.262 OA
BRANCH  25  27
HETATM   27  C21 UNL     1      -2.723  20.333  28.347  1.00  0.00     0.248 C 
BRANCH  27  28
HETATM   28  O13 UNL     1      -4.031  19.841  28.162  1.00  0.00    -0.383 OA
ATOM     29  H13 UNL     1      -4.485  20.300  27.464  1.00  0.00     0.210 HD
ENDBRANCH  27  28
BRANCH  27  30
HETATM   30  C22 UNL     1      -2.374  20.136  29.778  1.00  0.00     0.180 C 
BRANCH  30  31
HETATM   31  O14 UNL     1      -1.644  21.237  30.283  1.00  0.00    -0.390 OA
ATOM     32  H14 UNL     1      -0.718  21.034  30.348  1.00  0.00     0.210 HD
ENDBRANCH  30  31
BRANCH  30  33
HETATM   33  C23 UNL     1      -1.462  18.923  29.958  1.00  0.00     0.199 C 
BRANCH  33  34
HETATM   34  O15 UNL     1      -1.427  18.119  28.844  1.00  0.00    -0.398 OA
ATOM     35  H15 UNL     1      -0.834  17.384  28.943  1.00  0.00     0.209 HD
ENDBRANCH  33  34
ENDBRANCH  30  33
ENDBRANCH  27  30
ENDBRANCH  25  27
ENDBRANCH  24  25
ENDBRANCH  15  24
BRANCH   7  36
HETATM   36  O2  UNL     1      -2.284  23.814  25.551  1.00  0.00    -0.363 OA
ATOM     37  H2  UNL     1      -2.435  22.923  25.840  1.00  0.00     0.213 HD
ENDBRANCH   7  36
BRANCH  12  38
HETATM   38  O8  UNL     1       0.634  22.916  29.071  1.00  0.00    -0.369 OA
BRANCH  38  39
HETATM   39  C15 UNL     1       1.575  23.352  29.899  1.00  0.00     0.200 C 
BRANCH  39  40
HETATM   40  C16 UNL     1       1.110  23.036  31.342  1.00  0.00     0.138 C 
HETATM   41  C17 UNL     1       1.427  21.563  31.563  1.00  0.00     0.041 C 
BRANCH  40  42
HETATM   42  O9  UNL     1      -0.236  23.268  31.498  1.00  0.00    -0.394 OA
ATOM     43  H9  UNL     1      -0.430  24.198  31.499  1.00  0.00     0.210 HD
ENDBRANCH  40  42
ENDBRANCH  39  40
ENDBRANCH  38  39
ENDBRANCH  12  38
BRANCH  11  44
HETATM   44  C13 UNL     1       1.108  20.642  27.801  1.00  0.00     0.199 C 
BRANCH  44  45
HETATM   45  O7  UNL     1       0.447  19.613  27.173  1.00  0.00    -0.398 OA
ATOM     46  H7  UNL     1      -0.415  19.370  27.487  1.00  0.00     0.209 HD
ENDBRANCH  44  45
ENDBRANCH  11  44
BRANCH   9  47
HETATM   47  C11 UNL     1       1.639  22.846  23.907  1.00  0.00     0.271 C 
HETATM   48  O4  UNL     1       1.354  23.519  22.889  1.00  0.00    -0.642 OA
HETATM   49  O5  UNL     1       2.553  21.816  23.753  1.00  0.00    -0.642 OA
ENDBRANCH   9  47
BRANCH   1  50
HETATM   50  C2  UNL     1       1.936  28.463  24.787  1.00  0.00     0.189 C 
BRANCH  50  51
HETATM   51  O1  UNL     1       3.251  28.163  24.577  1.00  0.00    -0.395 OA
HETATM   52  C1  UNL     1       3.472  28.157  23.194  1.00  0.00     0.201 C 
ENDBRANCH  50  51
ENDBRANCH   1  50
TORSDOF 18
ENDMDL
