MODEL 1
REMARK VINA RESULT: -9.599856860      0.000      0.000
REMARK  13 active torsions:
REMARK  status: ('A' for Active; 'I' for Inactive)
REMARK    1  A    between atoms: N1_1  and  C1_4 
REMARK    2  A    between atoms: C2_7  and  N3_8 
REMARK    3  A    between atoms: C4_14  and  C5_15 
REMARK       I    between atoms: C5_15  and  N5_17 
REMARK    4  A    between atoms: N5_17  and  C6_19 
REMARK    5  A    between atoms: C8_21  and  O4_22 
REMARK    6  A    between atoms: O4_22  and  C9_23 
REMARK    7  A    between atoms: C9_23  and  C10_24 
REMARK    8  A    between atoms: C12_30  and  C13_31 
REMARK    9  A    between atoms: C14_34  and  C15_35 
REMARK   10  A    between atoms: C15_35  and  S1_36 
REMARK   11  A    between atoms: S1_36  and  C16_37 
REMARK   12  A    between atoms: C17_42  and  S2_43 
REMARK   13  A    between atoms: S2_43  and  N9_44 
ROOT
HETATM    1  C6  UNL     1       3.366  23.085  29.295  1.00  0.00     0.103 C 
HETATM    2  C7  UNL     1       2.653  21.973  28.582  1.00  0.00     0.060 C 
HETATM    3  C8  UNL     1       3.099  22.130  27.176  1.00  0.00     0.147 C 
HETATM    4  C11 UNL     1       3.363  23.581  26.957  1.00  0.00     0.127 C 
HETATM    5  N6  UNL     1       2.311  24.119  26.160  1.00  0.00    -0.376 N 
ATOM      6  H6  UNL     1       1.549  23.452  26.033  1.00  0.00     0.160 HD
HETATM    7  C12 UNL     1       2.052  25.371  25.488  1.00  0.00     0.110 C 
HETATM    8  C14 UNL     1       2.307  26.539  26.015  1.00  0.00    -0.028 C 
HETATM    9  C18 UNL     1       2.959  26.845  27.344  1.00  0.00     0.111 C 
HETATM   10  S4  UNL     1       2.417  25.584  28.522  1.00  0.00    -0.156 SA
HETATM   11  C19 UNL     1       3.552  24.178  28.313  1.00  0.00     0.095 C 
ENDROOT
BRANCH   1  12
HETATM   12  N5  UNL     1       2.749  23.547  30.496  1.00  0.00    -0.350 N 
HETATM   13  C5  UNL     1       3.061  23.008  31.782  1.00  0.00     0.272 C 
HETATM   14  O3  UNL     1       3.917  22.098  31.799  1.00  0.00    -0.266 OA
ATOM     15  H5  UNL     1       2.056  24.294  30.434  1.00  0.00     0.163 HD
BRANCH  13  16
HETATM   16  C4  UNL     1       2.453  23.455  33.012  1.00  0.00     0.144 A 
HETATM   17  C1  UNL     1       1.110  23.308  33.278  1.00  0.00     0.133 A 
HETATM   18  N2  UNL     1       0.558  23.761  34.471  1.00  0.00    -0.321 N 
HETATM   19  C2  UNL     1       1.325  24.355  35.393  1.00  0.00     0.190 A 
ATOM     20  H2  UNL     1      -0.440  23.639  34.645  1.00  0.00     0.169 HD
HETATM   21  C3  UNL     1       2.663  24.495  35.113  1.00  0.00     0.143 A 
HETATM   22  N4  UNL     1       3.218  24.070  33.978  1.00  0.00    -0.355 N 
ATOM     23  H4  UNL     1       4.217  24.201  33.823  1.00  0.00     0.165 HD
BRANCH  17  24
HETATM   24  N1  UNL     1       0.319  22.766  32.485  1.00  0.00    -0.383 N 
ATOM     25  H12 UNL     1       0.389  21.783  32.218  1.00  0.00     0.157 HD
ATOM     26  H11 UNL     1      -0.418  23.364  32.113  1.00  0.00     0.157 HD
ENDBRANCH  17  24
BRANCH  19  27
HETATM   27  N3  UNL     1       0.762  24.818  36.616  1.00  0.00    -0.096 N 
HETATM   28  O1  UNL     1       1.382  25.563  37.389  1.00  0.00    -0.530 OA
HETATM   29  O2  UNL     1      -0.510  24.439  36.962  1.00  0.00    -0.530 OA
ENDBRANCH  19  27
ENDBRANCH  13  16
ENDBRANCH   1  12
BRANCH   3  30
HETATM   30  O4  UNL     1       4.146  21.300  26.807  1.00  0.00    -0.373 OA
BRANCH  30  31
HETATM   31  C9  UNL     1       3.807  20.399  25.817  1.00  0.00     0.281 C 
BRANCH  31  32
HETATM   32  C10 UNL     1       4.309  20.917  24.517  1.00  0.00     0.197 C 
HETATM   33  O5  UNL     1       3.551  21.168  23.528  1.00  0.00    -0.646 OA
HETATM   34  O6  UNL     1       5.674  21.161  24.307  1.00  0.00    -0.646 OA
ENDBRANCH  31  32
ENDBRANCH  30  31
ENDBRANCH   3  30
BRANCH   7  35
HETATM   35  C13 UNL     1       1.403  25.232  24.199  1.00  0.00     0.226 C 
HETATM   36  O7  UNL     1       0.124  25.072  24.217  1.00  0.00    -0.643 OA
HETATM   37  O8  UNL     1       1.915  25.244  22.937  1.00  0.00    -0.643 OA
ENDBRANCH   7  35
BRANCH   8  38
HETATM   38  C15 UNL     1       2.023  27.755  25.257  1.00  0.00     0.119 C 
BRANCH  38  39
HETATM   39  S1  UNL     1       1.733  29.238  26.181  1.00  0.00    -0.099 SA
BRANCH  39  40
HETATM   40  C16 UNL     1       0.476  30.340  25.611  1.00  0.00     0.129 A 
HETATM   41  N7  UNL     1      -0.602  30.817  26.243  1.00  0.00    -0.287 N 
HETATM   42  N8  UNL     1      -1.391  31.596  25.658  1.00  0.00    -0.281 N 
ATOM     43  H7  UNL     1      -0.783  30.544  27.210  1.00  0.00     0.188 HD
HETATM   44  C17 UNL     1      -1.169  31.961  24.398  1.00  0.00     0.208 A 
ATOM     45  H8  UNL     1      -2.210  31.952  26.151  1.00  0.00     0.188 HD
HETATM   46  S3  UNL     1       0.275  31.110  24.067  1.00  0.00    -0.031 SA
BRANCH  44  47
HETATM   47  S2  UNL     1      -2.126  33.021  23.367  1.00  0.00     0.280 S 
HETATM   48  O9  UNL     1      -3.510  33.148  23.926  1.00  0.00    -0.199 OA
HETATM   49  O10 UNL     1      -2.206  32.441  22.001  1.00  0.00    -0.199 OA
BRANCH  47  50
HETATM   50  N9  UNL     1      -1.399  34.580  23.254  1.00  0.00    -0.323 N 
ATOM     51  H92 UNL     1      -0.524  34.833  23.713  1.00  0.00     0.169 HD
ATOM     52  H91 UNL     1      -1.963  35.199  22.673  1.00  0.00     0.169 HD
ENDBRANCH  47  50
ENDBRANCH  44  47
ENDBRANCH  39  40
ENDBRANCH  38  39
ENDBRANCH   8  38
TORSDOF 13
ENDMDL
MODEL 2
REMARK VINA RESULT: -9.324382119      1.306      1.630
REMARK  13 active torsions:
REMARK  status: ('A' for Active; 'I' for Inactive)
REMARK    1  A    between atoms: N1_1  and  C1_4 
REMARK    2  A    between atoms: C2_7  and  N3_8 
REMARK    3  A    between atoms: C4_14  and  C5_15 
REMARK       I    between atoms: C5_15  and  N5_17 
REMARK    4  A    between atoms: N5_17  and  C6_19 
REMARK    5  A    between atoms: C8_21  and  O4_22 
REMARK    6  A    between atoms: O4_22  and  C9_23 
REMARK    7  A    between atoms: C9_23  and  C10_24 
REMARK    8  A    between atoms: C12_30  and  C13_31 
REMARK    9  A    between atoms: C14_34  and  C15_35 
REMARK   10  A    between atoms: C15_35  and  S1_36 
REMARK   11  A    between atoms: S1_36  and  C16_37 
REMARK   12  A    between atoms: C17_42  and  S2_43 
REMARK   13  A    between atoms: S2_43  and  N9_44 
ROOT
HETATM    1  C6  UNL     1       3.795  23.566  29.268  1.00  0.00     0.103 C 
HETATM    2  C7  UNL     1       3.301  22.350  28.538  1.00  0.00     0.060 C 
HETATM    3  C8  UNL     1       3.740  22.590  27.142  1.00  0.00     0.147 C 
HETATM    4  C11 UNL     1       3.752  24.066  26.931  1.00  0.00     0.127 C 
HETATM    5  N6  UNL     1       2.638  24.417  26.114  1.00  0.00    -0.376 N 
ATOM      6  H6  UNL     1       2.007  23.629  25.970  1.00  0.00     0.160 HD
HETATM    7  C12 UNL     1       2.178  25.608  25.439  1.00  0.00     0.110 C 
HETATM    8  C14 UNL     1       2.216  26.800  25.973  1.00  0.00    -0.028 C 
HETATM    9  C18 UNL     1       2.777  27.208  27.315  1.00  0.00     0.111 C 
HETATM   10  S4  UNL     1       2.440  25.865  28.480  1.00  0.00    -0.156 SA
HETATM   11  C19 UNL     1       3.807  24.680  28.292  1.00  0.00     0.095 C 
ENDROOT
BRANCH   1  12
HETATM   12  N5  UNL     1       3.083  23.907  30.456  1.00  0.00    -0.350 N 
HETATM   13  C5  UNL     1       3.250  23.200  31.687  1.00  0.00     0.272 C 
HETATM   14  O3  UNL     1       4.068  22.255  31.666  1.00  0.00    -0.266 OA
ATOM     15  H5  UNL     1       2.427  24.688  30.427  1.00  0.00     0.163 HD
BRANCH  13  16
HETATM   16  C4  UNL     1       2.544  23.523  32.903  1.00  0.00     0.144 A 
HETATM   17  C1  UNL     1       1.196  23.297  33.066  1.00  0.00     0.133 A 
HETATM   18  N2  UNL     1       0.547  23.630  34.250  1.00  0.00    -0.321 N 
HETATM   19  C2  UNL     1       1.225  24.182  35.265  1.00  0.00     0.190 A 
ATOM     20  H2  UNL     1      -0.453  23.452  34.347  1.00  0.00     0.169 HD
HETATM   21  C3  UNL     1       2.569  24.401  35.087  1.00  0.00     0.143 A 
HETATM   22  N4  UNL     1       3.215  24.092  33.963  1.00  0.00    -0.355 N 
ATOM     23  H4  UNL     1       4.215  24.277  33.886  1.00  0.00     0.165 HD
BRANCH  17  24
HETATM   24  N1  UNL     1       0.484  22.785  32.183  1.00  0.00    -0.383 N 
ATOM     25  H12 UNL     1      -0.416  23.175  31.902  1.00  0.00     0.157 HD
ATOM     26  H11 UNL     1       0.858  21.944  31.743  1.00  0.00     0.157 HD
ENDBRANCH  17  24
BRANCH  19  27
HETATM   27  N3  UNL     1       0.563  24.523  36.479  1.00  0.00    -0.096 N 
HETATM   28  O1  UNL     1       0.948  25.452  37.203  1.00  0.00    -0.530 OA
HETATM   29  O2  UNL     1      -0.542  23.810  36.870  1.00  0.00    -0.530 OA
ENDBRANCH  19  27
ENDBRANCH  13  16
ENDBRANCH   1  12
BRANCH   3  30
HETATM   30  O4  UNL     1       4.923  21.957  26.793  1.00  0.00    -0.373 OA
BRANCH  30  31
HETATM   31  C9  UNL     1       5.845  22.804  26.209  1.00  0.00     0.281 C 
BRANCH  31  32
HETATM   32  C10 UNL     1       7.060  22.839  27.064  1.00  0.00     0.197 C 
HETATM   33  O5  UNL     1       7.060  22.496  28.289  1.00  0.00    -0.646 OA
HETATM   34  O6  UNL     1       8.298  23.261  26.558  1.00  0.00    -0.646 OA
ENDBRANCH  31  32
ENDBRANCH  30  31
ENDBRANCH   3  30
BRANCH   7  35
HETATM   35  C13 UNL     1       1.589  25.366  24.137  1.00  0.00     0.226 C 
HETATM   36  O7  UNL     1       0.361  24.972  24.129  1.00  0.00    -0.643 OA
HETATM   37  O8  UNL     1       2.113  25.485  22.885  1.00  0.00    -0.643 OA
ENDBRANCH   7  35
BRANCH   8  38
HETATM   38  C15 UNL     1       1.738  27.952  25.212  1.00  0.00     0.119 C 
BRANCH  38  39
HETATM   39  S1  UNL     1       1.533  29.476  26.090  1.00  0.00    -0.099 SA
BRANCH  39  40
HETATM   40  C16 UNL     1       0.294  30.601  25.522  1.00  0.00     0.129 A 
HETATM   41  N7  UNL     1      -0.913  30.878  26.028  1.00  0.00    -0.287 N 
HETATM   42  N8  UNL     1      -1.659  31.717  25.469  1.00  0.00    -0.281 N 
ATOM     43  H7  UNL     1      -1.228  30.403  26.874  1.00  0.00     0.188 HD
HETATM   44  C17 UNL     1      -1.263  32.344  24.365  1.00  0.00     0.208 A 
ATOM     45  H8  UNL     1      -2.578  31.918  25.864  1.00  0.00     0.188 HD
HETATM   46  S3  UNL     1       0.287  31.660  24.146  1.00  0.00    -0.031 SA
BRANCH  44  47
HETATM   47  S2  UNL     1      -2.125  33.539  23.401  1.00  0.00     0.280 S 
HETATM   48  O9  UNL     1      -1.195  34.657  23.040  1.00  0.00    -0.199 OA
HETATM   49  O10 UNL     1      -3.259  34.088  24.191  1.00  0.00    -0.199 OA
BRANCH  47  50
HETATM   50  N9  UNL     1      -2.758  32.824  21.966  1.00  0.00    -0.323 N 
ATOM     51  H92 UNL     1      -3.718  32.492  21.873  1.00  0.00     0.169 HD
ATOM     52  H91 UNL     1      -2.044  32.782  21.238  1.00  0.00     0.169 HD
ENDBRANCH  47  50
ENDBRANCH  44  47
ENDBRANCH  39  40
ENDBRANCH  38  39
ENDBRANCH   8  38
TORSDOF 13
ENDMDL
MODEL 3
REMARK VINA RESULT: -9.080216118      5.013     10.425
REMARK  13 active torsions:
REMARK  status: ('A' for Active; 'I' for Inactive)
REMARK    1  A    between atoms: N1_1  and  C1_4 
REMARK    2  A    between atoms: C2_7  and  N3_8 
REMARK    3  A    between atoms: C4_14  and  C5_15 
REMARK       I    between atoms: C5_15  and  N5_17 
REMARK    4  A    between atoms: N5_17  and  C6_19 
REMARK    5  A    between atoms: C8_21  and  O4_22 
REMARK    6  A    between atoms: O4_22  and  C9_23 
REMARK    7  A    between atoms: C9_23  and  C10_24 
REMARK    8  A    between atoms: C12_30  and  C13_31 
REMARK    9  A    between atoms: C14_34  and  C15_35 
REMARK   10  A    between atoms: C15_35  and  S1_36 
REMARK   11  A    between atoms: S1_36  and  C16_37 
REMARK   12  A    between atoms: C17_42  and  S2_43 
REMARK   13  A    between atoms: S2_43  and  N9_44 
ROOT
HETATM    1  C6  UNL     1       2.663  27.259  25.210  1.00  0.00     0.103 C 
HETATM    2  C7  UNL     1       3.507  27.208  26.451  1.00  0.00     0.060 C 
HETATM    3  C8  UNL     1       3.776  25.760  26.621  1.00  0.00     0.147 C 
HETATM    4  C11 UNL     1       2.605  25.026  26.060  1.00  0.00     0.127 C 
HETATM    5  N6  UNL     1       1.837  24.502  27.140  1.00  0.00    -0.376 N 
ATOM      6  H6  UNL     1       2.161  24.851  28.043  1.00  0.00     0.160 HD
HETATM    7  C12 UNL     1       0.717  23.601  27.279  1.00  0.00     0.110 C 
HETATM    8  C14 UNL     1      -0.326  23.622  26.492  1.00  0.00    -0.028 C 
HETATM    9  C18 UNL     1      -0.569  24.490  25.279  1.00  0.00     0.111 C 
HETATM   10  S4  UNL     1       0.161  26.112  25.614  1.00  0.00    -0.156 SA
HETATM   11  C19 UNL     1       1.913  25.983  25.146  1.00  0.00     0.095 C 
ENDROOT
BRANCH   1  12
HETATM   12  N5  UNL     1       1.801  28.390  25.092  1.00  0.00    -0.350 N 
HETATM   13  C5  UNL     1       1.809  29.251  23.951  1.00  0.00     0.272 C 
HETATM   14  O3  UNL     1       2.620  28.954  23.048  1.00  0.00    -0.266 OA
ATOM     15  H5  UNL     1       1.153  28.593  25.853  1.00  0.00     0.163 HD
BRANCH  13  16
HETATM   16  C4  UNL     1       0.949  30.401  23.805  1.00  0.00     0.144 A 
HETATM   17  C1  UNL     1       0.944  31.191  22.677  1.00  0.00     0.133 A 
HETATM   18  N2  UNL     1       0.108  32.297  22.576  1.00  0.00    -0.321 N 
HETATM   19  C2  UNL     1      -0.716  32.621  23.581  1.00  0.00     0.190 A 
ATOM     20  H2  UNL     1       0.121  32.866  21.730  1.00  0.00     0.169 HD
HETATM   21  C3  UNL     1      -0.699  31.823  24.700  1.00  0.00     0.143 A 
HETATM   22  N4  UNL     1       0.093  30.758  24.822  1.00  0.00    -0.355 N 
ATOM     23  H4  UNL     1       0.063  30.202  25.676  1.00  0.00     0.165 HD
BRANCH  17  24
HETATM   24  N1  UNL     1       1.670  30.967  21.692  1.00  0.00    -0.383 N 
ATOM     25  H12 UNL     1       2.573  31.421  21.554  1.00  0.00     0.157 HD
ATOM     26  H11 UNL     1       1.310  30.289  21.019  1.00  0.00     0.157 HD
ENDBRANCH  17  24
BRANCH  19  27
HETATM   27  N3  UNL     1      -1.574  33.753  23.480  1.00  0.00    -0.096 N 
HETATM   28  O1  UNL     1      -1.148  34.882  23.197  1.00  0.00    -0.530 OA
HETATM   29  O2  UNL     1      -2.921  33.602  23.694  1.00  0.00    -0.530 OA
ENDBRANCH  19  27
ENDBRANCH  13  16
ENDBRANCH   1  12
BRANCH   3  30
HETATM   30  O4  UNL     1       5.000  25.339  26.126  1.00  0.00    -0.373 OA
BRANCH  30  31
HETATM   31  C9  UNL     1       5.219  23.985  26.286  1.00  0.00     0.281 C 
BRANCH  31  32
HETATM   32  C10 UNL     1       6.684  23.738  26.261  1.00  0.00     0.197 C 
HETATM   33  O5  UNL     1       7.443  24.149  25.328  1.00  0.00    -0.646 OA
HETATM   34  O6  UNL     1       7.321  23.023  27.285  1.00  0.00    -0.646 OA
ENDBRANCH  31  32
ENDBRANCH  30  31
ENDBRANCH   3  30
BRANCH   7  35
HETATM   35  C13 UNL     1       0.802  22.715  28.423  1.00  0.00     0.226 C 
HETATM   36  O7  UNL     1       0.233  23.123  29.506  1.00  0.00    -0.643 OA
HETATM   37  O8  UNL     1       1.388  21.494  28.563  1.00  0.00    -0.643 OA
ENDBRANCH   7  35
BRANCH   8  38
HETATM   38  C15 UNL     1      -1.411  22.665  26.699  1.00  0.00     0.119 C 
BRANCH  38  39
HETATM   39  S1  UNL     1      -2.937  23.294  27.341  1.00  0.00    -0.099 SA
BRANCH  39  40
HETATM   40  C16 UNL     1      -4.211  22.136  27.739  1.00  0.00     0.129 A 
HETATM   41  N7  UNL     1      -5.508  22.139  27.412  1.00  0.00    -0.287 N 
HETATM   42  N8  UNL     1      -6.263  21.217  27.801  1.00  0.00    -0.281 N 
ATOM     43  H7  UNL     1      -5.885  22.897  26.843  1.00  0.00     0.188 HD
HETATM   44  C17 UNL     1      -5.788  20.221  28.545  1.00  0.00     0.208 A 
ATOM     45  H8  UNL     1      -7.251  21.230  27.545  1.00  0.00     0.188 HD
HETATM   46  S3  UNL     1      -4.145  20.674  28.673  1.00  0.00    -0.031 SA
BRANCH  44  47
HETATM   47  S2  UNL     1      -6.640  18.835  29.215  1.00  0.00     0.280 S 
HETATM   48  O9  UNL     1      -6.868  19.047  30.681  1.00  0.00    -0.199 OA
HETATM   49  O10 UNL     1      -5.819  17.610  29.025  1.00  0.00    -0.199 OA
BRANCH  47  50
HETATM   50  N9  UNL     1      -8.152  18.605  28.419  1.00  0.00    -0.323 N 
ATOM     51  H92 UNL     1      -9.047  18.548  28.905  1.00  0.00     0.169 HD
ATOM     52  H91 UNL     1      -8.021  18.534  27.410  1.00  0.00     0.169 HD
ENDBRANCH  47  50
ENDBRANCH  44  47
ENDBRANCH  39  40
ENDBRANCH  38  39
ENDBRANCH   8  38
TORSDOF 13
ENDMDL
MODEL 4
REMARK VINA RESULT: -9.018944950      1.577      1.691
REMARK  13 active torsions:
REMARK  status: ('A' for Active; 'I' for Inactive)
REMARK    1  A    between atoms: N1_1  and  C1_4 
REMARK    2  A    between atoms: C2_7  and  N3_8 
REMARK    3  A    between atoms: C4_14  and  C5_15 
REMARK       I    between atoms: C5_15  and  N5_17 
REMARK    4  A    between atoms: N5_17  and  C6_19 
REMARK    5  A    between atoms: C8_21  and  O4_22 
REMARK    6  A    between atoms: O4_22  and  C9_23 
REMARK    7  A    between atoms: C9_23  and  C10_24 
REMARK    8  A    between atoms: C12_30  and  C13_31 
REMARK    9  A    between atoms: C14_34  and  C15_35 
REMARK   10  A    between atoms: C15_35  and  S1_36 
REMARK   11  A    between atoms: S1_36  and  C16_37 
REMARK   12  A    between atoms: C17_42  and  S2_43 
REMARK   13  A    between atoms: S2_43  and  N9_44 
ROOT
HETATM    1  C6  UNL     1       4.864  23.827  29.954  1.00  0.00     0.103 C 
HETATM    2  C7  UNL     1       4.796  22.391  29.523  1.00  0.00     0.060 C 
HETATM    3  C8  UNL     1       4.945  22.470  28.049  1.00  0.00     0.147 C 
HETATM    4  C11 UNL     1       4.362  23.774  27.618  1.00  0.00     0.127 C 
HETATM    5  N6  UNL     1       3.113  23.524  26.979  1.00  0.00    -0.376 N 
ATOM      6  H6  UNL     1       2.822  22.551  27.076  1.00  0.00     0.160 HD
HETATM    7  C12 UNL     1       2.156  24.302  26.228  1.00  0.00     0.110 C 
HETATM    8  C14 UNL     1       1.793  25.513  26.558  1.00  0.00    -0.028 C 
HETATM    9  C18 UNL     1       2.305  26.368  27.694  1.00  0.00     0.111 C 
HETATM   10  S4  UNL     1       2.648  25.271  29.091  1.00  0.00    -0.156 SA
HETATM   11  C19 UNL     1       4.334  24.639  28.835  1.00  0.00     0.095 C 
ENDROOT
BRANCH   1  12
HETATM   12  N5  UNL     1       4.218  24.135  31.188  1.00  0.00    -0.350 N 
HETATM   13  C5  UNL     1       3.212  23.299  31.764  1.00  0.00     0.272 C 
HETATM   14  O3  UNL     1       2.926  22.267  31.120  1.00  0.00    -0.266 OA
ATOM     15  H5  UNL     1       4.486  24.988  31.681  1.00  0.00     0.163 HD
BRANCH  13  16
HETATM   16  C4  UNL     1       2.543  23.586  33.010  1.00  0.00     0.144 A 
HETATM   17  C1  UNL     1       1.185  23.433  33.181  1.00  0.00     0.133 A 
HETATM   18  N2  UNL     1       0.574  23.728  34.394  1.00  0.00    -0.321 N 
HETATM   19  C2  UNL     1       1.297  24.173  35.430  1.00  0.00     0.190 A 
ATOM     20  H2  UNL     1      -0.434  23.606  34.496  1.00  0.00     0.169 HD
HETATM   21  C3  UNL     1       2.650  24.320  35.243  1.00  0.00     0.143 A 
HETATM   22  N4  UNL     1       3.261  24.044  34.091  1.00  0.00    -0.355 N 
ATOM     23  H4  UNL     1       4.269  24.173  34.010  1.00  0.00     0.165 HD
BRANCH  17  24
HETATM   24  N1  UNL     1       0.432  23.023  32.279  1.00  0.00    -0.383 N 
ATOM     25  H12 UNL     1      -0.540  22.762  32.445  1.00  0.00     0.157 HD
ATOM     26  H11 UNL     1       0.845  22.965  31.348  1.00  0.00     0.157 HD
ENDBRANCH  17  24
BRANCH  19  27
HETATM   27  N3  UNL     1       0.674  24.474  36.673  1.00  0.00    -0.096 N 
HETATM   28  O1  UNL     1       1.137  24.088  37.756  1.00  0.00    -0.530 OA
HETATM   29  O2  UNL     1      -0.477  25.222  36.690  1.00  0.00    -0.530 OA
ENDBRANCH  19  27
ENDBRANCH  13  16
ENDBRANCH   1  12
BRANCH   3  30
HETATM   30  O4  UNL     1       6.231  22.242  27.587  1.00  0.00    -0.373 OA
BRANCH  30  31
HETATM   31  C9  UNL     1       6.325  21.148  26.748  1.00  0.00     0.281 C 
BRANCH  31  32
HETATM   32  C10 UNL     1       5.958  21.576  25.373  1.00  0.00     0.197 C 
HETATM   33  O5  UNL     1       6.804  22.020  24.534  1.00  0.00    -0.646 OA
HETATM   34  O6  UNL     1       4.634  21.513  24.917  1.00  0.00    -0.646 OA
ENDBRANCH  31  32
ENDBRANCH  30  31
ENDBRANCH   3  30
BRANCH   7  35
HETATM   35  C13 UNL     1       1.560  23.596  25.111  1.00  0.00     0.226 C 
HETATM   36  O7  UNL     1       0.646  22.734  25.401  1.00  0.00    -0.643 OA
HETATM   37  O8  UNL     1       1.795  23.685  23.772  1.00  0.00    -0.643 OA
ENDBRANCH   7  35
BRANCH   8  38
HETATM   38  C15 UNL     1       0.825  26.231  25.732  1.00  0.00     0.119 C 
BRANCH  38  39
HETATM   39  S1  UNL     1      -0.157  27.472  26.528  1.00  0.00    -0.099 SA
BRANCH  39  40
HETATM   40  C16 UNL     1      -0.631  28.888  25.583  1.00  0.00     0.129 A 
HETATM   41  N7  UNL     1       0.098  29.667  24.777  1.00  0.00    -0.287 N 
HETATM   42  N8  UNL     1      -0.428  30.643  24.190  1.00  0.00    -0.281 N 
ATOM     43  H7  UNL     1       1.088  29.467  24.639  1.00  0.00     0.188 HD
HETATM   44  C17 UNL     1      -1.718  30.919  24.360  1.00  0.00     0.208 A 
ATOM     45  H8  UNL     1       0.140  31.231  23.579  1.00  0.00     0.188 HD
HETATM   46  S3  UNL     1      -2.172  29.674  25.438  1.00  0.00    -0.031 SA
BRANCH  44  47
HETATM   47  S2  UNL     1      -2.672  32.225  23.664  1.00  0.00     0.280 S 
HETATM   48  O9  UNL     1      -3.933  31.668  23.078  1.00  0.00    -0.199 OA
HETATM   49  O10 UNL     1      -1.890  32.889  22.588  1.00  0.00    -0.199 OA
BRANCH  47  50
HETATM   50  N9  UNL     1      -3.058  33.404  24.862  1.00  0.00    -0.323 N 
ATOM     51  H92 UNL     1      -3.674  33.226  25.655  1.00  0.00     0.169 HD
ATOM     52  H91 UNL     1      -2.588  34.287  24.663  1.00  0.00     0.169 HD
ENDBRANCH  47  50
ENDBRANCH  44  47
ENDBRANCH  39  40
ENDBRANCH  38  39
ENDBRANCH   8  38
TORSDOF 13
ENDMDL
MODEL 5
REMARK VINA RESULT: -8.914924537      0.943      1.452
REMARK  13 active torsions:
REMARK  status: ('A' for Active; 'I' for Inactive)
REMARK    1  A    between atoms: N1_1  and  C1_4 
REMARK    2  A    between atoms: C2_7  and  N3_8 
REMARK    3  A    between atoms: C4_14  and  C5_15 
REMARK       I    between atoms: C5_15  and  N5_17 
REMARK    4  A    between atoms: N5_17  and  C6_19 
REMARK    5  A    between atoms: C8_21  and  O4_22 
REMARK    6  A    between atoms: O4_22  and  C9_23 
REMARK    7  A    between atoms: C9_23  and  C10_24 
REMARK    8  A    between atoms: C12_30  and  C13_31 
REMARK    9  A    between atoms: C14_34  and  C15_35 
REMARK   10  A    between atoms: C15_35  and  S1_36 
REMARK   11  A    between atoms: S1_36  and  C16_37 
REMARK   12  A    between atoms: C17_42  and  S2_43 
REMARK   13  A    between atoms: S2_43  and  N9_44 
ROOT
HETATM    1  C6  UNL     1       2.711  22.539  29.082  1.00  0.00     0.103 C 
HETATM    2  C7  UNL     1       1.894  21.578  28.267  1.00  0.00     0.060 C 
HETATM    3  C8  UNL     1       2.436  21.749  26.897  1.00  0.00     0.147 C 
HETATM    4  C11 UNL     1       2.907  23.159  26.783  1.00  0.00     0.127 C 
HETATM    5  N6  UNL     1       1.985  23.882  25.972  1.00  0.00    -0.376 N 
ATOM      6  H6  UNL     1       1.148  23.336  25.766  1.00  0.00     0.160 HD
HETATM    7  C12 UNL     1       1.937  25.193  25.367  1.00  0.00     0.110 C 
HETATM    8  C14 UNL     1       2.319  26.283  25.979  1.00  0.00    -0.028 C 
HETATM    9  C18 UNL     1       2.931  26.422  27.353  1.00  0.00     0.111 C 
HETATM   10  S4  UNL     1       2.156  25.184  28.423  1.00  0.00    -0.156 SA
HETATM   11  C19 UNL     1       3.099  23.648  28.181  1.00  0.00     0.095 C 
ENDROOT
BRANCH   1  12
HETATM   12  N5  UNL     1       2.096  23.015  30.278  1.00  0.00    -0.350 N 
HETATM   13  C5  UNL     1       2.680  22.838  31.571  1.00  0.00     0.272 C 
HETATM   14  O3  UNL     1       3.775  22.237  31.597  1.00  0.00    -0.266 OA
ATOM     15  H5  UNL     1       1.202  23.502  30.208  1.00  0.00     0.163 HD
BRANCH  13  16
HETATM   16  C4  UNL     1       2.080  23.308  32.796  1.00  0.00     0.144 A 
HETATM   17  C1  UNL     1       2.752  24.101  33.700  1.00  0.00     0.133 A 
HETATM   18  N2  UNL     1       2.144  24.528  34.875  1.00  0.00    -0.321 N 
HETATM   19  C2  UNL     1       0.884  24.173  35.157  1.00  0.00     0.190 A 
ATOM     20  H2  UNL     1       2.663  25.116  35.529  1.00  0.00     0.169 HD
HETATM   21  C3  UNL     1       0.227  23.382  34.246  1.00  0.00     0.143 A 
HETATM   22  N4  UNL     1       0.786  22.959  33.112  1.00  0.00    -0.355 N 
ATOM     23  H4  UNL     1       0.251  22.373  32.472  1.00  0.00     0.165 HD
BRANCH  17  24
HETATM   24  N1  UNL     1       3.923  24.484  33.524  1.00  0.00    -0.383 N 
ATOM     25  H12 UNL     1       4.488  24.898  34.266  1.00  0.00     0.157 HD
ATOM     26  H11 UNL     1       4.295  24.355  32.583  1.00  0.00     0.157 HD
ENDBRANCH  17  24
BRANCH  19  27
HETATM   27  N3  UNL     1       0.259  24.610  36.359  1.00  0.00    -0.096 N 
HETATM   28  O1  UNL     1      -0.620  23.946  36.927  1.00  0.00    -0.530 OA
HETATM   29  O2  UNL     1       0.636  25.803  36.923  1.00  0.00    -0.530 OA
ENDBRANCH  19  27
ENDBRANCH  13  16
ENDBRANCH   1  12
BRANCH   3  30
HETATM   30  O4  UNL     1       3.379  20.803  26.528  1.00  0.00    -0.373 OA
BRANCH  30  31
HETATM   31  C9  UNL     1       3.084  20.174  25.334  1.00  0.00     0.281 C 
BRANCH  31  32
HETATM   32  C10 UNL     1       3.851  20.840  24.249  1.00  0.00     0.197 C 
HETATM   33  O5  UNL     1       5.084  21.131  24.346  1.00  0.00    -0.646 OA
HETATM   34  O6  UNL     1       3.243  21.190  23.035  1.00  0.00    -0.646 OA
ENDBRANCH  31  32
ENDBRANCH  30  31
ENDBRANCH   3  30
BRANCH   7  35
HETATM   35  C13 UNL     1       1.349  25.218  24.043  1.00  0.00     0.226 C 
HETATM   36  O7  UNL     1       0.064  25.120  23.985  1.00  0.00    -0.643 OA
HETATM   37  O8  UNL     1       1.925  25.333  22.814  1.00  0.00    -0.643 OA
ENDBRANCH   7  35
BRANCH   8  38
HETATM   38  C15 UNL     1       2.246  27.567  25.286  1.00  0.00     0.119 C 
BRANCH  38  39
HETATM   39  S1  UNL     1       1.349  28.870  26.083  1.00  0.00    -0.099 SA
BRANCH  39  40
HETATM   40  C16 UNL     1       0.505  30.041  25.065  1.00  0.00     0.129 A 
HETATM   41  N7  UNL     1       0.744  30.413  23.802  1.00  0.00    -0.287 N 
HETATM   42  N8  UNL     1       0.025  31.277  23.247  1.00  0.00    -0.281 N 
ATOM     43  H7  UNL     1       1.517  29.991  23.288  1.00  0.00     0.188 HD
HETATM   44  C17 UNL     1      -0.987  31.838  23.904  1.00  0.00     0.208 A 
ATOM     45  H8  UNL     1       0.218  31.553  22.284  1.00  0.00     0.188 HD
HETATM   46  S3  UNL     1      -0.866  31.048  25.413  1.00  0.00    -0.031 SA
BRANCH  44  47
HETATM   47  S2  UNL     1      -2.119  33.069  23.352  1.00  0.00     0.280 S 
HETATM   48  O9  UNL     1      -3.293  33.122  24.280  1.00  0.00    -0.199 OA
HETATM   49  O10 UNL     1      -2.596  32.726  21.986  1.00  0.00    -0.199 OA
BRANCH  47  50
HETATM   50  N9  UNL     1      -1.357  34.614  23.289  1.00  0.00    -0.323 N 
ATOM     51  H92 UNL     1      -0.643  34.868  22.606  1.00  0.00     0.169 HD
ATOM     52  H91 UNL     1      -1.718  35.224  24.023  1.00  0.00     0.169 HD
ENDBRANCH  47  50
ENDBRANCH  44  47
ENDBRANCH  39  40
ENDBRANCH  38  39
ENDBRANCH   8  38
TORSDOF 13
ENDMDL
