MODEL 1
REMARK VINA RESULT: -8.835847895      0.000      0.000
REMARK  19 active torsions:
REMARK  status: ('A' for Active; 'I' for Inactive)
REMARK    1  A    between atoms: O1_2  and  C2_3 
REMARK    2  A    between atoms: C3_7  and  O2_8 
REMARK    3  A    between atoms: O2_8  and  C4_9 
REMARK    4  A    between atoms: C4_9  and  C5_11 
REMARK    5  A    between atoms: C9_16  and  O5_17 
REMARK    6  A    between atoms: C11_20  and  O6_21 
REMARK    7  A    between atoms: C12_24  and  C13_25 
REMARK    8  A    between atoms: C13_25  and  O8_26 
REMARK    9  A    between atoms: C13_25  and  C14_28 
REMARK   10  A    between atoms: C14_28  and  C15_29 
REMARK   11  A    between atoms: C15_29  and  C16_30 
REMARK   12  A    between atoms: C15_29  and  O10_34 
REMARK   13  A    between atoms: C16_30  and  C17_31 
REMARK   14  A    between atoms: O10_34  and  C19_35 
REMARK   15  A    between atoms: C21_38  and  O12_39 
REMARK   16  A    between atoms: O12_39  and  C22_40 
REMARK   17  A    between atoms: C24_43  and  C25_44 
REMARK   18  A    between atoms: C27_47  and  O15_48 
REMARK   19  A    between atoms: C28_50  and  O16_51 
ROOT
HETATM    1  C2  UNL     1       1.082  26.893  25.987  1.00  0.00     0.329 C 
HETATM    2  N1  UNL     1       0.802  26.239  24.696  1.00  0.00     0.030 N 
ATOM      3  H11 UNL     1       1.659  25.963  24.215  1.00  0.00     0.288 HD
ATOM      4  H12 UNL     1       0.448  26.898  24.004  1.00  0.00     0.288 HD
HETATM    5  C3  UNL     1      -0.078  25.140  24.884  1.00  0.00     0.396 C 
HETATM    6  O4  UNL     1      -1.468  25.386  24.603  1.00  0.00    -0.288 OA
HETATM    7  C9  UNL     1      -1.525  26.120  25.786  1.00  0.00     0.225 C 
HETATM    8  C10 UNL     1      -1.146  27.518  25.493  1.00  0.00     0.148 C 
HETATM    9  C11 UNL     1      -2.231  28.554  25.558  1.00  0.00     0.270 C 
HETATM   10  O7  UNL     1      -2.225  29.439  24.544  1.00  0.00    -0.350 OA
HETATM   11  C12 UNL     1      -1.213  30.235  24.223  1.00  0.00     0.183 C 
HETATM   12  C21 UNL     1       0.206  29.774  24.573  1.00  0.00     0.177 C 
HETATM   13  C24 UNL     1       0.425  29.385  25.969  1.00  0.00     0.127 C 
HETATM   14  C27 UNL     1       0.068  27.973  26.300  1.00  0.00     0.150 C 
HETATM   15  C28 UNL     1      -0.484  25.209  26.321  1.00  0.00     0.266 C 
HETATM   16  C29 UNL     1       0.698  25.808  26.945  1.00  0.00     0.240 C 
HETATM   17  O17 UNL     1       1.241  25.509  27.978  1.00  0.00    -0.289 OA
ENDROOT
BRANCH  11  18
HETATM   18  C13 UNL     1      -1.443  31.708  24.583  1.00  0.00     0.152 C 
BRANCH  18  19
HETATM   19  O8  UNL     1      -2.712  31.932  25.129  1.00  0.00    -0.393 OA
ATOM     20  H8  UNL     1      -3.049  32.796  24.920  1.00  0.00     0.210 HD
ENDBRANCH  18  19
BRANCH  18  21
HETATM   21  C14 UNL     1      -1.447  32.482  23.293  1.00  0.00     0.067 C 
BRANCH  21  22
HETATM   22  C15 UNL     1      -1.990  31.766  22.081  1.00  0.00     0.141 C 
BRANCH  22  23
HETATM   23  C16 UNL     1      -3.405  32.313  21.908  1.00  0.00     0.110 C 
BRANCH  23  24
HETATM   24  C17 UNL     1      -4.411  31.336  21.528  1.00  0.00     0.125 C 
HETATM   25  C18 UNL     1      -5.581  31.813  20.726  1.00  0.00     0.091 C 
HETATM   26  O9  UNL     1      -4.346  30.178  21.827  1.00  0.00    -0.298 OA
ENDBRANCH  23  24
ENDBRANCH  22  23
BRANCH  22  27
HETATM   27  O10 UNL     1      -1.221  31.991  20.945  1.00  0.00    -0.316 OA
BRANCH  27  28
HETATM   28  C19 UNL     1      -1.220  31.389  19.737  1.00  0.00     0.255 C 
HETATM   29  C20 UNL     1      -2.305  31.667  18.729  1.00  0.00     0.126 C 
HETATM   30  O11 UNL     1      -0.333  30.588  19.411  1.00  0.00    -0.266 OA
ENDBRANCH  27  28
ENDBRANCH  22  27
ENDBRANCH  21  22
ENDBRANCH  18  21
ENDBRANCH  11  18
BRANCH  12  31
HETATM   31  O12 UNL     1       0.988  30.890  24.194  1.00  0.00    -0.313 OA
BRANCH  31  32
HETATM   32  C22 UNL     1       1.711  30.917  22.987  1.00  0.00     0.255 C 
HETATM   33  C23 UNL     1       2.427  29.736  22.487  1.00  0.00     0.126 C 
HETATM   34  O13 UNL     1       1.724  31.987  22.354  1.00  0.00    -0.266 OA
ENDBRANCH  31  32
ENDBRANCH  12  31
BRANCH   9  35
HETATM   35  O6  UNL     1      -3.518  27.948  25.506  1.00  0.00    -0.371 OA
ATOM     36  H6  UNL     1      -4.203  28.606  25.488  1.00  0.00     0.212 HD
ENDBRANCH   9  35
BRANCH  13  37
HETATM   37  C25 UNL     1       1.731  29.848  26.477  1.00  0.00     0.133 C 
HETATM   38  C26 UNL     1       1.874  30.860  27.604  1.00  0.00     0.091 C 
HETATM   39  O14 UNL     1       2.830  29.485  26.071  1.00  0.00    -0.298 OA
ENDBRANCH  13  37
BRANCH  14  40
HETATM   40  O15 UNL     1      -0.349  27.899  27.628  1.00  0.00    -0.383 OA
ATOM     41  H15 UNL     1      -0.789  28.697  27.892  1.00  0.00     0.210 HD
ENDBRANCH  14  40
BRANCH   7  42
HETATM   42  O5  UNL     1      -2.708  25.932  26.518  1.00  0.00    -0.362 OA
ATOM     43  H5  UNL     1      -2.618  25.328  27.246  1.00  0.00     0.213 HD
ENDBRANCH   7  42
BRANCH   1  44
HETATM   44  O1  UNL     1       2.352  27.253  26.185  1.00  0.00    -0.351 OA
HETATM   45  C1  UNL     1       3.404  26.581  25.718  1.00  0.00     0.205 C 
ENDBRANCH   1  44
BRANCH  15  46
HETATM   46  O16 UNL     1      -0.967  24.077  26.906  1.00  0.00    -0.371 OA
ATOM     47  H16 UNL     1      -1.779  24.138  27.397  1.00  0.00     0.211 HD
ENDBRANCH  15  46
BRANCH   5  48
HETATM   48  O2  UNL     1       0.157  23.929  24.290  1.00  0.00    -0.252 OA
BRANCH  48  49
HETATM   49  C4  UNL     1       1.266  23.216  24.038  1.00  0.00     0.287 C 
HETATM   50  O3  UNL     1       2.161  23.231  24.913  1.00  0.00    -0.260 OA
BRANCH  49  51
HETATM   51  C5  UNL     1       1.466  22.435  22.800  1.00  0.00     0.084 C 
HETATM   52  C6  UNL     1       1.331  21.134  22.768  1.00  0.00    -0.082 C 
HETATM   53  C7  UNL     1       0.970  20.316  23.948  1.00  0.00     0.043 C 
HETATM   54  C8  UNL     1       1.548  20.428  21.479  1.00  0.00     0.043 C 
ENDBRANCH  49  51
ENDBRANCH  48  49
ENDBRANCH   5  48
TORSDOF 19
ENDMDL
MODEL 2
REMARK VINA RESULT: -8.786990506      4.214      7.903
REMARK  19 active torsions:
REMARK  status: ('A' for Active; 'I' for Inactive)
REMARK    1  A    between atoms: O1_2  and  C2_3 
REMARK    2  A    between atoms: C3_7  and  O2_8 
REMARK    3  A    between atoms: O2_8  and  C4_9 
REMARK    4  A    between atoms: C4_9  and  C5_11 
REMARK    5  A    between atoms: C9_16  and  O5_17 
REMARK    6  A    between atoms: C11_20  and  O6_21 
REMARK    7  A    between atoms: C12_24  and  C13_25 
REMARK    8  A    between atoms: C13_25  and  O8_26 
REMARK    9  A    between atoms: C13_25  and  C14_28 
REMARK   10  A    between atoms: C14_28  and  C15_29 
REMARK   11  A    between atoms: C15_29  and  C16_30 
REMARK   12  A    between atoms: C15_29  and  O10_34 
REMARK   13  A    between atoms: C16_30  and  C17_31 
REMARK   14  A    between atoms: O10_34  and  C19_35 
REMARK   15  A    between atoms: C21_38  and  O12_39 
REMARK   16  A    between atoms: O12_39  and  C22_40 
REMARK   17  A    between atoms: C24_43  and  C25_44 
REMARK   18  A    between atoms: C27_47  and  O15_48 
REMARK   19  A    between atoms: C28_50  and  O16_51 
ROOT
HETATM    1  C2  UNL     1       2.498  22.317  29.047  1.00  0.00     0.329 C 
HETATM    2  N1  UNL     1       1.618  22.981  30.027  1.00  0.00     0.030 N 
ATOM      3  H11 UNL     1       0.805  22.410  30.258  1.00  0.00     0.288 HD
ATOM      4  H12 UNL     1       1.130  23.779  29.622  1.00  0.00     0.288 HD
HETATM    5  C3  UNL     1       2.359  23.342  31.184  1.00  0.00     0.396 C 
HETATM    6  O4  UNL     1       2.799  24.711  31.254  1.00  0.00    -0.288 OA
HETATM    7  C9  UNL     1       3.747  24.403  30.280  1.00  0.00     0.225 C 
HETATM    8  C10 UNL     1       3.137  24.593  28.949  1.00  0.00     0.148 C 
HETATM    9  C11 UNL     1       3.620  25.754  28.128  1.00  0.00     0.270 C 
HETATM   10  O7  UNL     1       2.647  26.458  27.521  1.00  0.00    -0.350 OA
HETATM   11  C12 UNL     1       1.762  25.967  26.663  1.00  0.00     0.183 C 
HETATM   12  C21 UNL     1       1.393  24.484  26.777  1.00  0.00     0.177 C 
HETATM   13  C24 UNL     1       2.518  23.543  26.781  1.00  0.00     0.127 C 
HETATM   14  C27 UNL     1       3.152  23.314  28.114  1.00  0.00     0.150 C 
HETATM   15  C28 UNL     1       3.782  23.032  30.847  1.00  0.00     0.266 C 
HETATM   16  C29 UNL     1       3.639  21.904  29.924  1.00  0.00     0.240 C 
HETATM   17  O17 UNL     1       4.279  20.885  29.872  1.00  0.00    -0.289 OA
ENDROOT
BRANCH  11  18
HETATM   18  C13 UNL     1       2.010  26.385  25.208  1.00  0.00     0.152 C 
BRANCH  18  19
HETATM   19  O8  UNL     1       3.333  26.168  24.807  1.00  0.00    -0.393 OA
ATOM     20  H8  UNL     1       3.400  25.942  23.887  1.00  0.00     0.210 HD
ENDBRANCH  18  19
BRANCH  18  21
HETATM   21  C14 UNL     1       1.838  27.878  25.143  1.00  0.00     0.067 C 
BRANCH  21  22
HETATM   22  C15 UNL     1       0.629  28.447  25.844  1.00  0.00     0.141 C 
BRANCH  22  23
HETATM   23  C16 UNL     1       0.954  29.927  26.040  1.00  0.00     0.110 C 
BRANCH  23  24
HETATM   24  C17 UNL     1       0.841  30.417  27.403  1.00  0.00     0.125 C 
HETATM   25  C18 UNL     1       1.210  31.843  27.665  1.00  0.00     0.091 C 
HETATM   26  O9  UNL     1       0.469  29.736  28.315  1.00  0.00    -0.298 OA
ENDBRANCH  23  24
ENDBRANCH  22  23
BRANCH  22  27
HETATM   27  O10 UNL     1      -0.537  28.281  25.107  1.00  0.00    -0.316 OA
BRANCH  27  28
HETATM   28  C19 UNL     1      -1.783  28.768  25.289  1.00  0.00     0.255 C 
HETATM   29  C20 UNL     1      -2.483  28.634  26.617  1.00  0.00     0.126 C 
HETATM   30  O11 UNL     1      -2.397  29.341  24.378  1.00  0.00    -0.266 OA
ENDBRANCH  27  28
ENDBRANCH  22  27
ENDBRANCH  21  22
ENDBRANCH  18  21
ENDBRANCH  11  18
BRANCH  12  31
HETATM   31  O12 UNL     1       0.538  24.299  25.667  1.00  0.00    -0.313 OA
BRANCH  31  32
HETATM   32  C22 UNL     1      -0.861  24.400  25.779  1.00  0.00     0.255 C 
HETATM   33  C23 UNL     1      -1.630  23.535  26.683  1.00  0.00     0.126 C 
HETATM   34  O13 UNL     1      -1.429  25.256  25.078  1.00  0.00    -0.266 OA
ENDBRANCH  31  32
ENDBRANCH  12  31
BRANCH   9  35
HETATM   35  O6  UNL     1       4.305  26.701  28.940  1.00  0.00    -0.371 OA
ATOM     36  H6  UNL     1       5.215  26.777  28.679  1.00  0.00     0.212 HD
ENDBRANCH   9  35
BRANCH  13  37
HETATM   37  C25 UNL     1       2.229  22.328  25.995  1.00  0.00     0.133 C 
HETATM   38  C26 UNL     1       3.303  21.541  25.257  1.00  0.00     0.091 C 
HETATM   39  O14 UNL     1       1.127  21.815  25.843  1.00  0.00    -0.298 OA
ENDBRANCH  13  37
BRANCH  14  40
HETATM   40  O15 UNL     1       4.504  23.026  27.942  1.00  0.00    -0.383 OA
ATOM     41  H15 UNL     1       4.736  23.017  27.021  1.00  0.00     0.210 HD
ENDBRANCH  14  40
BRANCH   7  42
HETATM   42  O5  UNL     1       4.996  25.008  30.490  1.00  0.00    -0.362 OA
ATOM     43  H5  UNL     1       5.043  25.909  30.192  1.00  0.00     0.213 HD
ENDBRANCH   7  42
BRANCH   1  44
HETATM   44  O1  UNL     1       1.976  21.250  28.440  1.00  0.00    -0.351 OA
HETATM   45  C1  UNL     1       1.023  20.479  28.962  1.00  0.00     0.205 C 
ENDBRANCH   1  44
BRANCH  15  46
HETATM   46  O16 UNL     1       4.663  22.865  31.874  1.00  0.00    -0.371 OA
ATOM     47  H16 UNL     1       4.900  23.627  32.389  1.00  0.00     0.211 HD
ENDBRANCH  15  46
BRANCH   5  48
HETATM   48  O2  UNL     1       1.879  23.098  32.443  1.00  0.00    -0.252 OA
BRANCH  48  49
HETATM   49  C4  UNL     1       0.786  23.491  33.114  1.00  0.00     0.287 C 
HETATM   50  O3  UNL     1      -0.241  23.726  32.437  1.00  0.00    -0.260 OA
BRANCH  49  51
HETATM   51  C5  UNL     1       0.748  23.654  34.582  1.00  0.00     0.084 C 
HETATM   52  C6  UNL     1       1.757  24.145  35.254  1.00  0.00    -0.082 C 
HETATM   53  C7  UNL     1       3.026  24.582  34.629  1.00  0.00     0.043 C 
HETATM   54  C8  UNL     1       1.633  24.277  36.729  1.00  0.00     0.043 C 
ENDBRANCH  49  51
ENDBRANCH  48  49
ENDBRANCH   5  48
TORSDOF 19
ENDMDL
MODEL 3
REMARK VINA RESULT: -8.741785363      1.041      1.664
REMARK  19 active torsions:
REMARK  status: ('A' for Active; 'I' for Inactive)
REMARK    1  A    between atoms: O1_2  and  C2_3 
REMARK    2  A    between atoms: C3_7  and  O2_8 
REMARK    3  A    between atoms: O2_8  and  C4_9 
REMARK    4  A    between atoms: C4_9  and  C5_11 
REMARK    5  A    between atoms: C9_16  and  O5_17 
REMARK    6  A    between atoms: C11_20  and  O6_21 
REMARK    7  A    between atoms: C12_24  and  C13_25 
REMARK    8  A    between atoms: C13_25  and  O8_26 
REMARK    9  A    between atoms: C13_25  and  C14_28 
REMARK   10  A    between atoms: C14_28  and  C15_29 
REMARK   11  A    between atoms: C15_29  and  C16_30 
REMARK   12  A    between atoms: C15_29  and  O10_34 
REMARK   13  A    between atoms: C16_30  and  C17_31 
REMARK   14  A    between atoms: O10_34  and  C19_35 
REMARK   15  A    between atoms: C21_38  and  O12_39 
REMARK   16  A    between atoms: O12_39  and  C22_40 
REMARK   17  A    between atoms: C24_43  and  C25_44 
REMARK   18  A    between atoms: C27_47  and  O15_48 
REMARK   19  A    between atoms: C28_50  and  O16_51 
ROOT
HETATM    1  C2  UNL     1       1.117  26.761  26.013  1.00  0.00     0.329 C 
HETATM    2  N1  UNL     1       0.856  26.100  24.721  1.00  0.00     0.030 N 
ATOM      3  H11 UNL     1       1.720  25.845  24.242  1.00  0.00     0.288 HD
ATOM      4  H12 UNL     1       0.487  26.750  24.028  1.00  0.00     0.288 HD
HETATM    5  C3  UNL     1       0.003  24.980  24.908  1.00  0.00     0.396 C 
HETATM    6  O4  UNL     1      -1.392  25.192  24.625  1.00  0.00    -0.288 OA
HETATM    7  C9  UNL     1      -1.469  25.925  25.807  1.00  0.00     0.225 C 
HETATM    8  C10 UNL     1      -1.124  27.331  25.514  1.00  0.00     0.148 C 
HETATM    9  C11 UNL     1      -2.234  28.341  25.576  1.00  0.00     0.270 C 
HETATM   10  O7  UNL     1      -2.247  29.226  24.562  1.00  0.00    -0.350 OA
HETATM   11  C12 UNL     1      -1.254  30.046  24.242  1.00  0.00     0.183 C 
HETATM   12  C21 UNL     1       0.174  29.620  24.596  1.00  0.00     0.177 C 
HETATM   13  C24 UNL     1       0.401  29.236  25.993  1.00  0.00     0.127 C 
HETATM   14  C27 UNL     1       0.076  27.817  26.323  1.00  0.00     0.150 C 
HETATM   15  C28 UNL     1      -0.408  25.040  26.344  1.00  0.00     0.266 C 
HETATM   16  C29 UNL     1       0.758  25.668  26.970  1.00  0.00     0.240 C 
HETATM   17  O17 UNL     1       1.305  25.382  28.005  1.00  0.00    -0.289 OA
ENDROOT
BRANCH  11  18
HETATM   18  C13 UNL     1      -1.521  31.513  24.601  1.00  0.00     0.152 C 
BRANCH  18  19
HETATM   19  O8  UNL     1      -1.683  31.705  25.978  1.00  0.00    -0.393 OA
ATOM     20  H8  UNL     1      -2.442  31.248  26.321  1.00  0.00     0.210 HD
ENDBRANCH  18  19
BRANCH  18  21
HETATM   21  C14 UNL     1      -2.856  31.876  24.012  1.00  0.00     0.067 C 
BRANCH  21  22
HETATM   22  C15 UNL     1      -2.845  32.416  22.603  1.00  0.00     0.141 C 
BRANCH  22  23
HETATM   23  C16 UNL     1      -4.123  31.872  21.968  1.00  0.00     0.110 C 
BRANCH  23  24
HETATM   24  C17 UNL     1      -3.930  31.006  20.817  1.00  0.00     0.125 C 
HETATM   25  C18 UNL     1      -3.604  31.650  19.506  1.00  0.00     0.091 C 
HETATM   26  O9  UNL     1      -4.019  29.814  20.872  1.00  0.00    -0.298 OA
ENDBRANCH  23  24
ENDBRANCH  22  23
BRANCH  22  27
HETATM   27  O10 UNL     1      -2.818  33.806  22.569  1.00  0.00    -0.316 OA
BRANCH  27  28
HETATM   28  C19 UNL     1      -2.160  34.702  23.334  1.00  0.00     0.255 C 
HETATM   29  C20 UNL     1      -2.837  35.376  24.500  1.00  0.00     0.126 C 
HETATM   30  O11 UNL     1      -0.980  35.006  23.108  1.00  0.00    -0.266 OA
ENDBRANCH  27  28
ENDBRANCH  22  27
ENDBRANCH  21  22
ENDBRANCH  18  21
ENDBRANCH  11  18
BRANCH  12  31
HETATM   31  O12 UNL     1       0.930  30.754  24.218  1.00  0.00    -0.313 OA
BRANCH  31  32
HETATM   32  C22 UNL     1       1.448  30.904  22.918  1.00  0.00     0.255 C 
HETATM   33  C23 UNL     1       2.371  29.923  22.333  1.00  0.00     0.126 C 
HETATM   34  O13 UNL     1       1.093  31.909  22.276  1.00  0.00    -0.266 OA
ENDBRANCH  31  32
ENDBRANCH  12  31
BRANCH   9  35
HETATM   35  O6  UNL     1      -3.506  27.704  25.522  1.00  0.00    -0.371 OA
ATOM     36  H6  UNL     1      -4.200  28.341  25.401  1.00  0.00     0.212 HD
ENDBRANCH   9  35
BRANCH  13  37
HETATM   37  C25 UNL     1       1.694  29.731  26.503  1.00  0.00     0.133 C 
HETATM   38  C26 UNL     1       1.809  30.771  27.608  1.00  0.00     0.091 C 
HETATM   39  O14 UNL     1       2.802  29.377  26.116  1.00  0.00    -0.298 OA
ENDBRANCH  13  37
BRANCH  14  40
HETATM   40  O15 UNL     1      -0.341  27.732  27.650  1.00  0.00    -0.383 OA
ATOM     41  H15 UNL     1      -0.972  28.413  27.853  1.00  0.00     0.210 HD
ENDBRANCH  14  40
BRANCH   7  42
HETATM   42  O5  UNL     1      -2.649  25.708  26.537  1.00  0.00    -0.362 OA
ATOM     43  H5  UNL     1      -2.530  25.169  27.309  1.00  0.00     0.213 HD
ENDBRANCH   7  42
BRANCH   1  44
HETATM   44  O1  UNL     1       2.377  27.151  26.213  1.00  0.00    -0.351 OA
HETATM   45  C1  UNL     1       3.448  26.409  25.933  1.00  0.00     0.205 C 
ENDBRANCH   1  44
BRANCH  15  46
HETATM   46  O16 UNL     1      -0.865  23.896  26.929  1.00  0.00    -0.371 OA
ATOM     47  H16 UNL     1      -1.803  23.747  26.947  1.00  0.00     0.211 HD
ENDBRANCH  15  46
BRANCH   5  48
HETATM   48  O2  UNL     1       0.268  23.774  24.316  1.00  0.00    -0.252 OA
BRANCH  48  49
HETATM   49  C4  UNL     1       1.396  23.104  24.036  1.00  0.00     0.287 C 
HETATM   50  O3  UNL     1       2.305  23.139  24.897  1.00  0.00    -0.260 OA
BRANCH  49  51
HETATM   51  C5  UNL     1       1.602  22.346  22.785  1.00  0.00     0.084 C 
HETATM   52  C6  UNL     1       1.407  21.054  22.712  1.00  0.00    -0.082 C 
HETATM   53  C7  UNL     1       0.967  20.225  23.857  1.00  0.00     0.043 C 
HETATM   54  C8  UNL     1       1.636  20.372  21.412  1.00  0.00     0.043 C 
ENDBRANCH  49  51
ENDBRANCH  48  49
ENDBRANCH   5  48
TORSDOF 19
ENDMDL
MODEL 4
REMARK VINA RESULT: -8.693349649      4.238      7.845
REMARK  19 active torsions:
REMARK  status: ('A' for Active; 'I' for Inactive)
REMARK    1  A    between atoms: O1_2  and  C2_3 
REMARK    2  A    between atoms: C3_7  and  O2_8 
REMARK    3  A    between atoms: O2_8  and  C4_9 
REMARK    4  A    between atoms: C4_9  and  C5_11 
REMARK    5  A    between atoms: C9_16  and  O5_17 
REMARK    6  A    between atoms: C11_20  and  O6_21 
REMARK    7  A    between atoms: C12_24  and  C13_25 
REMARK    8  A    between atoms: C13_25  and  O8_26 
REMARK    9  A    between atoms: C13_25  and  C14_28 
REMARK   10  A    between atoms: C14_28  and  C15_29 
REMARK   11  A    between atoms: C15_29  and  C16_30 
REMARK   12  A    between atoms: C15_29  and  O10_34 
REMARK   13  A    between atoms: C16_30  and  C17_31 
REMARK   14  A    between atoms: O10_34  and  C19_35 
REMARK   15  A    between atoms: C21_38  and  O12_39 
REMARK   16  A    between atoms: O12_39  and  C22_40 
REMARK   17  A    between atoms: C24_43  and  C25_44 
REMARK   18  A    between atoms: C27_47  and  O15_48 
REMARK   19  A    between atoms: C28_50  and  O16_51 
ROOT
HETATM    1  C2  UNL     1       2.324  22.362  29.154  1.00  0.00     0.329 C 
HETATM    2  N1  UNL     1       1.526  23.082  30.163  1.00  0.00     0.030 N 
ATOM      3  H11 UNL     1       0.699  22.554  30.444  1.00  0.00     0.288 HD
ATOM      4  H12 UNL     1       1.055  23.895  29.767  1.00  0.00     0.288 HD
HETATM    5  C3  UNL     1       2.339  23.427  31.275  1.00  0.00     0.396 C 
HETATM    6  O4  UNL     1       2.844  24.775  31.297  1.00  0.00    -0.288 OA
HETATM    7  C9  UNL     1       3.728  24.406  30.285  1.00  0.00     0.225 C 
HETATM    8  C10 UNL     1       3.061  24.603  28.981  1.00  0.00     0.148 C 
HETATM    9  C11 UNL     1       3.557  25.726  28.116  1.00  0.00     0.270 C 
HETATM   10  O7  UNL     1       2.588  26.464  27.544  1.00  0.00    -0.350 OA
HETATM   11  C12 UNL     1       1.640  26.002  26.739  1.00  0.00     0.183 C 
HETATM   12  C21 UNL     1       1.209  24.540  26.900  1.00  0.00     0.177 C 
HETATM   13  C24 UNL     1       2.288  23.547  26.867  1.00  0.00     0.127 C 
HETATM   14  C27 UNL     1       2.976  23.311  28.171  1.00  0.00     0.150 C 
HETATM   15  C28 UNL     1       3.727  23.045  30.875  1.00  0.00     0.266 C 
HETATM   16  C29 UNL     1       3.487  21.910  29.981  1.00  0.00     0.240 C 
HETATM   17  O17 UNL     1       4.076  20.861  29.917  1.00  0.00    -0.289 OA
ENDROOT
BRANCH  11  18
HETATM   18  C13 UNL     1       1.834  26.384  25.267  1.00  0.00     0.152 C 
BRANCH  18  19
HETATM   19  O8  UNL     1       2.812  25.605  24.637  1.00  0.00    -0.393 OA
ATOM     20  H8  UNL     1       2.581  25.388  23.741  1.00  0.00     0.210 HD
ENDBRANCH  18  19
BRANCH  18  21
HETATM   21  C14 UNL     1       2.393  27.780  25.243  1.00  0.00     0.067 C 
BRANCH  21  22
HETATM   22  C15 UNL     1       1.406  28.903  25.445  1.00  0.00     0.141 C 
BRANCH  22  23
HETATM   23  C16 UNL     1       1.978  29.720  26.602  1.00  0.00     0.110 C 
BRANCH  23  24
HETATM   24  C17 UNL     1       0.996  30.337  27.477  1.00  0.00     0.125 C 
HETATM   25  C18 UNL     1       1.041  31.824  27.637  1.00  0.00     0.091 C 
HETATM   26  O9  UNL     1       0.162  29.714  28.069  1.00  0.00    -0.298 OA
ENDBRANCH  23  24
ENDBRANCH  22  23
BRANCH  22  27
HETATM   27  O10 UNL     1       1.253  29.684  24.305  1.00  0.00    -0.316 OA
BRANCH  27  28
HETATM   28  C19 UNL     1       0.461  30.748  24.055  1.00  0.00     0.255 C 
HETATM   29  C20 UNL     1      -1.023  30.690  24.313  1.00  0.00     0.126 C 
HETATM   30  O11 UNL     1       0.918  31.808  23.606  1.00  0.00    -0.266 OA
ENDBRANCH  27  28
ENDBRANCH  22  27
ENDBRANCH  21  22
ENDBRANCH  18  21
ENDBRANCH  11  18
BRANCH  12  31
HETATM   31  O12 UNL     1       0.292  24.377  25.836  1.00  0.00    -0.313 OA
BRANCH  31  32
HETATM   32  C22 UNL     1      -1.090  24.583  26.006  1.00  0.00     0.255 C 
HETATM   33  C23 UNL     1      -1.948  23.585  26.656  1.00  0.00     0.126 C 
HETATM   34  O13 UNL     1      -1.563  25.652  25.580  1.00  0.00    -0.266 OA
ENDBRANCH  31  32
ENDBRANCH  12  31
BRANCH   9  35
HETATM   35  O6  UNL     1       4.324  26.653  28.875  1.00  0.00    -0.371 OA
ATOM     36  H6  UNL     1       4.810  27.239  28.306  1.00  0.00     0.212 HD
ENDBRANCH   9  35
BRANCH  13  37
HETATM   37  C25 UNL     1       1.905  22.335  26.118  1.00  0.00     0.133 C 
HETATM   38  C26 UNL     1       2.885  21.537  25.271  1.00  0.00     0.091 C 
HETATM   39  O14 UNL     1       0.787  21.832  26.088  1.00  0.00    -0.298 OA
ENDBRANCH  13  37
BRANCH  14  40
HETATM   40  O15 UNL     1       4.303  22.957  27.938  1.00  0.00    -0.383 OA
ATOM     41  H15 UNL     1       4.524  22.149  28.386  1.00  0.00     0.210 HD
ENDBRANCH  14  40
BRANCH   7  42
HETATM   42  O5  UNL     1       5.013  24.956  30.421  1.00  0.00    -0.362 OA
ATOM     43  H5  UNL     1       5.652  24.593  29.820  1.00  0.00     0.213 HD
ENDBRANCH   7  42
BRANCH   1  44
HETATM   44  O1  UNL     1       1.723  21.310  28.592  1.00  0.00    -0.351 OA
HETATM   45  C1  UNL     1       0.811  20.552  29.201  1.00  0.00     0.205 C 
ENDBRANCH   1  44
BRANCH  15  46
HETATM   46  O16 UNL     1       4.650  22.854  31.860  1.00  0.00    -0.371 OA
ATOM     47  H16 UNL     1       5.496  22.496  31.618  1.00  0.00     0.211 HD
ENDBRANCH  15  46
BRANCH   5  48
HETATM   48  O2  UNL     1       1.911  23.227  32.560  1.00  0.00    -0.252 OA
BRANCH  48  49
HETATM   49  C4  UNL     1       0.795  23.550  33.230  1.00  0.00     0.287 C 
HETATM   50  O3  UNL     1      -0.247  23.711  32.553  1.00  0.00    -0.260 OA
BRANCH  49  51
HETATM   51  C5  UNL     1       0.748  23.721  34.697  1.00  0.00     0.084 C 
HETATM   52  C6  UNL     1       1.764  24.187  35.377  1.00  0.00    -0.082 C 
HETATM   53  C7  UNL     1       3.050  24.586  34.761  1.00  0.00     0.043 C 
HETATM   54  C8  UNL     1       1.630  24.329  36.850  1.00  0.00     0.043 C 
ENDBRANCH  49  51
ENDBRANCH  48  49
ENDBRANCH   5  48
TORSDOF 19
ENDMDL
MODEL 5
REMARK VINA RESULT: -8.611997034      1.004      1.767
REMARK  19 active torsions:
REMARK  status: ('A' for Active; 'I' for Inactive)
REMARK    1  A    between atoms: O1_2  and  C2_3 
REMARK    2  A    between atoms: C3_7  and  O2_8 
REMARK    3  A    between atoms: O2_8  and  C4_9 
REMARK    4  A    between atoms: C4_9  and  C5_11 
REMARK    5  A    between atoms: C9_16  and  O5_17 
REMARK    6  A    between atoms: C11_20  and  O6_21 
REMARK    7  A    between atoms: C12_24  and  C13_25 
REMARK    8  A    between atoms: C13_25  and  O8_26 
REMARK    9  A    between atoms: C13_25  and  C14_28 
REMARK   10  A    between atoms: C14_28  and  C15_29 
REMARK   11  A    between atoms: C15_29  and  C16_30 
REMARK   12  A    between atoms: C15_29  and  O10_34 
REMARK   13  A    between atoms: C16_30  and  C17_31 
REMARK   14  A    between atoms: O10_34  and  C19_35 
REMARK   15  A    between atoms: C21_38  and  O12_39 
REMARK   16  A    between atoms: O12_39  and  C22_40 
REMARK   17  A    between atoms: C24_43  and  C25_44 
REMARK   18  A    between atoms: C27_47  and  O15_48 
REMARK   19  A    between atoms: C28_50  and  O16_51 
ROOT
HETATM    1  C2  UNL     1       1.114  26.698  26.005  1.00  0.00     0.329 C 
HETATM    2  N1  UNL     1       0.856  26.026  24.718  1.00  0.00     0.030 N 
ATOM      3  H11 UNL     1       1.721  25.774  24.238  1.00  0.00     0.288 HD
ATOM      4  H12 UNL     1       0.480  26.669  24.021  1.00  0.00     0.288 HD
HETATM    5  C3  UNL     1       0.011  24.902  24.914  1.00  0.00     0.396 C 
HETATM    6  O4  UNL     1      -1.386  25.101  24.632  1.00  0.00    -0.288 OA
HETATM    7  C9  UNL     1      -1.466  25.841  25.809  1.00  0.00     0.225 C 
HETATM    8  C10 UNL     1      -1.132  27.248  25.507  1.00  0.00     0.148 C 
HETATM    9  C11 UNL     1      -2.250  28.250  25.565  1.00  0.00     0.270 C 
HETATM   10  O7  UNL     1      -2.271  29.128  24.545  1.00  0.00    -0.350 OA
HETATM   11  C12 UNL     1      -1.285  29.953  24.218  1.00  0.00     0.183 C 
HETATM   12  C21 UNL     1       0.147  29.540  24.571  1.00  0.00     0.177 C 
HETATM   13  C24 UNL     1       0.379  29.167  25.970  1.00  0.00     0.127 C 
HETATM   14  C27 UNL     1       0.067  27.747  26.311  1.00  0.00     0.150 C 
HETATM   15  C28 UNL     1      -0.396  24.967  26.350  1.00  0.00     0.266 C 
HETATM   16  C29 UNL     1       0.766  25.607  26.970  1.00  0.00     0.240 C 
HETATM   17  O17 UNL     1       1.318  25.333  28.005  1.00  0.00    -0.289 OA
ENDROOT
BRANCH  11  18
HETATM   18  C13 UNL     1      -1.562  31.420  24.569  1.00  0.00     0.152 C 
BRANCH  18  19
HETATM   19  O8  UNL     1      -1.359  31.693  25.927  1.00  0.00    -0.393 OA
ATOM     20  H8  UNL     1      -1.487  32.611  26.135  1.00  0.00     0.210 HD
ENDBRANCH  18  19
BRANCH  18  21
HETATM   21  C14 UNL     1      -3.032  31.656  24.355  1.00  0.00     0.067 C 
BRANCH  21  22
HETATM   22  C15 UNL     1      -3.406  32.634  23.268  1.00  0.00     0.141 C 
BRANCH  22  23
HETATM   23  C16 UNL     1      -2.078  33.238  22.816  1.00  0.00     0.110 C 
BRANCH  23  24
HETATM   24  C17 UNL     1      -1.786  34.564  23.335  1.00  0.00     0.125 C 
HETATM   25  C18 UNL     1      -2.842  35.244  24.148  1.00  0.00     0.091 C 
HETATM   26  O9  UNL     1      -0.748  35.129  23.142  1.00  0.00    -0.298 OA
ENDBRANCH  23  24
ENDBRANCH  22  23
BRANCH  22  27
HETATM   27  O10 UNL     1      -4.066  32.021  22.209  1.00  0.00    -0.316 OA
BRANCH  27  28
HETATM   28  C19 UNL     1      -3.678  31.042  21.365  1.00  0.00     0.255 C 
HETATM   29  C20 UNL     1      -2.909  31.358  20.108  1.00  0.00     0.126 C 
HETATM   30  O11 UNL     1      -3.938  29.851  21.587  1.00  0.00    -0.266 OA
ENDBRANCH  27  28
ENDBRANCH  22  27
ENDBRANCH  21  22
ENDBRANCH  18  21
ENDBRANCH  11  18
BRANCH  12  31
HETATM   31  O12 UNL     1       0.894  30.677  24.184  1.00  0.00    -0.313 OA
BRANCH  31  32
HETATM   32  C22 UNL     1       1.453  30.799  22.899  1.00  0.00     0.255 C 
HETATM   33  C23 UNL     1       2.397  29.807  22.368  1.00  0.00     0.126 C 
HETATM   34  O13 UNL     1       1.118  31.787  22.222  1.00  0.00    -0.266 OA
ENDBRANCH  31  32
ENDBRANCH  12  31
BRANCH   9  35
HETATM   35  O6  UNL     1      -3.516  27.603  25.519  1.00  0.00    -0.371 OA
ATOM     36  H6  UNL     1      -3.646  27.054  26.283  1.00  0.00     0.212 HD
ENDBRANCH   9  35
BRANCH  13  37
HETATM   37  C25 UNL     1       1.670  29.675  26.474  1.00  0.00     0.133 C 
HETATM   38  C26 UNL     1       1.781  30.695  27.598  1.00  0.00     0.091 C 
HETATM   39  O14 UNL     1       2.779  29.348  26.067  1.00  0.00    -0.298 OA
ENDBRANCH  13  37
BRANCH  14  40
HETATM   40  O15 UNL     1      -0.347  27.668  27.639  1.00  0.00    -0.383 OA
ATOM     41  H15 UNL     1      -0.982  28.346  27.839  1.00  0.00     0.210 HD
ENDBRANCH  14  40
BRANCH   7  42
HETATM   42  O5  UNL     1      -2.642  25.620  26.544  1.00  0.00    -0.362 OA
ATOM     43  H5  UNL     1      -2.642  24.808  27.036  1.00  0.00     0.213 HD
ENDBRANCH   7  42
BRANCH   1  44
HETATM   44  O1  UNL     1       2.372  27.099  26.199  1.00  0.00    -0.351 OA
HETATM   45  C1  UNL     1       3.444  26.481  25.702  1.00  0.00     0.205 C 
ENDBRANCH   1  44
BRANCH  15  46
HETATM   46  O16 UNL     1      -0.844  23.824  26.944  1.00  0.00    -0.371 OA
ATOM     47  H16 UNL     1      -1.777  23.735  27.097  1.00  0.00     0.211 HD
ENDBRANCH  15  46
BRANCH   5  48
HETATM   48  O2  UNL     1       0.284  23.694  24.328  1.00  0.00    -0.252 OA
BRANCH  48  49
HETATM   49  C4  UNL     1       1.417  23.033  24.044  1.00  0.00     0.287 C 
HETATM   50  O3  UNL     1       2.321  23.059  24.909  1.00  0.00    -0.260 OA
BRANCH  49  51
HETATM   51  C5  UNL     1       1.633  22.297  22.781  1.00  0.00     0.084 C 
HETATM   52  C6  UNL     1       1.419  21.010  22.680  1.00  0.00    -0.082 C 
HETATM   53  C7  UNL     1       0.946  20.166  23.800  1.00  0.00     0.043 C 
HETATM   54  C8  UNL     1       1.660  20.350  21.371  1.00  0.00     0.043 C 
ENDBRANCH  49  51
ENDBRANCH  48  49
ENDBRANCH   5  48
TORSDOF 19
ENDMDL
