MODEL 1
REMARK VINA RESULT: -9.079548607      0.000      0.000
REMARK  15 active torsions:
REMARK  status: ('A' for Active; 'I' for Inactive)
REMARK    1  A    between atoms: N1_2  and  C3_4 
REMARK    2  A    between atoms: C6_9  and  N3_10 
REMARK       I    between atoms: N3_10  and  C7_12 
REMARK    3  A    between atoms: C7_12  and  C8_14 
REMARK    4  A    between atoms: C10_16  and  O3_17 
REMARK    5  A    between atoms: N4_21  and  C12_22 
REMARK    6  A    between atoms: C12_22  and  C13_23 
REMARK    7  A    between atoms: C13_23  and  O5_24 
REMARK    8  A    between atoms: C15_27  and  C16_28 
REMARK    9  A    between atoms: C16_28  and  N5_29 
REMARK   10  A    between atoms: C16_28  and  C20_42 
REMARK       I    between atoms: N5_29  and  C17_31 
REMARK   11  A    between atoms: C17_31  and  O7_33 
REMARK   12  A    between atoms: O7_33  and  C18_34 
REMARK   13  A    between atoms: C18_34  and  C19_35 
REMARK       I    between atoms: C19_35  and  N6_37 
REMARK   14  A    between atoms: N6_37  and  N7_39 
REMARK       I    between atoms: C20_42  and  N8_44 
REMARK   15  A    between atoms: C21_46  and  C22_47 
ROOT
HETATM    1  C3  UNL     1      -1.161  32.290  24.165  1.00  0.00     0.118 A 
HETATM    2  C4  UNL     1      -1.657  31.193  24.851  1.00  0.00     0.150 A 
HETATM    3  N2  UNL     1      -0.898  30.110  25.040  1.00  0.00    -0.268 N 
HETATM    4  C5  UNL     1      -1.346  29.027  25.703  1.00  0.00     0.282 A 
HETATM    5  O1  UNL     1      -2.516  29.020  26.161  1.00  0.00    -0.265 OA
HETATM    6  C6  UNL     1      -0.547  27.893  25.901  1.00  0.00     0.130 A 
HETATM    7  C15 UNL     1       0.712  27.909  25.404  1.00  0.00     0.076 A 
HETATM    8  N12 UNL     1       1.108  29.017  24.752  1.00  0.00    -0.340 N 
ATOM      9  H12 UNL     1       2.056  29.030  24.376  1.00  0.00     0.167 HD
HETATM   10  C24 UNL     1       0.360  30.093  24.560  1.00  0.00     0.130 A 
HETATM   11  C25 UNL     1       0.874  31.199  23.864  1.00  0.00     0.139 A 
HETATM   12  N13 UNL     1       0.096  32.259  23.691  1.00  0.00    -0.348 N 
ATOM     13  H13 UNL     1       0.460  33.067  23.187  1.00  0.00     0.167 HD
ENDROOT
BRANCH   7  14
HETATM   14  C16 UNL     1       1.675  26.789  25.521  1.00  0.00     0.231 C 
BRANCH  14  15
HETATM   15  N5  UNL     1       1.703  25.966  24.358  1.00  0.00    -0.318 N 
HETATM   16  C17 UNL     1       1.783  24.530  24.489  1.00  0.00     0.361 C 
HETATM   17  O6  UNL     1       1.830  23.991  25.631  1.00  0.00    -0.238 OA
ATOM     18  H5  UNL     1       1.667  26.392  23.432  1.00  0.00     0.166 HD
BRANCH  16  19
HETATM   19  O7  UNL     1       1.810  23.692  23.391  1.00  0.00    -0.295 OA
BRANCH  19  20
HETATM   20  C18 UNL     1       1.198  22.415  23.423  1.00  0.00     0.285 C 
BRANCH  20  21
HETATM   21  C19 UNL     1       1.932  21.500  22.510  1.00  0.00     0.260 C 
HETATM   22  O8  UNL     1       3.146  21.310  22.724  1.00  0.00    -0.269 OA
HETATM   23  N6  UNL     1       1.285  20.858  21.427  1.00  0.00    -0.275 N 
ATOM     24  H6  UNL     1       0.292  21.017  21.258  1.00  0.00     0.189 HD
BRANCH  23  25
HETATM   25  N7  UNL     1       2.010  20.005  20.593  1.00  0.00    -0.343 N 
ATOM     26  H72 UNL     1       3.022  19.942  20.707  1.00  0.00     0.176 HD
ATOM     27  H71 UNL     1       1.525  19.458  19.882  1.00  0.00     0.176 HD
ENDBRANCH  23  25
ENDBRANCH  20  21
ENDBRANCH  19  20
ENDBRANCH  16  19
ENDBRANCH  14  15
BRANCH  14  28
HETATM   28  C20 UNL     1       3.021  27.187  25.983  1.00  0.00     0.250 C 
HETATM   29  O9  UNL     1       3.931  27.346  25.145  1.00  0.00    -0.270 OA
HETATM   30  N8  UNL     1       3.271  27.383  27.344  1.00  0.00    -0.332 N 
HETATM   31  C21 UNL     1       3.797  26.628  28.200  1.00  0.00     0.129 C 
ATOM     32  H8  UNL     1       2.977  28.291  27.703  1.00  0.00     0.168 HD
BRANCH  31  33
HETATM   33  C22 UNL     1       4.273  25.293  27.840  1.00  0.00     0.107 A 
HETATM   34  N9  UNL     1       4.653  24.853  26.642  1.00  0.00    -0.291 N 
HETATM   35  N10 UNL     1       5.030  23.651  26.488  1.00  0.00    -0.279 N 
ATOM     36  H9  UNL     1       4.640  25.486  25.843  1.00  0.00     0.187 HD
HETATM   37  C23 UNL     1       5.039  22.840  27.555  1.00  0.00     0.159 A 
ATOM     38  H10 UNL     1       5.321  23.310  25.572  1.00  0.00     0.189 HD
HETATM   39  N11 UNL     1       5.398  21.581  27.604  1.00  0.00    -0.379 N 
HETATM   40  S1  UNL     1       4.479  23.883  28.783  1.00  0.00    -0.033 SA
ATOM     41 2H11 UNL     1       5.733  20.957  26.869  1.00  0.00     0.158 HD
ATOM     42 1H11 UNL     1       5.404  20.964  28.416  1.00  0.00     0.158 HD
ENDBRANCH  31  33
ENDBRANCH  14  28
ENDBRANCH   7  14
BRANCH   6  43
HETATM   43  N3  UNL     1      -1.106  26.822  26.604  1.00  0.00    -0.317 N 
HETATM   44  C7  UNL     1      -1.517  25.656  25.913  1.00  0.00     0.257 C 
HETATM   45  O2  UNL     1      -1.382  25.581  24.637  1.00  0.00    -0.267 OA
ATOM     46  H3  UNL     1      -1.219  26.880  27.617  1.00  0.00     0.169 HD
BRANCH  44  47
HETATM   47  C8  UNL     1      -2.103  24.473  26.524  1.00  0.00     0.050 A 
HETATM   48  C9  UNL     1      -3.474  24.278  26.368  1.00  0.00     0.060 A 
HETATM   49  C10 UNL     1      -4.037  23.150  26.918  1.00  0.00     0.135 A 
HETATM   50  C11 UNL     1      -3.270  22.222  27.615  1.00  0.00     0.280 A 
HETATM   51  O4  UNL     1      -3.819  21.182  28.115  1.00  0.00    -0.265 OA
HETATM   52  N4  UNL     1      -1.950  22.423  27.758  1.00  0.00    -0.319 N 
HETATM   53  C14 UNL     1      -1.387  23.529  27.219  1.00  0.00     0.111 A 
BRANCH  49  54
HETATM   54  O3  UNL     1      -5.382  22.925  26.787  1.00  0.00    -0.356 OA
ATOM     55  H3  UNL     1      -5.907  22.738  27.556  1.00  0.00     0.218 HD
ENDBRANCH  49  54
BRANCH  52  56
HETATM   56  C12 UNL     1      -1.168  21.435  28.478  1.00  0.00     0.157 C 
BRANCH  56  57
HETATM   57  C13 UNL     1      -0.502  22.069  29.699  1.00  0.00     0.184 C 
BRANCH  57  58
HETATM   58  O5  UNL     1      -1.422  22.404  30.668  1.00  0.00    -0.399 OA
ATOM     59  H5  UNL     1      -1.084  23.062  31.264  1.00  0.00     0.209 HD
ENDBRANCH  57  58
ENDBRANCH  56  57
ENDBRANCH  52  56
ENDBRANCH  44  47
ENDBRANCH   6  43
BRANCH   1  60
HETATM   60  N1  UNL     1      -1.915  33.459  23.934  1.00  0.00    -0.375 N 
HETATM   61  C1  UNL     1      -1.305  34.585  23.273  1.00  0.00     0.150 C 
HETATM   62  C2  UNL     1      -3.288  33.513  24.362  1.00  0.00     0.150 C 
ENDBRANCH   1  60
TORSDOF 15
ENDMDL
MODEL 2
REMARK VINA RESULT: -8.576906847      2.833      8.508
REMARK  15 active torsions:
REMARK  status: ('A' for Active; 'I' for Inactive)
REMARK    1  A    between atoms: N1_2  and  C3_4 
REMARK    2  A    between atoms: C6_9  and  N3_10 
REMARK       I    between atoms: N3_10  and  C7_12 
REMARK    3  A    between atoms: C7_12  and  C8_14 
REMARK    4  A    between atoms: C10_16  and  O3_17 
REMARK    5  A    between atoms: N4_21  and  C12_22 
REMARK    6  A    between atoms: C12_22  and  C13_23 
REMARK    7  A    between atoms: C13_23  and  O5_24 
REMARK    8  A    between atoms: C15_27  and  C16_28 
REMARK    9  A    between atoms: C16_28  and  N5_29 
REMARK   10  A    between atoms: C16_28  and  C20_42 
REMARK       I    between atoms: N5_29  and  C17_31 
REMARK   11  A    between atoms: C17_31  and  O7_33 
REMARK   12  A    between atoms: O7_33  and  C18_34 
REMARK   13  A    between atoms: C18_34  and  C19_35 
REMARK       I    between atoms: C19_35  and  N6_37 
REMARK   14  A    between atoms: N6_37  and  N7_39 
REMARK       I    between atoms: C20_42  and  N8_44 
REMARK   15  A    between atoms: C21_46  and  C22_47 
ROOT
HETATM    1  C3  UNL     1       2.552  19.759  21.707  1.00  0.00     0.118 A 
HETATM    2  C4  UNL     1       2.064  20.995  22.103  1.00  0.00     0.150 A 
HETATM    3  N2  UNL     1       1.714  21.210  23.375  1.00  0.00    -0.268 N 
HETATM    4  C5  UNL     1       1.238  22.397  23.797  1.00  0.00     0.282 A 
HETATM    5  O1  UNL     1       1.112  23.341  22.977  1.00  0.00    -0.265 OA
HETATM    6  C6  UNL     1       0.873  22.621  25.131  1.00  0.00     0.130 A 
HETATM    7  C15 UNL     1       1.013  21.598  26.007  1.00  0.00     0.076 A 
HETATM    8  N12 UNL     1       1.494  20.435  25.531  1.00  0.00    -0.340 N 
ATOM      9  H12 UNL     1       1.599  19.663  26.190  1.00  0.00     0.167 HD
HETATM   10  C24 UNL     1       1.841  20.215  24.273  1.00  0.00     0.130 A 
HETATM   11  C25 UNL     1       2.335  18.960  23.883  1.00  0.00     0.139 A 
HETATM   12  N13 UNL     1       2.673  18.776  22.614  1.00  0.00    -0.348 N 
ATOM     13  H13 UNL     1       3.033  17.868  22.320  1.00  0.00     0.167 HD
ENDROOT
BRANCH   7  14
HETATM   14  C16 UNL     1       0.664  21.671  27.445  1.00  0.00     0.231 C 
BRANCH  14  15
HETATM   15  N5  UNL     1      -0.735  21.537  27.677  1.00  0.00    -0.318 N 
HETATM   16  C17 UNL     1      -1.355  22.225  28.786  1.00  0.00     0.361 C 
HETATM   17  O6  UNL     1      -0.665  22.948  29.558  1.00  0.00    -0.238 OA
ATOM     18  H5  UNL     1      -1.301  20.954  27.060  1.00  0.00     0.166 HD
BRANCH  16  19
HETATM   19  O7  UNL     1      -2.707  22.128  29.048  1.00  0.00    -0.295 OA
BRANCH  19  20
HETATM   20  C18 UNL     1      -3.656  22.028  28.001  1.00  0.00     0.285 C 
BRANCH  20  21
HETATM   21  C19 UNL     1      -3.648  23.289  27.214  1.00  0.00     0.260 C 
HETATM   22  O8  UNL     1      -2.722  23.462  26.397  1.00  0.00    -0.269 OA
HETATM   23  N6  UNL     1      -4.654  24.270  27.377  1.00  0.00    -0.275 N 
ATOM     24  H6  UNL     1      -5.409  24.123  28.047  1.00  0.00     0.189 HD
BRANCH  23  25
HETATM   25  N7  UNL     1      -4.611  25.441  26.618  1.00  0.00    -0.343 N 
ATOM     26  H72 UNL     1      -3.921  26.157  26.849  1.00  0.00     0.176 HD
ATOM     27  H71 UNL     1      -5.264  25.570  25.845  1.00  0.00     0.176 HD
ENDBRANCH  23  25
ENDBRANCH  20  21
ENDBRANCH  19  20
ENDBRANCH  16  19
ENDBRANCH  14  15
BRANCH  14  28
HETATM   28  C20 UNL     1       1.483  20.802  28.316  1.00  0.00     0.250 C 
HETATM   29  O9  UNL     1       1.008  19.721  28.719  1.00  0.00    -0.270 OA
HETATM   30  N8  UNL     1       2.774  21.188  28.685  1.00  0.00    -0.332 N 
HETATM   31  C21 UNL     1       3.202  21.725  29.739  1.00  0.00     0.129 C 
ATOM     32  H8  UNL     1       3.490  21.005  27.982  1.00  0.00     0.168 HD
BRANCH  31  33
HETATM   33  C22 UNL     1       2.300  22.048  30.843  1.00  0.00     0.107 A 
HETATM   34  N9  UNL     1       1.251  21.352  31.276  1.00  0.00    -0.291 N 
HETATM   35  N10 UNL     1       0.552  21.777  32.246  1.00  0.00    -0.279 N 
ATOM     36  H9  UNL     1       1.006  20.471  30.825  1.00  0.00     0.187 HD
HETATM   37  C23 UNL     1       0.896  22.938  32.823  1.00  0.00     0.159 A 
ATOM     38  H10 UNL     1      -0.252  21.248  32.580  1.00  0.00     0.189 HD
HETATM   39  N11 UNL     1       0.312  23.537  33.832  1.00  0.00    -0.379 N 
HETATM   40  S1  UNL     1       2.262  23.385  31.906  1.00  0.00    -0.033 SA
ATOM     41 2H11 UNL     1      -0.506  23.269  34.380  1.00  0.00     0.158 HD
ATOM     42 1H11 UNL     1       0.573  24.420  34.270  1.00  0.00     0.158 HD
ENDBRANCH  31  33
ENDBRANCH  14  28
ENDBRANCH   7  14
BRANCH   6  43
HETATM   43  N3  UNL     1       0.393  23.889  25.467  1.00  0.00    -0.317 N 
HETATM   44  C7  UNL     1       1.259  24.844  26.055  1.00  0.00     0.257 C 
HETATM   45  O2  UNL     1       2.487  24.545  26.287  1.00  0.00    -0.267 OA
ATOM     46  H3  UNL     1      -0.583  24.128  25.288  1.00  0.00     0.169 HD
BRANCH  44  47
HETATM   47  C8  UNL     1       0.888  26.196  26.442  1.00  0.00     0.050 A 
HETATM   48  C9  UNL     1       1.916  27.084  26.752  1.00  0.00     0.060 A 
HETATM   49  C10 UNL     1       1.581  28.373  27.094  1.00  0.00     0.135 A 
HETATM   50  C11 UNL     1       0.255  28.792  27.136  1.00  0.00     0.280 A 
HETATM   51  O4  UNL     1      -0.029  29.996  27.455  1.00  0.00    -0.265 OA
HETATM   52  N4  UNL     1      -0.726  27.925  26.835  1.00  0.00    -0.319 N 
HETATM   53  C14 UNL     1      -0.405  26.655  26.496  1.00  0.00     0.111 A 
BRANCH  49  54
HETATM   54  O3  UNL     1       2.565  29.275  27.406  1.00  0.00    -0.356 OA
ATOM     55  H3  UNL     1       3.042  29.712  26.711  1.00  0.00     0.218 HD
ENDBRANCH  49  54
BRANCH  52  56
HETATM   56  C12 UNL     1      -2.101  28.387  26.873  1.00  0.00     0.157 C 
BRANCH  56  57
HETATM   57  C13 UNL     1      -2.501  28.980  25.522  1.00  0.00     0.184 C 
BRANCH  57  58
HETATM   58  O5  UNL     1      -2.503  30.358  25.548  1.00  0.00    -0.399 OA
ATOM     59  H5  UNL     1      -2.335  30.728  24.689  1.00  0.00     0.209 HD
ENDBRANCH  57  58
ENDBRANCH  56  57
ENDBRANCH  52  56
ENDBRANCH  44  47
ENDBRANCH   6  43
BRANCH   1  60
HETATM   60  N1  UNL     1       2.936  19.474  20.381  1.00  0.00    -0.375 N 
HETATM   61  C1  UNL     1       4.276  19.775  19.943  1.00  0.00     0.150 C 
HETATM   62  C2  UNL     1       1.983  18.884  19.477  1.00  0.00     0.150 C 
ENDBRANCH   1  60
TORSDOF 15
ENDMDL
MODEL 3
REMARK VINA RESULT: -8.476845438      2.956      7.740
REMARK  15 active torsions:
REMARK  status: ('A' for Active; 'I' for Inactive)
REMARK    1  A    between atoms: N1_2  and  C3_4 
REMARK    2  A    between atoms: C6_9  and  N3_10 
REMARK       I    between atoms: N3_10  and  C7_12 
REMARK    3  A    between atoms: C7_12  and  C8_14 
REMARK    4  A    between atoms: C10_16  and  O3_17 
REMARK    5  A    between atoms: N4_21  and  C12_22 
REMARK    6  A    between atoms: C12_22  and  C13_23 
REMARK    7  A    between atoms: C13_23  and  O5_24 
REMARK    8  A    between atoms: C15_27  and  C16_28 
REMARK    9  A    between atoms: C16_28  and  N5_29 
REMARK   10  A    between atoms: C16_28  and  C20_42 
REMARK       I    between atoms: N5_29  and  C17_31 
REMARK   11  A    between atoms: C17_31  and  O7_33 
REMARK   12  A    between atoms: O7_33  and  C18_34 
REMARK   13  A    between atoms: C18_34  and  C19_35 
REMARK       I    between atoms: C19_35  and  N6_37 
REMARK   14  A    between atoms: N6_37  and  N7_39 
REMARK       I    between atoms: C20_42  and  N8_44 
REMARK   15  A    between atoms: C21_46  and  C22_47 
ROOT
HETATM    1  C3  UNL     1      -4.892  21.200  28.088  1.00  0.00     0.118 A 
HETATM    2  C4  UNL     1      -3.519  21.058  28.218  1.00  0.00     0.150 A 
HETATM    3  N2  UNL     1      -2.689  21.919  27.622  1.00  0.00    -0.268 N 
HETATM    4  C5  UNL     1      -1.351  21.814  27.727  1.00  0.00     0.282 A 
HETATM    5  O1  UNL     1      -0.853  20.879  28.404  1.00  0.00    -0.265 OA
HETATM    6  C6  UNL     1      -0.482  22.718  27.102  1.00  0.00     0.130 A 
HETATM    7  C15 UNL     1      -1.026  23.722  26.375  1.00  0.00     0.076 A 
HETATM    8  N12 UNL     1      -2.369  23.780  26.305  1.00  0.00    -0.340 N 
ATOM      9  H12 UNL     1      -2.780  24.535  25.757  1.00  0.00     0.167 HD
HETATM   10  C24 UNL     1      -3.197  22.930  26.892  1.00  0.00     0.130 A 
HETATM   11  C25 UNL     1      -4.586  23.084  26.755  1.00  0.00     0.139 A 
HETATM   12  N13 UNL     1      -5.385  22.214  27.357  1.00  0.00    -0.348 N 
ATOM     13  H13 UNL     1      -6.395  22.317  27.263  1.00  0.00     0.167 HD
ENDROOT
BRANCH   7  14
HETATM   14  C16 UNL     1      -0.246  24.751  25.647  1.00  0.00     0.231 C 
BRANCH  14  15
HETATM   15  N5  UNL     1       0.031  24.377  24.301  1.00  0.00    -0.318 N 
HETATM   16  C17 UNL     1       1.338  23.875  23.944  1.00  0.00     0.361 C 
HETATM   17  O6  UNL     1       2.244  23.765  24.818  1.00  0.00    -0.238 OA
ATOM     18  H5  UNL     1      -0.693  24.465  23.588  1.00  0.00     0.166 HD
BRANCH  16  19
HETATM   19  O7  UNL     1       1.653  23.498  22.653  1.00  0.00    -0.295 OA
BRANCH  19  20
HETATM   20  C18 UNL     1       1.570  22.146  22.239  1.00  0.00     0.285 C 
BRANCH  20  21
HETATM   21  C19 UNL     1       1.820  21.263  23.408  1.00  0.00     0.260 C 
HETATM   22  O8  UNL     1       0.836  20.736  23.964  1.00  0.00    -0.269 OA
HETATM   23  N6  UNL     1       3.129  21.018  23.886  1.00  0.00    -0.275 N 
ATOM     24  H6  UNL     1       3.930  21.451  23.427  1.00  0.00     0.189 HD
BRANCH  23  25
HETATM   25  N7  UNL     1       3.322  20.181  24.987  1.00  0.00    -0.343 N 
ATOM     26  H72 UNL     1       4.210  19.689  25.087  1.00  0.00     0.176 HD
ATOM     27  H71 UNL     1       2.578  20.070  25.676  1.00  0.00     0.176 HD
ENDBRANCH  23  25
ENDBRANCH  20  21
ENDBRANCH  19  20
ENDBRANCH  16  19
ENDBRANCH  14  15
BRANCH  14  28
HETATM   28  C20 UNL     1      -0.782  26.123  25.771  1.00  0.00     0.250 C 
HETATM   29  O9  UNL     1      -1.616  26.529  24.938  1.00  0.00    -0.270 OA
HETATM   30  N8  UNL     1      -0.356  26.956  26.810  1.00  0.00    -0.332 N 
HETATM   31  C21 UNL     1       0.503  27.874  26.827  1.00  0.00     0.129 C 
ATOM     32  H8  UNL     1      -0.819  26.792  27.703  1.00  0.00     0.168 HD
BRANCH  31  33
HETATM   33  C22 UNL     1       1.251  28.232  25.623  1.00  0.00     0.107 A 
HETATM   34  N9  UNL     1       0.995  29.214  24.760  1.00  0.00    -0.291 N 
HETATM   35  N10 UNL     1       1.738  29.389  23.746  1.00  0.00    -0.279 N 
ATOM     36  H9  UNL     1       0.197  29.829  24.914  1.00  0.00     0.187 HD
HETATM   37  C23 UNL     1       2.782  28.568  23.567  1.00  0.00     0.159 A 
ATOM     38  H10 UNL     1       1.544  30.139  23.082  1.00  0.00     0.189 HD
HETATM   39  N11 UNL     1       3.662  28.588  22.596  1.00  0.00    -0.379 N 
HETATM   40  S1  UNL     1       2.643  27.536  24.918  1.00  0.00    -0.033 SA
ATOM     41 2H11 UNL     1       3.745  29.206  21.788  1.00  0.00     0.158 HD
ATOM     42 1H11 UNL     1       4.456  27.963  22.459  1.00  0.00     0.158 HD
ENDBRANCH  31  33
ENDBRANCH  14  28
ENDBRANCH   7  14
BRANCH   6  43
HETATM   43  N3  UNL     1       0.891  22.522  27.276  1.00  0.00    -0.317 N 
HETATM   44  C7  UNL     1       1.589  23.241  28.278  1.00  0.00     0.257 C 
HETATM   45  O2  UNL     1       0.964  24.079  29.025  1.00  0.00    -0.267 OA
ATOM     46  H3  UNL     1       1.391  21.862  26.681  1.00  0.00     0.169 HD
BRANCH  44  47
HETATM   47  C8  UNL     1       3.010  23.125  28.566  1.00  0.00     0.050 A 
HETATM   48  C9  UNL     1       3.561  24.027  29.474  1.00  0.00     0.060 A 
HETATM   49  C10 UNL     1       4.898  23.911  29.775  1.00  0.00     0.135 A 
HETATM   50  C11 UNL     1       5.690  22.926  29.197  1.00  0.00     0.280 A 
HETATM   51  O4  UNL     1       6.930  22.840  29.496  1.00  0.00    -0.265 OA
HETATM   52  N4  UNL     1       5.146  22.062  28.323  1.00  0.00    -0.319 N 
HETATM   53  C14 UNL     1       3.832  22.168  28.021  1.00  0.00     0.111 A 
BRANCH  49  54
HETATM   54  O3  UNL     1       5.475  24.782  30.662  1.00  0.00    -0.356 OA
ATOM     55  H3  UNL     1       5.223  25.697  30.659  1.00  0.00     0.218 HD
ENDBRANCH  49  54
BRANCH  52  56
HETATM   56  C12 UNL     1       5.989  21.034  27.741  1.00  0.00     0.157 C 
BRANCH  56  57
HETATM   57  C13 UNL     1       6.504  21.479  26.373  1.00  0.00     0.184 C 
BRANCH  57  58
HETATM   58  O5  UNL     1       7.647  22.241  26.479  1.00  0.00    -0.399 OA
ATOM     59  H5  UNL     1       7.452  23.138  26.721  1.00  0.00     0.209 HD
ENDBRANCH  57  58
ENDBRANCH  56  57
ENDBRANCH  52  56
ENDBRANCH  44  47
ENDBRANCH   6  43
BRANCH   1  60
HETATM   60  N1  UNL     1      -5.816  20.324  28.693  1.00  0.00    -0.375 N 
HETATM   61  C1  UNL     1      -5.354  19.092  29.283  1.00  0.00     0.150 C 
HETATM   62  C2  UNL     1      -7.213  20.670  28.716  1.00  0.00     0.150 C 
ENDBRANCH   1  60
TORSDOF 15
ENDMDL
MODEL 4
REMARK VINA RESULT: -8.469731544      2.898      8.146
REMARK  15 active torsions:
REMARK  status: ('A' for Active; 'I' for Inactive)
REMARK    1  A    between atoms: N1_2  and  C3_4 
REMARK    2  A    between atoms: C6_9  and  N3_10 
REMARK       I    between atoms: N3_10  and  C7_12 
REMARK    3  A    between atoms: C7_12  and  C8_14 
REMARK    4  A    between atoms: C10_16  and  O3_17 
REMARK    5  A    between atoms: N4_21  and  C12_22 
REMARK    6  A    between atoms: C12_22  and  C13_23 
REMARK    7  A    between atoms: C13_23  and  O5_24 
REMARK    8  A    between atoms: C15_27  and  C16_28 
REMARK    9  A    between atoms: C16_28  and  N5_29 
REMARK   10  A    between atoms: C16_28  and  C20_42 
REMARK       I    between atoms: N5_29  and  C17_31 
REMARK   11  A    between atoms: C17_31  and  O7_33 
REMARK   12  A    between atoms: O7_33  and  C18_34 
REMARK   13  A    between atoms: C18_34  and  C19_35 
REMARK       I    between atoms: C19_35  and  N6_37 
REMARK   14  A    between atoms: N6_37  and  N7_39 
REMARK       I    between atoms: C20_42  and  N8_44 
REMARK   15  A    between atoms: C21_46  and  C22_47 
ROOT
HETATM    1  C3  UNL     1      -4.087  21.378  27.842  1.00  0.00     0.118 A 
HETATM    2  C4  UNL     1      -3.985  22.596  27.188  1.00  0.00     0.150 A 
HETATM    3  N2  UNL     1      -2.791  23.161  26.988  1.00  0.00    -0.268 N 
HETATM    4  C5  UNL     1      -2.653  24.341  26.355  1.00  0.00     0.282 A 
HETATM    5  O1  UNL     1      -3.674  24.943  25.935  1.00  0.00    -0.265 OA
HETATM    6  C6  UNL     1      -1.399  24.932  26.145  1.00  0.00     0.130 A 
HETATM    7  C15 UNL     1      -0.306  24.277  26.601  1.00  0.00     0.076 A 
HETATM    8  N12 UNL     1      -0.502  23.101  27.225  1.00  0.00    -0.340 N 
ATOM      9  H12 UNL     1       0.322  22.607  27.569  1.00  0.00     0.167 HD
HETATM   10  C24 UNL     1      -1.682  22.536  27.427  1.00  0.00     0.130 A 
HETATM   11  C25 UNL     1      -1.773  21.302  28.090  1.00  0.00     0.139 A 
HETATM   12  N13 UNL     1      -2.972  20.766  28.275  1.00  0.00    -0.348 N 
ATOM     13  H13 UNL     1      -3.049  19.870  28.756  1.00  0.00     0.167 HD
ENDROOT
BRANCH   7  14
HETATM   14  C16 UNL     1       1.085  24.771  26.467  1.00  0.00     0.231 C 
BRANCH  14  15
HETATM   15  N5  UNL     1       1.769  24.826  27.715  1.00  0.00    -0.318 N 
HETATM   16  C17 UNL     1       2.504  26.013  28.086  1.00  0.00     0.361 C 
HETATM   17  O6  UNL     1       2.549  27.009  27.310  1.00  0.00    -0.238 OA
ATOM     18  H5  UNL     1       1.740  24.027  28.348  1.00  0.00     0.166 HD
BRANCH  16  19
HETATM   19  O7  UNL     1       3.180  26.114  29.286  1.00  0.00    -0.295 OA
BRANCH  19  20
HETATM   20  C18 UNL     1       3.905  25.020  29.818  1.00  0.00     0.285 C 
BRANCH  20  21
HETATM   21  C19 UNL     1       3.198  24.506  31.021  1.00  0.00     0.260 C 
HETATM   22  O8  UNL     1       1.991  24.214  30.909  1.00  0.00    -0.269 OA
HETATM   23  N6  UNL     1       3.863  24.348  32.260  1.00  0.00    -0.275 N 
ATOM     24  H6  UNL     1       4.850  24.588  32.345  1.00  0.00     0.189 HD
BRANCH  23  25
HETATM   25  N7  UNL     1       3.163  23.862  33.366  1.00  0.00    -0.343 N 
ATOM     26  H72 UNL     1       2.631  22.996  33.275  1.00  0.00     0.176 HD
ATOM     27  H71 UNL     1       3.191  24.373  34.249  1.00  0.00     0.176 HD
ENDBRANCH  23  25
ENDBRANCH  20  21
ENDBRANCH  19  20
ENDBRANCH  16  19
ENDBRANCH  14  15
BRANCH  14  28
HETATM   28  C20 UNL     1       1.868  24.108  25.404  1.00  0.00     0.250 C 
HETATM   29  O9  UNL     1       1.444  24.128  24.231  1.00  0.00    -0.270 OA
HETATM   30  N8  UNL     1       3.070  23.464  25.710  1.00  0.00    -0.332 N 
HETATM   31  C21 UNL     1       3.325  22.248  25.903  1.00  0.00     0.129 C 
ATOM     32  H8  UNL     1       3.876  24.083  25.792  1.00  0.00     0.168 HD
BRANCH  31  33
HETATM   33  C22 UNL     1       2.277  21.232  25.818  1.00  0.00     0.107 A 
HETATM   34  N9  UNL     1       1.500  20.939  24.776  1.00  0.00    -0.291 N 
HETATM   35  N10 UNL     1       0.618  20.032  24.866  1.00  0.00    -0.279 N 
ATOM     36  H9  UNL     1       1.616  21.448  23.900  1.00  0.00     0.187 HD
HETATM   37  C23 UNL     1       0.488  19.378  26.029  1.00  0.00     0.159 A 
ATOM     38  H10 UNL     1       0.022  19.805  24.071  1.00  0.00     0.189 HD
HETATM   39  N11 UNL     1      -0.351  18.413  26.317  1.00  0.00    -0.379 N 
HETATM   40  S1  UNL     1       1.687  20.128  26.981  1.00  0.00    -0.033 SA
ATOM     41 2H11 UNL     1      -1.069  17.964  25.748  1.00  0.00     0.158 HD
ATOM     42 1H11 UNL     1      -0.450  17.916  27.202  1.00  0.00     0.158 HD
ENDBRANCH  31  33
ENDBRANCH  14  28
ENDBRANCH   7  14
BRANCH   6  43
HETATM   43  N3  UNL     1      -1.365  26.158  25.475  1.00  0.00    -0.317 N 
HETATM   44  C7  UNL     1      -1.257  27.365  26.209  1.00  0.00     0.257 C 
HETATM   45  O2  UNL     1      -1.195  27.337  27.492  1.00  0.00    -0.267 OA
ATOM     46  H3  UNL     1      -1.419  26.184  24.457  1.00  0.00     0.169 HD
BRANCH  44  47
HETATM   47  C8  UNL     1      -1.204  28.701  25.636  1.00  0.00     0.050 A 
HETATM   48  C9  UNL     1      -2.231  29.075  24.772  1.00  0.00     0.060 A 
HETATM   49  C10 UNL     1      -2.207  30.344  24.244  1.00  0.00     0.135 A 
HETATM   50  C11 UNL     1      -1.189  31.240  24.554  1.00  0.00     0.280 A 
HETATM   51  O4  UNL     1      -1.192  32.415  24.050  1.00  0.00    -0.265 OA
HETATM   52  N4  UNL     1      -0.205  30.867  25.388  1.00  0.00    -0.319 N 
HETATM   53  C14 UNL     1      -0.221  29.620  25.913  1.00  0.00     0.111 A 
BRANCH  49  54
HETATM   54  O3  UNL     1      -3.200  30.747  23.390  1.00  0.00    -0.356 OA
ATOM     55  H3  UNL     1      -4.077  30.395  23.484  1.00  0.00     0.218 HD
ENDBRANCH  49  54
BRANCH  52  56
HETATM   56  C12 UNL     1       0.839  31.822  25.707  1.00  0.00     0.157 C 
BRANCH  56  57
HETATM   57  C13 UNL     1       1.111  31.833  27.211  1.00  0.00     0.184 C 
BRANCH  57  58
HETATM   58  O5  UNL     1       1.196  33.116  27.707  1.00  0.00    -0.399 OA
ATOM     59  H5  UNL     1       1.086  33.767  27.024  1.00  0.00     0.209 HD
ENDBRANCH  57  58
ENDBRANCH  56  57
ENDBRANCH  52  56
ENDBRANCH  44  47
ENDBRANCH   6  43
BRANCH   1  60
HETATM   60  N1  UNL     1      -5.318  20.735  28.082  1.00  0.00    -0.375 N 
HETATM   61  C1  UNL     1      -6.489  21.132  27.342  1.00  0.00     0.150 C 
HETATM   62  C2  UNL     1      -5.392  19.685  29.065  1.00  0.00     0.150 C 
ENDBRANCH   1  60
TORSDOF 15
ENDMDL
MODEL 5
REMARK VINA RESULT: -8.456737941      2.765      8.003
REMARK  15 active torsions:
REMARK  status: ('A' for Active; 'I' for Inactive)
REMARK    1  A    between atoms: N1_2  and  C3_4 
REMARK    2  A    between atoms: C6_9  and  N3_10 
REMARK       I    between atoms: N3_10  and  C7_12 
REMARK    3  A    between atoms: C7_12  and  C8_14 
REMARK    4  A    between atoms: C10_16  and  O3_17 
REMARK    5  A    between atoms: N4_21  and  C12_22 
REMARK    6  A    between atoms: C12_22  and  C13_23 
REMARK    7  A    between atoms: C13_23  and  O5_24 
REMARK    8  A    between atoms: C15_27  and  C16_28 
REMARK    9  A    between atoms: C16_28  and  N5_29 
REMARK   10  A    between atoms: C16_28  and  C20_42 
REMARK       I    between atoms: N5_29  and  C17_31 
REMARK   11  A    between atoms: C17_31  and  O7_33 
REMARK   12  A    between atoms: O7_33  and  C18_34 
REMARK   13  A    between atoms: C18_34  and  C19_35 
REMARK       I    between atoms: C19_35  and  N6_37 
REMARK   14  A    between atoms: N6_37  and  N7_39 
REMARK       I    between atoms: C20_42  and  N8_44 
REMARK   15  A    between atoms: C21_46  and  C22_47 
ROOT
HETATM    1  C3  UNL     1       3.084  19.964  21.567  1.00  0.00     0.118 A 
HETATM    2  C4  UNL     1       2.292  21.036  21.949  1.00  0.00     0.150 A 
HETATM    3  N2  UNL     1       2.233  21.413  23.230  1.00  0.00    -0.268 N 
HETATM    4  C5  UNL     1       1.476  22.450  23.637  1.00  0.00     0.282 A 
HETATM    5  O1  UNL     1       0.797  23.091  22.796  1.00  0.00    -0.265 OA
HETATM    6  C6  UNL     1       1.416  22.844  24.981  1.00  0.00     0.130 A 
HETATM    7  C15 UNL     1       2.151  22.148  25.880  1.00  0.00     0.076 A 
HETATM    8  N12 UNL     1       2.889  21.122  25.417  1.00  0.00    -0.340 N 
ATOM      9  H12 UNL     1       3.442  20.596  26.094  1.00  0.00     0.167 HD
HETATM   10  C24 UNL     1       2.951  20.743  24.150  1.00  0.00     0.130 A 
HETATM   11  C25 UNL     1       3.758  19.657  23.774  1.00  0.00     0.139 A 
HETATM   12  N13 UNL     1       3.796  19.305  22.497  1.00  0.00    -0.348 N 
ATOM     13  H13 UNL     1       4.378  18.517  22.213  1.00  0.00     0.167 HD
ENDROOT
BRANCH   7  14
HETATM   14  C16 UNL     1       2.188  22.432  27.334  1.00  0.00     0.231 C 
BRANCH  14  15
HETATM   15  N5  UNL     1       0.949  22.155  27.979  1.00  0.00    -0.318 N 
HETATM   16  C17 UNL     1       0.504  22.979  29.078  1.00  0.00     0.361 C 
HETATM   17  O6  UNL     1       1.208  23.949  29.478  1.00  0.00    -0.238 OA
ATOM     18  H5  UNL     1       0.374  21.373  27.664  1.00  0.00     0.166 HD
BRANCH  16  19
HETATM   19  O7  UNL     1      -0.691  22.751  29.732  1.00  0.00    -0.295 OA
BRANCH  19  20
HETATM   20  C18 UNL     1      -1.620  21.795  29.256  1.00  0.00     0.285 C 
BRANCH  20  21
HETATM   21  C19 UNL     1      -2.473  22.421  28.212  1.00  0.00     0.260 C 
HETATM   22  O8  UNL     1      -1.906  22.973  27.248  1.00  0.00    -0.269 OA
HETATM   23  N6  UNL     1      -3.885  22.399  28.297  1.00  0.00    -0.275 N 
ATOM     24  H6  UNL     1      -4.343  21.945  29.088  1.00  0.00     0.189 HD
BRANCH  23  25
HETATM   25  N7  UNL     1      -4.650  22.999  27.295  1.00  0.00    -0.343 N 
ATOM     26  H72 UNL     1      -5.405  22.467  26.861  1.00  0.00     0.176 HD
ATOM     27  H71 UNL     1      -4.449  23.957  27.008  1.00  0.00     0.176 HD
ENDBRANCH  23  25
ENDBRANCH  20  21
ENDBRANCH  19  20
ENDBRANCH  16  19
ENDBRANCH  14  15
BRANCH  14  28
HETATM   28  C20 UNL     1       3.352  21.854  28.038  1.00  0.00     0.250 C 
HETATM   29  O9  UNL     1       3.215  20.785  28.666  1.00  0.00    -0.270 OA
HETATM   30  N8  UNL     1       4.591  22.499  28.002  1.00  0.00    -0.332 N 
HETATM   31  C21 UNL     1       5.149  23.254  28.838  1.00  0.00     0.129 C 
ATOM     32  H8  UNL     1       5.133  22.330  27.156  1.00  0.00     0.168 HD
BRANCH  31  33
HETATM   33  C22 UNL     1       4.500  23.591  30.105  1.00  0.00     0.107 A 
HETATM   34  N9  UNL     1       4.011  24.769  30.488  1.00  0.00    -0.291 N 
HETATM   35  N10 UNL     1       3.486  24.906  31.635  1.00  0.00    -0.279 N 
ATOM     36  H9  UNL     1       4.058  25.567  29.854  1.00  0.00     0.187 HD
HETATM   37  C23 UNL     1       3.436  23.841  32.447  1.00  0.00     0.159 A 
ATOM     38  H10 UNL     1       3.111  25.806  31.932  1.00  0.00     0.189 HD
HETATM   39  N11 UNL     1       2.933  23.776  33.656  1.00  0.00    -0.379 N 
HETATM   40  S1  UNL     1       4.176  22.642  31.487  1.00  0.00    -0.033 SA
ATOM     41 2H11 UNL     1       2.490  24.494  34.230  1.00  0.00     0.158 HD
ATOM     42 1H11 UNL     1       2.895  22.966  34.274  1.00  0.00     0.158 HD
ENDBRANCH  31  33
ENDBRANCH  14  28
ENDBRANCH   7  14
BRANCH   6  43
HETATM   43  N3  UNL     1       0.603  23.935  25.300  1.00  0.00    -0.317 N 
HETATM   44  C7  UNL     1       1.164  25.231  25.412  1.00  0.00     0.257 C 
HETATM   45  O2  UNL     1       2.424  25.407  25.227  1.00  0.00    -0.267 OA
ATOM     46  H3  UNL     1      -0.397  23.798  25.452  1.00  0.00     0.169 HD
BRANCH  44  47
HETATM   47  C8  UNL     1       0.430  26.446  25.728  1.00  0.00     0.050 A 
HETATM   48  C9  UNL     1       1.138  27.646  25.732  1.00  0.00     0.060 A 
HETATM   49  C10 UNL     1       0.451  28.805  26.004  1.00  0.00     0.135 A 
HETATM   50  C11 UNL     1      -0.914  28.795  26.271  1.00  0.00     0.280 A 
HETATM   51  O4  UNL     1      -1.529  29.887  26.519  1.00  0.00    -0.265 OA
HETATM   52  N4  UNL     1      -1.585  27.630  26.264  1.00  0.00    -0.319 N 
HETATM   53  C14 UNL     1      -0.916  26.485  25.997  1.00  0.00     0.111 A 
BRANCH  49  54
HETATM   54  O3  UNL     1       1.113  30.005  26.017  1.00  0.00    -0.356 OA
ATOM     55  H3  UNL     1       0.714  30.761  26.432  1.00  0.00     0.218 HD
ENDBRANCH  49  54
BRANCH  52  56
HETATM   56  C12 UNL     1      -3.010  27.645  26.534  1.00  0.00     0.157 C 
BRANCH  56  57
HETATM   57  C13 UNL     1      -3.558  26.219  26.578  1.00  0.00     0.184 C 
BRANCH  57  58
HETATM   58  O5  UNL     1      -4.705  26.134  27.337  1.00  0.00    -0.399 OA
ATOM     59  H5  UNL     1      -5.488  26.176  26.801  1.00  0.00     0.209 HD
ENDBRANCH  57  58
ENDBRANCH  56  57
ENDBRANCH  52  56
ENDBRANCH  44  47
ENDBRANCH   6  43
BRANCH   1  60
HETATM   60  N1  UNL     1       3.186  19.521  20.233  1.00  0.00    -0.375 N 
HETATM   61  C1  UNL     1       1.997  19.141  19.512  1.00  0.00     0.150 C 
HETATM   62  C2  UNL     1       4.479  19.454  19.604  1.00  0.00     0.150 C 
ENDBRANCH   1  60
TORSDOF 15
ENDMDL
