MODEL 1
REMARK VINA RESULT: -7.768459700      0.000      0.000
REMARK  3 active torsions:
REMARK  status: ('A' for Active; 'I' for Inactive)
REMARK    1  A    between atoms: C10_18  and  N5_19 
REMARK    2  A    between atoms: N5_19  and  C11_21 
REMARK    3  A    between atoms: C11_21  and  C12_22 
ROOT
HETATM    1  N1  UNL     1     -10.871 -27.415  17.006  1.00  0.00    -0.383 N 
ATOM      2  H11 UNL     1     -10.824 -26.397  16.979  1.00  0.00     0.157 HD
ATOM      3  H12 UNL     1     -11.640 -27.904  16.548  1.00  0.00     0.157 HD
HETATM    4  C1  UNL     1      -9.992 -28.131  17.597  1.00  0.00     0.134 A 
HETATM    5  C2  UNL     1     -10.055 -29.509  17.634  1.00  0.00     0.035 A 
HETATM    6  C3  UNL     1     -11.075 -30.206  17.030  1.00  0.00     0.103 A 
HETATM    7  N2  UNL     1     -11.147 -31.548  17.058  1.00  0.00    -0.374 N 
ATOM      8  H2  UNL     1     -11.928 -32.009  16.591  1.00  0.00     0.164 HD
HETATM    9  C4  UNL     1     -10.222 -32.310  17.681  1.00  0.00     0.088 A 
HETATM   10  C5  UNL     1      -9.188 -31.624  18.294  1.00  0.00     0.029 A 
HETATM   11  C6  UNL     1      -9.088 -30.248  18.282  1.00  0.00    -0.017 A 
HETATM   12  C7  UNL     1      -8.069 -29.562  18.885  1.00  0.00     0.047 A 
HETATM   13  C8  UNL     1      -8.020 -28.185  18.841  1.00  0.00     0.101 A 
HETATM   14  C9  UNL     1      -6.976 -27.483  19.459  1.00  0.00     0.160 A 
HETATM   15  N3  UNL     1      -6.008 -28.254  20.110  1.00  0.00    -0.080 NA
HETATM   16  N4  UNL     1      -6.981 -26.152  19.384  1.00  0.00    -0.175 N 
ATOM     17  H4  UNL     1      -6.219 -25.645  19.836  1.00  0.00     0.185 HD
HETATM   18  C10 UNL     1      -7.927 -25.438  18.750  1.00  0.00     0.694 A 
HETATM   19  N6  UNL     1      -8.914 -26.136  18.167  1.00  0.00    -0.123 N 
ATOM     20  H6  UNL     1      -9.651 -25.630  17.676  1.00  0.00     0.206 HD
HETATM   21  N7  UNL     1      -8.964 -27.478  18.209  1.00  0.00    -0.222 N 
ENDROOT
BRANCH  18  22
HETATM   22  N5  UNL     1      -7.843 -24.163  18.733  1.00  0.00    -0.220 N 
ATOM     23  H5  UNL     1      -7.265 -23.726  19.450  1.00  0.00     0.178 HD
BRANCH  22  24
HETATM   24  C11 UNL     1      -8.486 -23.297  17.801  1.00  0.00     0.184 C 
BRANCH  24  25
HETATM   25  C12 UNL     1      -7.476 -22.747  16.832  1.00  0.00     0.001 A 
HETATM   26  C13 UNL     1      -7.016 -23.300  15.662  1.00  0.00     0.017 A 
HETATM   27  C14 UNL     1      -6.107 -22.603  14.973  1.00  0.00     0.008 A 
HETATM   28  C15 UNL     1      -5.708 -21.400  15.487  1.00  0.00     0.050 A 
HETATM   29  S1  UNL     1      -6.620 -21.280  16.925  1.00  0.00    -0.105 SA
ENDBRANCH  24  25
ENDBRANCH  22  24
ENDBRANCH  18  22
TORSDOF 3
ENDMDL
MODEL 2
REMARK VINA RESULT: -7.763938557      1.315      1.623
REMARK  3 active torsions:
REMARK  status: ('A' for Active; 'I' for Inactive)
REMARK    1  A    between atoms: C10_18  and  N5_19 
REMARK    2  A    between atoms: N5_19  and  C11_21 
REMARK    3  A    between atoms: C11_21  and  C12_22 
ROOT
HETATM    1  N1  UNL     1     -12.075 -29.306  17.173  1.00  0.00    -0.383 N 
ATOM      2  H11 UNL     1     -12.203 -28.358  16.820  1.00  0.00     0.157 HD
ATOM      3  H12 UNL     1     -12.810 -30.002  17.048  1.00  0.00     0.157 HD
HETATM    4  C1  UNL     1     -11.013 -29.680  17.779  1.00  0.00     0.134 A 
HETATM    5  C2  UNL     1     -10.839 -30.962  18.257  1.00  0.00     0.035 A 
HETATM    6  C3  UNL     1     -11.805 -31.930  18.110  1.00  0.00     0.103 A 
HETATM    7  N2  UNL     1     -11.647 -33.183  18.571  1.00  0.00    -0.374 N 
ATOM      8  H2  UNL     1     -12.400 -33.857  18.431  1.00  0.00     0.164 HD
HETATM    9  C4  UNL     1     -10.527 -33.583  19.212  1.00  0.00     0.088 A 
HETATM   10  C5  UNL     1      -9.545 -32.622  19.368  1.00  0.00     0.029 A 
HETATM   11  C6  UNL     1      -9.679 -31.328  18.906  1.00  0.00    -0.017 A 
HETATM   12  C7  UNL     1      -8.712 -30.372  19.056  1.00  0.00     0.047 A 
HETATM   13  C8  UNL     1      -8.901 -29.094  18.574  1.00  0.00     0.101 A 
HETATM   14  C9  UNL     1      -7.910 -28.114  18.728  1.00  0.00     0.160 A 
HETATM   15  N3  UNL     1      -6.743 -28.509  19.390  1.00  0.00    -0.080 NA
HETATM   16  N4  UNL     1      -8.147 -26.896  18.242  1.00  0.00    -0.175 N 
ATOM     17  H4  UNL     1      -7.423 -26.186  18.357  1.00  0.00     0.185 HD
HETATM   18  C10 UNL     1      -9.281 -26.546  17.610  1.00  0.00     0.694 A 
HETATM   19  N6  UNL     1     -10.211 -27.504  17.476  1.00  0.00    -0.123 N 
ATOM     20  H6  UNL     1     -11.086 -27.278  17.002  1.00  0.00     0.206 HD
HETATM   21  N7  UNL     1     -10.031 -28.750  17.945  1.00  0.00    -0.222 N 
ENDROOT
BRANCH  18  22
HETATM   22  N5  UNL     1      -9.414 -25.352  17.178  1.00  0.00    -0.220 N 
ATOM     23  H5  UNL     1      -9.852 -25.234  16.265  1.00  0.00     0.178 HD
BRANCH  22  24
HETATM   24  C11 UNL     1      -9.005 -24.168  17.859  1.00  0.00     0.184 C 
BRANCH  24  25
HETATM   25  C12 UNL     1      -8.015 -23.410  17.019  1.00  0.00     0.001 A 
HETATM   26  C13 UNL     1      -7.454 -23.768  15.818  1.00  0.00     0.017 A 
HETATM   27  C14 UNL     1      -6.591 -22.909  15.266  1.00  0.00     0.008 A 
HETATM   28  C15 UNL     1      -6.336 -21.746  15.941  1.00  0.00     0.050 A 
HETATM   29  S1  UNL     1      -7.316 -21.891  17.331  1.00  0.00    -0.105 SA
ENDBRANCH  24  25
ENDBRANCH  22  24
ENDBRANCH  18  22
TORSDOF 3
ENDMDL
MODEL 3
REMARK VINA RESULT: -7.677782576      3.231      7.398
REMARK  3 active torsions:
REMARK  status: ('A' for Active; 'I' for Inactive)
REMARK    1  A    between atoms: C10_18  and  N5_19 
REMARK    2  A    between atoms: N5_19  and  C11_21 
REMARK    3  A    between atoms: C11_21  and  C12_22 
ROOT
HETATM    1  N1  UNL     1     -10.438 -26.156  16.830  1.00  0.00    -0.383 N 
ATOM      2  H11 UNL     1     -10.886 -27.031  16.558  1.00  0.00     0.157 HD
ATOM      3  H12 UNL     1     -10.817 -25.265  16.506  1.00  0.00     0.157 HD
HETATM    4  C1  UNL     1      -9.400 -26.114  17.575  1.00  0.00     0.134 A 
HETATM    5  C2  UNL     1      -8.795 -24.930  17.943  1.00  0.00     0.035 A 
HETATM    6  C3  UNL     1      -9.273 -23.709  17.529  1.00  0.00     0.103 A 
HETATM    7  N2  UNL     1      -8.692 -22.549  17.882  1.00  0.00    -0.374 N 
ATOM      8  H2  UNL     1      -9.094 -21.675  17.543  1.00  0.00     0.164 HD
HETATM    9  C4  UNL     1      -7.595 -22.499  18.670  1.00  0.00     0.088 A 
HETATM   10  C5  UNL     1      -7.101 -23.719  19.096  1.00  0.00     0.029 A 
HETATM   11  C6  UNL     1      -7.676 -24.925  18.750  1.00  0.00    -0.017 A 
HETATM   12  C7  UNL     1      -7.193 -26.135  19.166  1.00  0.00     0.047 A 
HETATM   13  C8  UNL     1      -7.809 -27.310  18.790  1.00  0.00     0.101 A 
HETATM   14  C9  UNL     1      -7.314 -28.550  19.217  1.00  0.00     0.160 A 
HETATM   15  N3  UNL     1      -6.179 -28.519  20.033  1.00  0.00    -0.080 NA
HETATM   16  N4  UNL     1      -7.950 -29.653  18.821  1.00  0.00    -0.175 N 
ATOM     17  H4  UNL     1      -7.586 -30.553  19.134  1.00  0.00     0.185 HD
HETATM   18  C10 UNL     1      -9.041 -29.650  18.035  1.00  0.00     0.694 A 
HETATM   19  N6  UNL     1      -9.492 -28.450  17.642  1.00  0.00    -0.123 N 
ATOM     20  H6  UNL     1     -10.318 -28.406  17.044  1.00  0.00     0.206 HD
HETATM   21  N7  UNL     1      -8.895 -27.303  18.007  1.00  0.00    -0.222 N 
ENDROOT
BRANCH  18  22
HETATM   22  N5  UNL     1      -9.581 -30.761  17.710  1.00  0.00    -0.220 N 
ATOM     23  H5  UNL     1      -9.108 -31.613  18.011  1.00  0.00     0.178 HD
BRANCH  22  24
HETATM   24  C11 UNL     1     -10.784 -30.917  16.963  1.00  0.00     0.184 C 
BRANCH  24  25
HETATM   25  C12 UNL     1     -11.861 -31.493  17.841  1.00  0.00     0.001 A 
HETATM   26  C13 UNL     1     -13.178 -31.120  17.945  1.00  0.00     0.017 A 
HETATM   27  C14 UNL     1     -13.940 -31.798  18.810  1.00  0.00     0.008 A 
HETATM   28  C15 UNL     1     -13.347 -32.805  19.521  1.00  0.00     0.050 A 
HETATM   29  S1  UNL     1     -11.736 -32.772  18.956  1.00  0.00    -0.105 SA
ENDBRANCH  24  25
ENDBRANCH  22  24
ENDBRANCH  18  22
TORSDOF 3
ENDMDL
MODEL 4
REMARK VINA RESULT: -7.595177848      1.527      1.534
REMARK  3 active torsions:
REMARK  status: ('A' for Active; 'I' for Inactive)
REMARK    1  A    between atoms: C10_18  and  N5_19 
REMARK    2  A    between atoms: N5_19  and  C11_21 
REMARK    3  A    between atoms: C11_21  and  C12_22 
ROOT
HETATM    1  N1  UNL     1     -10.085 -26.963  15.721  1.00  0.00    -0.383 N 
ATOM      2  H11 UNL     1     -10.217 -25.978  15.954  1.00  0.00     0.157 HD
ATOM      3  H12 UNL     1     -10.595 -27.376  14.940  1.00  0.00     0.157 HD
HETATM    4  C1  UNL     1      -9.293 -27.725  16.373  1.00  0.00     0.134 A 
HETATM    5  C2  UNL     1      -9.115 -29.057  16.059  1.00  0.00     0.035 A 
HETATM    6  C3  UNL     1      -9.782 -29.654  15.015  1.00  0.00     0.103 A 
HETATM    7  N2  UNL     1      -9.616 -30.950  14.699  1.00  0.00    -0.374 N 
ATOM      8  H2  UNL     1     -10.139 -31.335  13.913  1.00  0.00     0.164 HD
HETATM    9  C4  UNL     1      -8.781 -31.761  15.384  1.00  0.00     0.088 A 
HETATM   10  C5  UNL     1      -8.101 -31.177  16.438  1.00  0.00     0.029 A 
HETATM   11  C6  UNL     1      -8.251 -29.849  16.786  1.00  0.00    -0.017 A 
HETATM   12  C7  UNL     1      -7.583 -29.264  17.826  1.00  0.00     0.047 A 
HETATM   13  C8  UNL     1      -7.772 -27.932  18.128  1.00  0.00     0.101 A 
HETATM   14  C9  UNL     1      -7.087 -27.333  19.194  1.00  0.00     0.160 A 
HETATM   15  N3  UNL     1      -6.217 -28.157  19.916  1.00  0.00    -0.080 NA
HETATM   16  N4  UNL     1      -7.310 -26.042  19.441  1.00  0.00    -0.175 N 
ATOM     17  H4  UNL     1      -6.810 -25.610  20.218  1.00  0.00     0.185 HD
HETATM   18  C10 UNL     1      -8.154 -25.275  18.727  1.00  0.00     0.694 A 
HETATM   19  N6  UNL     1      -8.795 -25.875  17.713  1.00  0.00    -0.123 N 
ATOM     20  H6  UNL     1      -9.444 -25.327  17.148  1.00  0.00     0.206 HD
HETATM   21  N7  UNL     1      -8.613 -27.172  17.416  1.00  0.00    -0.222 N 
ENDROOT
BRANCH  18  22
HETATM   22  N5  UNL     1      -8.299 -24.046  19.041  1.00  0.00    -0.220 N 
ATOM     23  H5  UNL     1      -9.225 -23.752  19.353  1.00  0.00     0.178 HD
BRANCH  22  24
HETATM   24  C11 UNL     1      -7.283 -23.047  18.995  1.00  0.00     0.184 C 
BRANCH  24  25
HETATM   25  C12 UNL     1      -7.338 -22.322  17.679  1.00  0.00     0.001 A 
HETATM   26  C13 UNL     1      -7.163 -22.822  16.412  1.00  0.00     0.017 A 
HETATM   27  C14 UNL     1      -7.263 -21.961  15.395  1.00  0.00     0.008 A 
HETATM   28  C15 UNL     1      -7.530 -20.653  15.696  1.00  0.00     0.050 A 
HETATM   29  S1  UNL     1      -7.634 -20.670  17.400  1.00  0.00    -0.105 SA
ENDBRANCH  24  25
ENDBRANCH  22  24
ENDBRANCH  18  22
TORSDOF 3
ENDMDL
MODEL 5
REMARK VINA RESULT: -7.549341821      3.149      7.588
REMARK  3 active torsions:
REMARK  status: ('A' for Active; 'I' for Inactive)
REMARK    1  A    between atoms: C10_18  and  N5_19 
REMARK    2  A    between atoms: N5_19  and  C11_21 
REMARK    3  A    between atoms: C11_21  and  C12_22 
ROOT
HETATM    1  N1  UNL     1     -10.515 -26.018  16.879  1.00  0.00    -0.383 N 
ATOM      2  H11 UNL     1     -11.005 -26.879  16.636  1.00  0.00     0.157 HD
ATOM      3  H12 UNL     1     -10.863 -25.120  16.542  1.00  0.00     0.157 HD
HETATM    4  C1  UNL     1      -9.463 -26.003  17.604  1.00  0.00     0.134 A 
HETATM    5  C2  UNL     1      -8.801 -24.838  17.933  1.00  0.00     0.035 A 
HETATM    6  C3  UNL     1      -9.236 -23.607  17.500  1.00  0.00     0.103 A 
HETATM    7  N2  UNL     1      -8.600 -22.466  17.815  1.00  0.00    -0.374 N 
ATOM      8  H2  UNL     1      -8.971 -21.583  17.463  1.00  0.00     0.164 HD
HETATM    9  C4  UNL     1      -7.487 -22.444  18.580  1.00  0.00     0.088 A 
HETATM   10  C5  UNL     1      -7.036 -23.674  19.025  1.00  0.00     0.029 A 
HETATM   11  C6  UNL     1      -7.667 -24.862  18.718  1.00  0.00    -0.017 A 
HETATM   12  C7  UNL     1      -7.228 -26.082  19.154  1.00  0.00     0.047 A 
HETATM   13  C8  UNL     1      -7.900 -27.238  18.816  1.00  0.00     0.101 A 
HETATM   14  C9  UNL     1      -7.449 -28.487  19.263  1.00  0.00     0.160 A 
HETATM   15  N3  UNL     1      -6.298 -28.486  20.057  1.00  0.00    -0.080 NA
HETATM   16  N4  UNL     1      -8.137 -29.571  18.905  1.00  0.00    -0.175 N 
ATOM     17  H4  UNL     1      -7.806 -30.479  19.232  1.00  0.00     0.185 HD
HETATM   18  C10 UNL     1      -9.243 -29.540  18.139  1.00  0.00     0.694 A 
HETATM   19  N6  UNL     1      -9.651 -28.331  17.726  1.00  0.00    -0.123 N 
ATOM     20  H6  UNL     1     -10.486 -28.266  17.143  1.00  0.00     0.206 HD
HETATM   21  N7  UNL     1      -8.999 -27.203  18.054  1.00  0.00    -0.222 N 
ENDROOT
BRANCH  18  22
HETATM   22  N5  UNL     1      -9.834 -30.634  17.850  1.00  0.00    -0.220 N 
ATOM     23  H5  UNL     1      -9.997 -30.828  16.862  1.00  0.00     0.178 HD
BRANCH  22  24
HETATM   24  C11 UNL     1     -10.288 -31.610  18.785  1.00  0.00     0.184 C 
BRANCH  24  25
HETATM   25  C12 UNL     1      -9.764 -32.967  18.404  1.00  0.00     0.001 A 
HETATM   26  C13 UNL     1     -10.463 -34.076  17.997  1.00  0.00     0.017 A 
HETATM   27  C14 UNL     1      -9.755 -35.174  17.713  1.00  0.00     0.008 A 
HETATM   28  C15 UNL     1      -8.396 -35.105  17.852  1.00  0.00     0.050 A 
HETATM   29  S1  UNL     1      -8.149 -33.500  18.377  1.00  0.00    -0.105 SA
ENDBRANCH  24  25
ENDBRANCH  22  24
ENDBRANCH  18  22
TORSDOF 3
ENDMDL
