MODEL 1
REMARK VINA RESULT: -7.829599381      0.000      0.000
REMARK  3 active torsions:
REMARK  status: ('A' for Active; 'I' for Inactive)
REMARK    1  A    between atoms: C6_10  and  C7_11 
REMARK    2  A    between atoms: C7_11  and  N6_19 
REMARK       I    between atoms: N3_12  and  C8_14 
REMARK    3  A    between atoms: N6_19  and  C9_21 
ROOT
HETATM    1  C7  UNL     1      -7.385 -26.444  19.284  1.00  0.00     0.155 C 
HETATM    2  N3  UNL     1      -7.278 -26.423  20.558  1.00  0.00    -0.314 N 
ATOM      3  H3  UNL     1      -7.217 -25.525  21.038  1.00  0.00     0.170 HD
HETATM    4  C8  UNL     1      -7.241 -27.612  21.311  1.00  0.00     0.187 C 
HETATM    5  N4  UNL     1      -8.297 -28.260  21.679  1.00  0.00    -0.373 N 
ATOM      6  H41 UNL     1      -8.270 -29.121  22.225  1.00  0.00     0.158 HD
ATOM      7  H42 UNL     1      -9.206 -27.886  21.407  1.00  0.00     0.158 HD
HETATM    8  N5  UNL     1      -5.982 -28.130  21.688  1.00  0.00    -0.064 NA
ENDROOT
BRANCH   1   9
HETATM    9  C6  UNL     1      -7.419 -25.188  18.532  1.00  0.00     0.182 A 
HETATM   10  N2  UNL     1      -7.642 -25.008  17.222  1.00  0.00    -0.168 N 
HETATM   11  C5  UNL     1      -7.585 -23.696  16.955  1.00  0.00     0.725 A 
ATOM     12  H2  UNL     1      -7.824 -25.746  16.542  1.00  0.00     0.186 HD
HETATM   13  N1  UNL     1      -7.731 -22.890  15.792  1.00  0.00    -0.199 N 
HETATM   14  N8  UNL     1      -7.323 -23.093  18.135  1.00  0.00     0.021 N 
HETATM   15  C4  UNL     1      -7.624 -21.615  15.819  1.00  0.00     0.119 A 
ATOM     16  H1  UNL     1      -7.930 -23.347  14.901  1.00  0.00     0.183 HD
HETATM   17  C2  UNL     1      -7.340 -20.923  17.079  1.00  0.00     0.117 A 
HETATM   18  C1  UNL     1      -8.550 -20.016  17.341  1.00  0.00     0.054 C 
HETATM   19  C3  UNL     1      -6.086 -20.069  16.997  1.00  0.00     0.054 C 
HETATM   20  O1  UNL     1      -7.204 -21.741  18.200  1.00  0.00    -0.228 OA
HETATM   21  N7  UNL     1      -7.222 -23.991  19.095  1.00  0.00    -0.240 N 
ATOM     22  H7  UNL     1      -7.030 -23.808  20.079  1.00  0.00     0.192 HD
ENDBRANCH   1   9
BRANCH   1  23
HETATM   23  N6  UNL     1      -7.468 -27.686  18.613  1.00  0.00    -0.334 N 
ATOM     24  H6  UNL     1      -6.631 -28.234  18.415  1.00  0.00     0.168 HD
BRANCH  23  25
HETATM   25  C9  UNL     1      -8.761 -28.146  18.223  1.00  0.00     0.075 A 
HETATM   26  C10 UNL     1      -9.743 -27.481  17.533  1.00  0.00     0.038 A 
HETATM   27  C11 UNL     1     -10.883 -28.156  17.293  1.00  0.00     0.010 A 
HETATM   28  C12 UNL     1     -10.968 -29.437  17.752  1.00  0.00     0.052 A 
HETATM   29  S1  UNL     1      -9.459 -29.674  18.508  1.00  0.00    -0.084 SA
ENDBRANCH  23  25
ENDBRANCH   1  23
TORSDOF 3
ENDMDL
MODEL 2
REMARK VINA RESULT: -7.537140876      3.612      7.500
REMARK  3 active torsions:
REMARK  status: ('A' for Active; 'I' for Inactive)
REMARK    1  A    between atoms: C6_10  and  C7_11 
REMARK    2  A    between atoms: C7_11  and  N6_19 
REMARK       I    between atoms: N3_12  and  C8_14 
REMARK    3  A    between atoms: N6_19  and  C9_21 
ROOT
HETATM    1  C7  UNL     1      -6.524 -20.601  16.792  1.00  0.00     0.155 C 
HETATM    2  N3  UNL     1      -5.327 -20.431  16.376  1.00  0.00    -0.314 N 
ATOM      3  H3  UNL     1      -4.748 -21.246  16.177  1.00  0.00     0.170 HD
HETATM    4  C8  UNL     1      -4.792 -19.142  16.187  1.00  0.00     0.187 C 
HETATM    5  N4  UNL     1      -4.978 -18.439  15.118  1.00  0.00    -0.373 N 
ATOM      6  H41 UNL     1      -4.590 -17.505  14.981  1.00  0.00     0.158 HD
ATOM      7  H42 UNL     1      -5.545 -18.843  14.372  1.00  0.00     0.158 HD
HETATM    8  N5  UNL     1      -4.008 -18.582  17.219  1.00  0.00    -0.064 NA
ENDROOT
BRANCH   1   9
HETATM    9  C6  UNL     1      -7.048 -21.955  16.978  1.00  0.00     0.182 A 
HETATM   10  N2  UNL     1      -7.651 -22.474  18.058  1.00  0.00    -0.168 N 
HETATM   11  C5  UNL     1      -7.972 -23.748  17.798  1.00  0.00     0.725 A 
ATOM     12  H2  UNL     1      -7.835 -21.980  18.932  1.00  0.00     0.186 HD
HETATM   13  N1  UNL     1      -8.608 -24.800  18.514  1.00  0.00    -0.199 N 
HETATM   14  N8  UNL     1      -7.548 -23.983  16.537  1.00  0.00     0.021 N 
HETATM   15  C4  UNL     1      -8.794 -25.962  18.010  1.00  0.00     0.119 A 
ATOM     16  H1  UNL     1      -8.928 -24.622  19.466  1.00  0.00     0.183 HD
HETATM   17  C2  UNL     1      -8.348 -26.257  16.645  1.00  0.00     0.117 A 
HETATM   18  C1  UNL     1      -9.617 -26.601  15.854  1.00  0.00     0.054 C 
HETATM   19  C3  UNL     1      -7.394 -27.439  16.594  1.00  0.00     0.054 C 
HETATM   20  O1  UNL     1      -7.730 -25.205  15.971  1.00  0.00    -0.228 OA
HETATM   21  N7  UNL     1      -6.988 -22.901  16.034  1.00  0.00    -0.240 N 
ATOM     22  H7  UNL     1      -6.585 -22.804  15.103  1.00  0.00     0.192 HD
ENDBRANCH   1   9
BRANCH   1  23
HETATM   23  N6  UNL     1      -7.331 -19.474  17.070  1.00  0.00    -0.334 N 
ATOM     24  H6  UNL     1      -7.051 -18.786  17.770  1.00  0.00     0.168 HD
BRANCH  23  25
HETATM   25  C9  UNL     1      -8.548 -19.330  16.340  1.00  0.00     0.075 A 
HETATM   26  C10 UNL     1      -9.831 -19.611  16.735  1.00  0.00     0.038 A 
HETATM   27  C11 UNL     1     -10.810 -19.380  15.840  1.00  0.00     0.010 A 
HETATM   28  C12 UNL     1     -10.448 -18.889  14.621  1.00  0.00     0.052 A 
HETATM   29  S1  UNL     1      -8.753 -18.760  14.747  1.00  0.00    -0.084 SA
ENDBRANCH  23  25
ENDBRANCH   1  23
TORSDOF 3
ENDMDL
MODEL 3
REMARK VINA RESULT: -7.383185111      3.191      4.532
REMARK  3 active torsions:
REMARK  status: ('A' for Active; 'I' for Inactive)
REMARK    1  A    between atoms: C6_10  and  C7_11 
REMARK    2  A    between atoms: C7_11  and  N6_19 
REMARK       I    between atoms: N3_12  and  C8_14 
REMARK    3  A    between atoms: N6_19  and  C9_21 
ROOT
HETATM    1  C7  UNL     1      -9.500 -30.258  19.011  1.00  0.00     0.155 C 
HETATM    2  N3  UNL     1      -9.412 -30.761  20.183  1.00  0.00    -0.314 N 
ATOM      3  H3  UNL     1      -9.039 -30.193  20.944  1.00  0.00     0.170 HD
HETATM    4  C8  UNL     1      -9.819 -32.084  20.447  1.00  0.00     0.187 C 
HETATM    5  N4  UNL     1     -11.044 -32.422  20.684  1.00  0.00    -0.373 N 
ATOM      6  H41 UNL     1     -11.338 -33.380  20.875  1.00  0.00     0.158 HD
ATOM      7  H42 UNL     1     -11.752 -31.689  20.680  1.00  0.00     0.158 HD
HETATM    8  N5  UNL     1      -8.839 -33.100  20.453  1.00  0.00    -0.064 NA
ENDROOT
BRANCH   1   9
HETATM    9  C6  UNL     1      -9.066 -28.880  18.773  1.00  0.00     0.182 A 
HETATM   10  N2  UNL     1      -8.068 -28.207  19.364  1.00  0.00    -0.168 N 
HETATM   11  C5  UNL     1      -8.018 -26.973  18.844  1.00  0.00     0.725 A 
ATOM     12  H2  UNL     1      -7.449 -28.574  20.088  1.00  0.00     0.186 HD
HETATM   13  N1  UNL     1      -7.209 -25.820  19.045  1.00  0.00    -0.199 N 
HETATM   14  N8  UNL     1      -9.010 -26.920  17.928  1.00  0.00     0.021 N 
HETATM   15  C4  UNL     1      -7.384 -24.733  18.392  1.00  0.00     0.119 A 
ATOM     16  H1  UNL     1      -6.460 -25.861  19.737  1.00  0.00     0.183 HD
HETATM   17  C2  UNL     1      -8.449 -24.636  17.389  1.00  0.00     0.117 A 
HETATM   18  C1  UNL     1      -7.744 -24.375  16.052  1.00  0.00     0.054 C 
HETATM   19  C3  UNL     1      -9.408 -23.493  17.678  1.00  0.00     0.054 C 
HETATM   20  O1  UNL     1      -9.223 -25.783  17.217  1.00  0.00    -0.228 OA
HETATM   21  N7  UNL     1      -9.648 -28.072  17.880  1.00  0.00    -0.240 N 
ATOM     22  H7  UNL     1     -10.436 -28.304  17.276  1.00  0.00     0.192 HD
ENDBRANCH   1   9
BRANCH   1  23
HETATM   23  N6  UNL     1     -10.014 -31.043  17.954  1.00  0.00    -0.334 N 
ATOM     24  H6  UNL     1     -11.002 -31.295  17.918  1.00  0.00     0.168 HD
BRANCH  23  25
HETATM   25  C9  UNL     1      -9.106 -31.470  16.940  1.00  0.00     0.075 A 
HETATM   26  C10 UNL     1      -9.213 -31.348  15.577  1.00  0.00     0.038 A 
HETATM   27  C11 UNL     1      -8.201 -31.842  14.839  1.00  0.00     0.010 A 
HETATM   28  C12 UNL     1      -7.159 -32.420  15.501  1.00  0.00     0.052 A 
HETATM   29  S1  UNL     1      -7.611 -32.263  17.138  1.00  0.00    -0.084 SA
ENDBRANCH  23  25
ENDBRANCH   1  23
TORSDOF 3
ENDMDL
MODEL 4
REMARK VINA RESULT: -7.286337508      1.224      1.314
REMARK  3 active torsions:
REMARK  status: ('A' for Active; 'I' for Inactive)
REMARK    1  A    between atoms: C6_10  and  C7_11 
REMARK    2  A    between atoms: C7_11  and  N6_19 
REMARK       I    between atoms: N3_12  and  C8_14 
REMARK    3  A    between atoms: N6_19  and  C9_21 
ROOT
HETATM    1  C7  UNL     1      -7.693 -25.732  18.780  1.00  0.00     0.155 C 
HETATM    2  N3  UNL     1      -6.730 -26.231  19.456  1.00  0.00    -0.314 N 
ATOM      3  H3  UNL     1      -5.833 -25.747  19.480  1.00  0.00     0.170 HD
HETATM    4  C8  UNL     1      -6.882 -27.437  20.168  1.00  0.00     0.187 C 
HETATM    5  N4  UNL     1      -7.396 -27.510  21.352  1.00  0.00    -0.373 N 
ATOM      6  H41 UNL     1      -7.506 -28.383  21.868  1.00  0.00     0.158 HD
ATOM      7  H42 UNL     1      -7.709 -26.644  21.792  1.00  0.00     0.158 HD
HETATM    8  N5  UNL     1      -6.450 -28.636  19.560  1.00  0.00    -0.064 NA
ENDROOT
BRANCH   1   9
HETATM    9  C6  UNL     1      -7.500 -24.477  18.050  1.00  0.00     0.182 A 
HETATM   10  N2  UNL     1      -7.493 -24.277  16.724  1.00  0.00    -0.168 N 
HETATM   11  C5  UNL     1      -7.283 -22.975  16.489  1.00  0.00     0.725 A 
ATOM     12  H2  UNL     1      -7.625 -24.997  16.013  1.00  0.00     0.186 HD
HETATM   13  N1  UNL     1      -7.172 -22.159  15.329  1.00  0.00    -0.199 N 
HETATM   14  N8  UNL     1      -7.164 -22.397  17.704  1.00  0.00     0.021 N 
HETATM   15  C4  UNL     1      -6.963 -20.898  15.391  1.00  0.00     0.119 A 
ATOM     16  H1  UNL     1      -7.263 -22.596  14.411  1.00  0.00     0.183 HD
HETATM   17  C2  UNL     1      -6.828 -20.233  16.691  1.00  0.00     0.117 A 
HETATM   18  C1  UNL     1      -7.983 -19.226  16.769  1.00  0.00     0.054 C 
HETATM   19  C3  UNL     1      -5.509 -19.490  16.823  1.00  0.00     0.054 C 
HETATM   20  O1  UNL     1      -6.943 -21.061  17.807  1.00  0.00    -0.228 OA
HETATM   21  N7  UNL     1      -7.295 -23.301  18.654  1.00  0.00    -0.240 N 
ATOM     22  H7  UNL     1      -7.248 -23.136  19.659  1.00  0.00     0.192 HD
ENDBRANCH   1   9
BRANCH   1  23
HETATM   23  N6  UNL     1      -8.938 -26.400  18.742  1.00  0.00    -0.334 N 
ATOM     24  H6  UNL     1      -9.629 -26.267  19.480  1.00  0.00     0.168 HD
BRANCH  23  25
HETATM   25  C9  UNL     1      -9.195 -27.267  17.638  1.00  0.00     0.075 A 
HETATM   26  C10 UNL     1      -9.410 -26.948  16.321  1.00  0.00     0.038 A 
HETATM   27  C11 UNL     1      -9.631 -27.970  15.474  1.00  0.00     0.010 A 
HETATM   28  C12 UNL     1      -9.622 -29.232  15.990  1.00  0.00     0.052 A 
HETATM   29  S1  UNL     1      -9.307 -28.967  17.644  1.00  0.00    -0.084 SA
ENDBRANCH  23  25
ENDBRANCH   1  23
TORSDOF 3
ENDMDL
MODEL 5
REMARK VINA RESULT: -7.196930918      3.665      5.301
REMARK  3 active torsions:
REMARK  status: ('A' for Active; 'I' for Inactive)
REMARK    1  A    between atoms: C6_10  and  C7_11 
REMARK    2  A    between atoms: C7_11  and  N6_19 
REMARK       I    between atoms: N3_12  and  C8_14 
REMARK    3  A    between atoms: N6_19  and  C9_21 
ROOT
HETATM    1  C7  UNL     1     -10.716 -30.729  18.196  1.00  0.00     0.155 C 
HETATM    2  N3  UNL     1     -10.659 -31.412  19.275  1.00  0.00    -0.314 N 
ATOM      3  H3  UNL     1     -10.157 -31.035  20.079  1.00  0.00     0.170 HD
HETATM    4  C8  UNL     1     -11.274 -32.675  19.377  1.00  0.00     0.187 C 
HETATM    5  N4  UNL     1     -12.526 -32.842  19.654  1.00  0.00    -0.373 N 
ATOM      6  H41 UNL     1     -12.971 -33.757  19.728  1.00  0.00     0.158 HD
ATOM      7  H42 UNL     1     -13.097 -32.011  19.807  1.00  0.00     0.158 HD
HETATM    8  N5  UNL     1     -10.484 -33.827  19.165  1.00  0.00    -0.064 NA
ENDROOT
BRANCH   1   9
HETATM    9  C6  UNL     1     -10.064 -29.420  18.125  1.00  0.00     0.182 A 
HETATM   10  N2  UNL     1      -8.891 -29.043  18.655  1.00  0.00    -0.168 N 
HETATM   11  C5  UNL     1      -8.675 -27.758  18.346  1.00  0.00     0.725 A 
ATOM     12  H2  UNL     1      -8.267 -29.637  19.202  1.00  0.00     0.186 HD
HETATM   13  N1  UNL     1      -7.645 -26.812  18.606  1.00  0.00    -0.199 N 
HETATM   14  N8  UNL     1      -9.746 -27.370  17.619  1.00  0.00     0.021 N 
HETATM   15  C4  UNL     1      -7.692 -25.606  18.178  1.00  0.00     0.119 A 
ATOM     16  H1  UNL     1      -6.836 -27.105  19.155  1.00  0.00     0.183 HD
HETATM   17  C2  UNL     1      -8.837 -25.147  17.385  1.00  0.00     0.117 A 
HETATM   18  C1  UNL     1      -8.268 -24.753  16.016  1.00  0.00     0.054 C 
HETATM   19  C3  UNL     1      -9.519 -23.940  18.007  1.00  0.00     0.054 C 
HETATM   20  O1  UNL     1      -9.828 -26.098  17.148  1.00  0.00    -0.228 OA
HETATM   21  N7  UNL     1     -10.591 -28.372  17.481  1.00  0.00    -0.240 N 
ATOM     22  H7  UNL     1     -11.478 -28.352  16.978  1.00  0.00     0.192 HD
ENDBRANCH   1   9
BRANCH   1  23
HETATM   23  N6  UNL     1     -11.409 -31.248  17.079  1.00  0.00    -0.334 N 
ATOM     24  H6  UNL     1     -12.400 -31.483  17.137  1.00  0.00     0.168 HD
BRANCH  23  25
HETATM   25  C9  UNL     1     -10.677 -31.432  15.868  1.00  0.00     0.075 A 
HETATM   26  C10 UNL     1     -10.787 -30.753  14.680  1.00  0.00     0.038 A 
HETATM   27  C11 UNL     1      -9.966 -31.131  13.683  1.00  0.00     0.010 A 
HETATM   28  C12 UNL     1      -9.096 -32.151  13.934  1.00  0.00     0.052 A 
HETATM   29  S1  UNL     1      -9.442 -32.561  15.552  1.00  0.00    -0.084 SA
ENDBRANCH  23  25
ENDBRANCH   1  23
TORSDOF 3
ENDMDL
