MODEL 1
REMARK VINA RESULT: -8.487653835      0.000      0.000
REMARK  3 active torsions:
REMARK  status: ('A' for Active; 'I' for Inactive)
REMARK    1  A    between atoms: C3_4  and  C4_5 
REMARK    2  A    between atoms: C11_17  and  C12_18 
REMARK    3  A    between atoms: C17_28  and  N8_29 
ROOT
HETATM    1  N1  UNL     1      -6.315 -28.253  19.535  1.00  0.00    -0.191 NA
HETATM    2  C1  UNL     1      -7.387 -28.296  19.108  1.00  0.00     0.105 C 
HETATM    3  C2  UNL     1      -8.707 -28.382  18.551  1.00  0.00     0.118 A 
HETATM    4  C3  UNL     1      -9.327 -27.411  17.826  1.00  0.00     0.084 A 
HETATM    5  N3  UNL     1     -10.562 -27.703  17.292  1.00  0.00    -0.187 N 
ATOM      6  H3  UNL     1     -11.032 -26.982  16.746  1.00  0.00     0.184 HD
HETATM    7  C10 UNL     1     -11.174 -28.869  17.448  1.00  0.00     0.707 A 
HETATM    8  N4  UNL     1     -12.367 -29.389  17.032  1.00  0.00    -0.172 N 
ATOM      9  H4  UNL     1     -13.065 -28.908  16.464  1.00  0.00     0.186 HD
HETATM   10  C11 UNL     1     -12.459 -30.629  17.495  1.00  0.00     0.148 A 
HETATM   11  N6  UNL     1     -11.341 -30.864  18.184  1.00  0.00    -0.261 N 
ATOM     12  H6  UNL     1     -11.128 -31.741  18.658  1.00  0.00     0.190 HD
HETATM   13  N7  UNL     1     -10.545 -29.809  18.170  1.00  0.00    -0.067 N 
HETATM   14  C17 UNL     1      -9.348 -29.618  18.723  1.00  0.00     0.162 A 
ENDROOT
BRANCH   4  15
HETATM   15  C4  UNL     1      -8.720 -26.121  17.526  1.00  0.00    -0.007 A 
HETATM   16  C5  UNL     1      -8.560 -25.067  18.368  1.00  0.00     0.015 A 
HETATM   17  C6  UNL     1      -7.873 -23.897  17.993  1.00  0.00     0.027 A 
HETATM   18  C7  UNL     1      -7.323 -23.751  16.746  1.00  0.00     0.046 A 
HETATM   19  N2  UNL     1      -6.623 -22.581  16.338  1.00  0.00    -0.102 NA
HETATM   20  C8  UNL     1      -7.477 -24.807  15.878  1.00  0.00     0.027 A 
HETATM   21  C9  UNL     1      -8.146 -25.945  16.249  1.00  0.00     0.015 A 
ENDBRANCH   4  15
BRANCH  14  22
HETATM   22  N8  UNL     1      -8.798 -30.576  19.410  1.00  0.00    -0.382 N 
ATOM     23  H82 UNL     1      -8.897 -31.542  19.096  1.00  0.00     0.157 HD
ATOM     24  H81 UNL     1      -8.268 -30.384  20.260  1.00  0.00     0.157 HD
ENDBRANCH  14  22
BRANCH  10  25
HETATM   25  C12 UNL     1     -13.546 -31.587  17.315  1.00  0.00     0.025 A 
HETATM   26  C13 UNL     1     -14.018 -31.909  16.076  1.00  0.00     0.018 A 
HETATM   27  C14 UNL     1     -15.046 -32.816  15.926  1.00  0.00     0.018 A 
HETATM   28  C15 UNL     1     -15.599 -33.403  17.051  1.00  0.00     0.087 A 
HETATM   29  N5  UNL     1     -15.130 -33.084  18.280  1.00  0.00    -0.374 N 
HETATM   30  C16 UNL     1     -14.127 -32.196  18.404  1.00  0.00     0.102 A 
ATOM     31  H5  UNL     1     -15.537 -33.515  19.110  1.00  0.00     0.164 HD
ENDBRANCH  10  25
TORSDOF 3
ENDMDL
MODEL 2
REMARK VINA RESULT: -8.388308206      0.431      1.001
REMARK  3 active torsions:
REMARK  status: ('A' for Active; 'I' for Inactive)
REMARK    1  A    between atoms: C3_4  and  C4_5 
REMARK    2  A    between atoms: C11_17  and  C12_18 
REMARK    3  A    between atoms: C17_28  and  N8_29 
ROOT
HETATM    1  N1  UNL     1      -6.316 -27.911  19.364  1.00  0.00    -0.191 NA
HETATM    2  C1  UNL     1      -7.392 -28.005  18.953  1.00  0.00     0.105 C 
HETATM    3  C2  UNL     1      -8.715 -28.155  18.419  1.00  0.00     0.118 A 
HETATM    4  C3  UNL     1      -9.358 -27.254  17.626  1.00  0.00     0.084 A 
HETATM    5  N3  UNL     1     -10.593 -27.607  17.130  1.00  0.00    -0.187 N 
ATOM      6  H3  UNL     1     -11.080 -26.939  16.534  1.00  0.00     0.184 HD
HETATM    7  C10 UNL     1     -11.184 -28.766  17.384  1.00  0.00     0.707 A 
HETATM    8  N4  UNL     1     -12.372 -29.337  17.023  1.00  0.00    -0.172 N 
ATOM      9  H4  UNL     1     -13.083 -28.913  16.427  1.00  0.00     0.186 HD
HETATM   10  C11 UNL     1     -12.439 -30.538  17.583  1.00  0.00     0.148 A 
HETATM   11  N6  UNL     1     -11.311 -30.700  18.276  1.00  0.00    -0.261 N 
ATOM     12  H6  UNL     1     -11.079 -31.534  18.816  1.00  0.00     0.190 HD
HETATM   13  N7  UNL     1     -10.532 -29.637  18.171  1.00  0.00    -0.067 N 
HETATM   14  C17 UNL     1      -9.334 -29.384  18.694  1.00  0.00     0.162 A 
ENDROOT
BRANCH   4  15
HETATM   15  C4  UNL     1      -8.776 -25.983  17.220  1.00  0.00    -0.007 A 
HETATM   16  C5  UNL     1      -7.969 -25.746  16.153  1.00  0.00     0.015 A 
HETATM   17  C6  UNL     1      -7.537 -24.452  15.804  1.00  0.00     0.027 A 
HETATM   18  C7  UNL     1      -7.906 -23.347  16.527  1.00  0.00     0.046 A 
HETATM   19  N2  UNL     1      -7.486 -22.028  16.199  1.00  0.00    -0.102 NA
HETATM   20  C8  UNL     1      -8.721 -23.568  17.613  1.00  0.00     0.027 A 
HETATM   21  C9  UNL     1      -9.140 -24.830  17.949  1.00  0.00     0.015 A 
ENDBRANCH   4  15
BRANCH  14  22
HETATM   22  N8  UNL     1      -8.762 -30.276  19.449  1.00  0.00    -0.382 N 
ATOM     23  H82 UNL     1      -9.275 -30.676  20.235  1.00  0.00     0.157 HD
ATOM     24  H81 UNL     1      -7.806 -30.587  19.272  1.00  0.00     0.157 HD
ENDBRANCH  14  22
BRANCH  10  25
HETATM   25  C12 UNL     1     -13.511 -31.525  17.491  1.00  0.00     0.025 A 
HETATM   26  C13 UNL     1     -14.003 -31.936  16.287  1.00  0.00     0.018 A 
HETATM   27  C14 UNL     1     -15.016 -32.869  16.219  1.00  0.00     0.018 A 
HETATM   28  C15 UNL     1     -15.535 -33.388  17.393  1.00  0.00     0.087 A 
HETATM   29  N5  UNL     1     -15.048 -32.980  18.587  1.00  0.00    -0.374 N 
HETATM   30  C16 UNL     1     -14.058 -32.069  18.631  1.00  0.00     0.102 A 
ATOM     31  H5  UNL     1     -15.429 -33.362  19.452  1.00  0.00     0.164 HD
ENDBRANCH  10  25
TORSDOF 3
ENDMDL
MODEL 3
REMARK VINA RESULT: -8.320596697      1.367      7.989
REMARK  3 active torsions:
REMARK  status: ('A' for Active; 'I' for Inactive)
REMARK    1  A    between atoms: C3_4  and  C4_5 
REMARK    2  A    between atoms: C11_17  and  C12_18 
REMARK    3  A    between atoms: C17_28  and  N8_29 
ROOT
HETATM    1  N1  UNL     1      -9.834 -32.743  19.700  1.00  0.00    -0.191 NA
HETATM    2  C1  UNL     1     -10.085 -31.776  19.120  1.00  0.00     0.105 C 
HETATM    3  C2  UNL     1     -10.394 -30.552  18.436  1.00  0.00     0.118 A 
HETATM    4  C3  UNL     1     -11.573 -30.264  17.819  1.00  0.00     0.084 A 
HETATM    5  N3  UNL     1     -11.724 -29.002  17.291  1.00  0.00    -0.187 N 
ATOM      6  H3  UNL     1     -12.605 -28.777  16.829  1.00  0.00     0.184 HD
HETATM    7  C10 UNL     1     -10.790 -28.062  17.348  1.00  0.00     0.707 A 
HETATM    8  N4  UNL     1     -10.700 -26.771  16.912  1.00  0.00    -0.172 N 
ATOM      9  H4  UNL     1     -11.424 -26.256  16.411  1.00  0.00     0.186 HD
HETATM   10  C11 UNL     1      -9.506 -26.303  17.255  1.00  0.00     0.148 A 
HETATM   11  N6  UNL     1      -8.875 -27.292  17.889  1.00  0.00    -0.261 N 
ATOM     12  H6  UNL     1      -7.932 -27.225  18.271  1.00  0.00     0.190 HD
HETATM   13  N7  UNL     1      -9.636 -28.372  17.959  1.00  0.00    -0.067 N 
HETATM   14  C17 UNL     1      -9.399 -29.566  18.501  1.00  0.00     0.162 A 
ENDROOT
BRANCH   4  15
HETATM   15  C4  UNL     1     -12.696 -31.189  17.760  1.00  0.00    -0.007 A 
HETATM   16  C5  UNL     1     -13.426 -31.670  18.799  1.00  0.00     0.015 A 
HETATM   17  C6  UNL     1     -14.554 -32.493  18.613  1.00  0.00     0.027 A 
HETATM   18  C7  UNL     1     -14.982 -32.861  17.364  1.00  0.00     0.046 A 
HETATM   19  N2  UNL     1     -16.117 -33.691  17.145  1.00  0.00    -0.102 NA
HETATM   20  C8  UNL     1     -14.253 -32.386  16.299  1.00  0.00     0.027 A 
HETATM   21  C9  UNL     1     -13.156 -31.584  16.485  1.00  0.00     0.015 A 
ENDBRANCH   4  15
BRANCH  14  22
HETATM   22  N8  UNL     1      -8.255 -29.794  19.077  1.00  0.00    -0.382 N 
ATOM     23  H82 UNL     1      -7.729 -30.635  18.837  1.00  0.00     0.157 HD
ATOM     24  H81 UNL     1      -7.869 -29.149  19.766  1.00  0.00     0.157 HD
ENDBRANCH  14  22
BRANCH  10  25
HETATM   25  C12 UNL     1      -8.946 -24.977  17.009  1.00  0.00     0.025 A 
HETATM   26  C13 UNL     1      -8.185 -24.716  15.907  1.00  0.00     0.018 A 
HETATM   27  C14 UNL     1      -7.664 -23.457  15.692  1.00  0.00     0.018 A 
HETATM   28  C15 UNL     1      -7.921 -22.453  16.610  1.00  0.00     0.087 A 
HETATM   29  N5  UNL     1      -8.675 -22.713  17.703  1.00  0.00    -0.374 N 
HETATM   30  C16 UNL     1      -9.174 -23.948  17.894  1.00  0.00     0.102 A 
ATOM     31  H5  UNL     1      -8.865 -21.975  18.381  1.00  0.00     0.164 HD
ENDBRANCH  10  25
TORSDOF 3
ENDMDL
MODEL 4
REMARK VINA RESULT: -8.212795596      2.587      3.970
REMARK  3 active torsions:
REMARK  status: ('A' for Active; 'I' for Inactive)
REMARK    1  A    between atoms: C3_4  and  C4_5 
REMARK    2  A    between atoms: C11_17  and  C12_18 
REMARK    3  A    between atoms: C17_28  and  N8_29 
ROOT
HETATM    1  N1  UNL     1      -6.610 -23.256  19.589  1.00  0.00    -0.191 NA
HETATM    2  C1  UNL     1      -7.177 -23.874  18.795  1.00  0.00     0.105 C 
HETATM    3  C2  UNL     1      -7.848 -24.671  17.809  1.00  0.00     0.118 A 
HETATM    4  C3  UNL     1      -8.101 -24.297  16.524  1.00  0.00     0.084 A 
HETATM    5  N3  UNL     1      -8.678 -25.228  15.690  1.00  0.00    -0.187 N 
ATOM      6  H3  UNL     1      -8.868 -24.958  14.726  1.00  0.00     0.184 HD
HETATM    7  C10 UNL     1      -9.000 -26.458  16.070  1.00  0.00     0.707 A 
HETATM    8  N4  UNL     1      -9.566 -27.535  15.451  1.00  0.00    -0.172 N 
ATOM      9  H4  UNL     1      -9.869 -27.576  14.478  1.00  0.00     0.186 HD
HETATM   10  C11 UNL     1      -9.652 -28.520  16.336  1.00  0.00     0.148 A 
HETATM   11  N6  UNL     1      -9.147 -28.053  17.479  1.00  0.00    -0.261 N 
ATOM     12  H6  UNL     1      -9.081 -28.589  18.344  1.00  0.00     0.190 HD
HETATM   13  N7  UNL     1      -8.744 -26.801  17.342  1.00  0.00    -0.067 N 
HETATM   14  C17 UNL     1      -8.187 -25.969  18.220  1.00  0.00     0.162 A 
ENDROOT
BRANCH   4  15
HETATM   15  C4  UNL     1      -7.724 -23.002  15.975  1.00  0.00    -0.007 A 
HETATM   16  C5  UNL     1      -8.341 -21.809  16.174  1.00  0.00     0.015 A 
HETATM   17  C6  UNL     1      -7.831 -20.599  15.664  1.00  0.00     0.027 A 
HETATM   18  C7  UNL     1      -6.675 -20.556  14.929  1.00  0.00     0.046 A 
HETATM   19  N2  UNL     1      -6.135 -19.349  14.401  1.00  0.00    -0.102 NA
HETATM   20  C8  UNL     1      -6.037 -21.755  14.715  1.00  0.00     0.027 A 
HETATM   21  C9  UNL     1      -6.537 -22.930  15.215  1.00  0.00     0.015 A 
ENDBRANCH   4  15
BRANCH  14  22
HETATM   22  N8  UNL     1      -7.969 -26.372  19.438  1.00  0.00    -0.382 N 
ATOM     23  H82 UNL     1      -8.759 -26.616  20.037  1.00  0.00     0.157 HD
ATOM     24  H81 UNL     1      -7.023 -26.449  19.810  1.00  0.00     0.157 HD
ENDBRANCH  14  22
BRANCH  10  25
HETATM   25  C12 UNL     1     -10.185 -29.867  16.147  1.00  0.00     0.025 A 
HETATM   26  C13 UNL     1     -10.360 -30.399  14.904  1.00  0.00     0.018 A 
HETATM   27  C14 UNL     1     -10.865 -31.672  14.745  1.00  0.00     0.018 A 
HETATM   28  C15 UNL     1     -11.196 -32.412  15.868  1.00  0.00     0.087 A 
HETATM   29  N5  UNL     1     -11.022 -31.884  17.102  1.00  0.00    -0.374 N 
HETATM   30  C16 UNL     1     -10.528 -30.640  17.234  1.00  0.00     0.102 A 
ATOM     31  H5  UNL     1     -11.266 -32.428  17.929  1.00  0.00     0.164 HD
ENDBRANCH  10  25
TORSDOF 3
ENDMDL
MODEL 5
REMARK VINA RESULT: -8.053753133      2.395      8.771
REMARK  3 active torsions:
REMARK  status: ('A' for Active; 'I' for Inactive)
REMARK    1  A    between atoms: C3_4  and  C4_5 
REMARK    2  A    between atoms: C11_17  and  C12_18 
REMARK    3  A    between atoms: C17_28  and  N8_29 
ROOT
HETATM    1  N1  UNL     1      -8.292 -29.290  19.800  1.00  0.00    -0.191 NA
HETATM    2  C1  UNL     1      -8.366 -28.392  19.077  1.00  0.00     0.105 C 
HETATM    3  C2  UNL     1      -8.478 -27.253  18.210  1.00  0.00     0.118 A 
HETATM    4  C3  UNL     1      -9.239 -27.186  17.083  1.00  0.00     0.084 A 
HETATM    5  N3  UNL     1      -9.295 -25.979  16.423  1.00  0.00    -0.187 N 
ATOM      6  H3  UNL     1      -9.864 -25.919  15.579  1.00  0.00     0.184 HD
HETATM    7  C10 UNL     1      -8.651 -24.891  16.822  1.00  0.00     0.707 A 
HETATM    8  N4  UNL     1      -8.548 -23.612  16.354  1.00  0.00    -0.172 N 
ATOM      9  H4  UNL     1      -9.005 -23.239  15.521  1.00  0.00     0.186 HD
HETATM   10  C11 UNL     1      -7.750 -22.937  17.172  1.00  0.00     0.148 A 
HETATM   11  N6  UNL     1      -7.370 -23.790  18.125  1.00  0.00    -0.261 N 
ATOM     12  H6  UNL     1      -6.750 -23.552  18.899  1.00  0.00     0.190 HD
HETATM   13  N7  UNL     1      -7.905 -24.983  17.933  1.00  0.00    -0.067 N 
HETATM   14  C17 UNL     1      -7.792 -26.108  18.639  1.00  0.00     0.162 A 
ENDROOT
BRANCH   4  15
HETATM   15  C4  UNL     1     -10.047 -28.293  16.592  1.00  0.00    -0.007 A 
HETATM   16  C5  UNL     1      -9.726 -29.181  15.616  1.00  0.00     0.015 A 
HETATM   17  C6  UNL     1     -10.552 -30.273  15.285  1.00  0.00     0.027 A 
HETATM   18  C7  UNL     1     -11.738 -30.503  15.933  1.00  0.00     0.046 A 
HETATM   19  N2  UNL     1     -12.594 -31.597  15.622  1.00  0.00    -0.102 NA
HETATM   20  C8  UNL     1     -12.081 -29.612  16.923  1.00  0.00     0.027 A 
HETATM   21  C9  UNL     1     -11.273 -28.551  17.242  1.00  0.00     0.015 A 
ENDBRANCH   4  15
BRANCH  14  22
HETATM   22  N8  UNL     1      -7.050 -26.123  19.707  1.00  0.00    -0.382 N 
ATOM     23  H82 UNL     1      -7.487 -26.045  20.626  1.00  0.00     0.157 HD
ATOM     24  H81 UNL     1      -6.035 -26.211  19.648  1.00  0.00     0.157 HD
ENDBRANCH  14  22
BRANCH  10  25
HETATM   25  C12 UNL     1      -7.338 -21.539  17.090  1.00  0.00     0.025 A 
HETATM   26  C13 UNL     1      -8.248 -20.523  17.089  1.00  0.00     0.018 A 
HETATM   27  C14 UNL     1      -7.840 -19.208  17.010  1.00  0.00     0.018 A 
HETATM   28  C15 UNL     1      -6.487 -18.925  16.931  1.00  0.00     0.087 A 
HETATM   29  N5  UNL     1      -5.583 -19.932  16.932  1.00  0.00    -0.374 N 
HETATM   30  C16 UNL     1      -6.003 -21.208  17.009  1.00  0.00     0.102 A 
ATOM     31  H5  UNL     1      -4.587 -19.725  16.873  1.00  0.00     0.164 HD
ENDBRANCH  10  25
TORSDOF 3
ENDMDL
