MODEL 1
REMARK VINA RESULT: -7.333270134      0.000      0.000
REMARK  9 active torsions:
REMARK  status: ('A' for Active; 'I' for Inactive)
REMARK    1  A    between atoms: C2_2  and  C3_3 
REMARK    2  A    between atoms: C3_3  and  C6_6 
REMARK    3  A    between atoms: C6_6  and  C7_7 
REMARK    4  A    between atoms: C7_7  and  O1_8 
REMARK    5  A    between atoms: C7_7  and  C8_10 
REMARK    6  A    between atoms: C8_10  and  C9_11 
REMARK    7  A    between atoms: C9_11  and  C10_12 
REMARK    8  A    between atoms: C10_12  and  O2_13 
REMARK    9  A    between atoms: O2_13  and  C11_14 
ROOT
HETATM    1  C9  UNL     1      18.520  35.752  55.758  1.00  0.00     0.029 C 
ENDROOT
BRANCH   1   2
HETATM    2  C8  UNL     1      17.025  35.540  55.718  1.00  0.00     0.034 C 
BRANCH   2   3
HETATM    3  C7  UNL     1      16.292  36.412  56.711  1.00  0.00     0.122 C 
BRANCH   3   4
HETATM    4  C6  UNL     1      15.878  35.530  57.856  1.00  0.00     0.070 C 
BRANCH   4   5
HETATM    5  C3  UNL     1      16.911  35.213  58.834  1.00  0.00    -0.061 C 
HETATM    6  C4  UNL     1      17.562  36.119  59.522  1.00  0.00    -0.024 C 
HETATM    7  C5  UNL     1      18.596  35.675  60.515  1.00  0.00     0.036 C 
BRANCH   5   8
HETATM    8  C2  UNL     1      17.218  33.800  59.057  1.00  0.00    -0.004 C 
HETATM    9  C1  UNL     1      16.686  32.863  58.302  1.00  0.00     0.012 C 
ENDBRANCH   5   8
ENDBRANCH   4   5
ENDBRANCH   3   4
BRANCH   3  10
HETATM   10  O1  UNL     1      15.153  36.981  56.160  1.00  0.00    -0.395 OA
ATOM     11  H1  UNL     1      14.772  36.361  55.549  1.00  0.00     0.210 HD
ENDBRANCH   3  10
ENDBRANCH   2   3
ENDBRANCH   1   2
BRANCH   1  12
HETATM   12  C10 UNL     1      19.297  34.497  55.927  1.00  0.00     0.175 C 
BRANCH  12  13
HETATM   13  O2  UNL     1      20.615  34.760  56.216  1.00  0.00    -0.351 OA
BRANCH  13  14
HETATM   14  C11 UNL     1      21.485  34.406  57.186  1.00  0.00     0.075 A 
HETATM   15  C12 UNL     1      21.267  34.451  58.540  1.00  0.00     0.044 A 
HETATM   16  C13 UNL     1      22.213  34.070  59.492  1.00  0.00    -0.059 A 
HETATM   17  C14 UNL     1      21.924  34.137  60.951  1.00  0.00     0.048 C 
HETATM   18  C15 UNL     1      23.429  33.630  59.018  1.00  0.00     0.007 A 
HETATM   19  C16 UNL     1      23.663  33.581  57.665  1.00  0.00     0.010 A 
HETATM   20  C17 UNL     1      22.736  33.953  56.730  1.00  0.00    -0.029 A 
HETATM   21  C18 UNL     1      23.045  33.880  55.266  1.00  0.00     0.051 C 
ENDBRANCH  13  14
ENDBRANCH  12  13
ENDBRANCH   1  12
TORSDOF 9
ENDMDL
MODEL 2
REMARK VINA RESULT: -7.152076010      1.930      5.958
REMARK  9 active torsions:
REMARK  status: ('A' for Active; 'I' for Inactive)
REMARK    1  A    between atoms: C2_2  and  C3_3 
REMARK    2  A    between atoms: C3_3  and  C6_6 
REMARK    3  A    between atoms: C6_6  and  C7_7 
REMARK    4  A    between atoms: C7_7  and  O1_8 
REMARK    5  A    between atoms: C7_7  and  C8_10 
REMARK    6  A    between atoms: C8_10  and  C9_11 
REMARK    7  A    between atoms: C9_11  and  C10_12 
REMARK    8  A    between atoms: C10_12  and  O2_13 
REMARK    9  A    between atoms: O2_13  and  C11_14 
ROOT
HETATM    1  C9  UNL     1      19.868  34.094  59.148  1.00  0.00     0.029 C 
ENDROOT
BRANCH   1   2
HETATM    2  C8  UNL     1      21.127  34.863  58.826  1.00  0.00     0.034 C 
BRANCH   2   3
HETATM    3  C7  UNL     1      21.356  34.997  57.338  1.00  0.00     0.122 C 
BRANCH   3   4
HETATM    4  C6  UNL     1      20.063  34.646  56.656  1.00  0.00     0.070 C 
BRANCH   4   5
HETATM    5  C3  UNL     1      19.655  35.514  55.559  1.00  0.00    -0.061 C 
HETATM    6  C4  UNL     1      20.101  36.736  55.396  1.00  0.00    -0.024 C 
HETATM    7  C5  UNL     1      19.622  37.533  54.218  1.00  0.00     0.036 C 
BRANCH   5   8
HETATM    8  C2  UNL     1      18.704  34.971  54.588  1.00  0.00    -0.004 C 
HETATM    9  C1  UNL     1      18.199  33.765  54.733  1.00  0.00     0.012 C 
ENDBRANCH   5   8
ENDBRANCH   4   5
ENDBRANCH   3   4
BRANCH   3  10
HETATM   10  O1  UNL     1      22.342  34.132  56.884  1.00  0.00    -0.395 OA
ATOM     11  H1  UNL     1      23.141  34.306  57.369  1.00  0.00     0.210 HD
ENDBRANCH   3  10
ENDBRANCH   2   3
ENDBRANCH   1   2
BRANCH   1  12
HETATM   12  C10 UNL     1      19.069  34.691  60.249  1.00  0.00     0.175 C 
BRANCH  12  13
HETATM   13  O2  UNL     1      17.780  34.951  59.848  1.00  0.00    -0.351 OA
BRANCH  13  14
HETATM   14  C11 UNL     1      17.191  35.458  58.743  1.00  0.00     0.075 A 
HETATM   15  C12 UNL     1      17.373  36.713  58.219  1.00  0.00     0.044 A 
HETATM   16  C13 UNL     1      16.730  37.176  57.072  1.00  0.00    -0.059 A 
HETATM   17  C14 UNL     1      16.965  38.548  56.544  1.00  0.00     0.048 C 
HETATM   18  C15 UNL     1      15.865  36.303  56.450  1.00  0.00     0.007 A 
HETATM   19  C16 UNL     1      15.670  35.044  56.963  1.00  0.00     0.010 A 
HETATM   20  C17 UNL     1      16.301  34.587  58.088  1.00  0.00    -0.029 A 
HETATM   21  C18 UNL     1      16.052  33.204  58.605  1.00  0.00     0.051 C 
ENDBRANCH  13  14
ENDBRANCH  12  13
ENDBRANCH   1  12
TORSDOF 9
ENDMDL
MODEL 3
REMARK VINA RESULT: -7.132719188      1.559      3.465
REMARK  9 active torsions:
REMARK  status: ('A' for Active; 'I' for Inactive)
REMARK    1  A    between atoms: C2_2  and  C3_3 
REMARK    2  A    between atoms: C3_3  and  C6_6 
REMARK    3  A    between atoms: C6_6  and  C7_7 
REMARK    4  A    between atoms: C7_7  and  O1_8 
REMARK    5  A    between atoms: C7_7  and  C8_10 
REMARK    6  A    between atoms: C8_10  and  C9_11 
REMARK    7  A    between atoms: C9_11  and  C10_12 
REMARK    8  A    between atoms: C10_12  and  O2_13 
REMARK    9  A    between atoms: O2_13  and  C11_14 
ROOT
HETATM    1  C9  UNL     1      18.309  35.984  59.812  1.00  0.00     0.029 C 
ENDROOT
BRANCH   1   2
HETATM    2  C8  UNL     1      17.525  36.331  58.568  1.00  0.00     0.034 C 
BRANCH   2   3
HETATM    3  C7  UNL     1      16.241  35.541  58.458  1.00  0.00     0.122 C 
BRANCH   3   4
HETATM    4  C6  UNL     1      16.039  35.224  57.002  1.00  0.00     0.070 C 
BRANCH   4   5
HETATM    5  C3  UNL     1      17.014  34.328  56.394  1.00  0.00    -0.061 C 
HETATM    6  C4  UNL     1      17.715  34.633  55.330  1.00  0.00    -0.024 C 
HETATM    7  C5  UNL     1      18.703  33.636  54.800  1.00  0.00     0.036 C 
BRANCH   5   8
HETATM    8  C2  UNL     1      17.218  33.025  57.028  1.00  0.00    -0.004 C 
HETATM    9  C1  UNL     1      16.200  32.249  57.329  1.00  0.00     0.012 C 
ENDBRANCH   5   8
ENDBRANCH   4   5
ENDBRANCH   3   4
BRANCH   3  10
HETATM   10  O1  UNL     1      15.146  36.266  58.907  1.00  0.00    -0.395 OA
ATOM     11  H1  UNL     1      15.083  37.064  58.395  1.00  0.00     0.210 HD
ENDBRANCH   3  10
ENDBRANCH   2   3
ENDBRANCH   1   2
BRANCH   1  12
HETATM   12  C10 UNL     1      18.327  34.531  60.120  1.00  0.00     0.175 C 
BRANCH  12  13
HETATM   13  O2  UNL     1      19.474  33.934  59.650  1.00  0.00    -0.351 OA
BRANCH  13  14
HETATM   14  C11 UNL     1      20.587  34.344  59.005  1.00  0.00     0.075 A 
HETATM   15  C12 UNL     1      20.703  34.623  57.666  1.00  0.00     0.044 A 
HETATM   16  C13 UNL     1      21.887  35.043  57.061  1.00  0.00    -0.059 A 
HETATM   17  C14 UNL     1      21.958  35.333  55.602  1.00  0.00     0.048 C 
HETATM   18  C15 UNL     1      22.989  35.175  57.876  1.00  0.00     0.007 A 
HETATM   19  C16 UNL     1      22.889  34.898  59.219  1.00  0.00     0.010 A 
HETATM   20  C17 UNL     1      21.728  34.487  59.815  1.00  0.00    -0.029 A 
HETATM   21  C18 UNL     1      21.674  34.199  61.283  1.00  0.00     0.051 C 
ENDBRANCH  13  14
ENDBRANCH  12  13
ENDBRANCH   1  12
TORSDOF 9
ENDMDL
MODEL 4
REMARK VINA RESULT: -7.104932815      2.407      6.269
REMARK  9 active torsions:
REMARK  status: ('A' for Active; 'I' for Inactive)
REMARK    1  A    between atoms: C2_2  and  C3_3 
REMARK    2  A    between atoms: C3_3  and  C6_6 
REMARK    3  A    between atoms: C6_6  and  C7_7 
REMARK    4  A    between atoms: C7_7  and  O1_8 
REMARK    5  A    between atoms: C7_7  and  C8_10 
REMARK    6  A    between atoms: C8_10  and  C9_11 
REMARK    7  A    between atoms: C9_11  and  C10_12 
REMARK    8  A    between atoms: C10_12  and  O2_13 
REMARK    9  A    between atoms: O2_13  and  C11_14 
ROOT
HETATM    1  C9  UNL     1      22.473  34.105  59.661  1.00  0.00     0.029 C 
ENDROOT
BRANCH   1   2
HETATM    2  C8  UNL     1      22.610  35.491  59.077  1.00  0.00     0.034 C 
BRANCH   2   3
HETATM    3  C7  UNL     1      23.201  35.475  57.687  1.00  0.00     0.122 C 
BRANCH   3   4
HETATM    4  C6  UNL     1      22.848  34.151  57.069  1.00  0.00     0.070 C 
BRANCH   4   5
HETATM    5  C3  UNL     1      21.951  34.192  55.921  1.00  0.00    -0.061 C 
HETATM    6  C4  UNL     1      20.690  34.543  55.998  1.00  0.00    -0.024 C 
HETATM    7  C5  UNL     1      19.864  34.565  54.745  1.00  0.00     0.036 C 
BRANCH   5   8
HETATM    8  C2  UNL     1      22.508  33.833  54.617  1.00  0.00    -0.004 C 
HETATM    9  C1  UNL     1      23.729  34.186  54.279  1.00  0.00     0.012 C 
ENDBRANCH   5   8
ENDBRANCH   4   5
ENDBRANCH   3   4
BRANCH   3  10
HETATM   10  O1  UNL     1      24.584  35.595  57.709  1.00  0.00    -0.395 OA
ATOM     11  H1  UNL     1      24.948  34.994  57.070  1.00  0.00     0.210 HD
ENDBRANCH   3  10
ENDBRANCH   2   3
ENDBRANCH   1   2
BRANCH   1  12
HETATM   12  C10 UNL     1      21.898  34.089  61.032  1.00  0.00     0.175 C 
BRANCH  12  13
HETATM   13  O2  UNL     1      20.540  33.876  61.002  1.00  0.00    -0.351 OA
BRANCH  13  14
HETATM   14  C11 UNL     1      19.512  34.278  60.224  1.00  0.00     0.075 A 
HETATM   15  C12 UNL     1      18.964  33.592  59.170  1.00  0.00     0.044 A 
HETATM   16  C13 UNL     1      17.900  34.068  58.404  1.00  0.00    -0.059 A 
HETATM   17  C14 UNL     1      17.342  33.282  57.269  1.00  0.00     0.048 C 
HETATM   18  C15 UNL     1      17.389  35.300  58.747  1.00  0.00     0.007 A 
HETATM   19  C16 UNL     1      17.928  35.999  59.800  1.00  0.00     0.010 A 
HETATM   20  C17 UNL     1      18.971  35.535  60.553  1.00  0.00    -0.029 A 
HETATM   21  C18 UNL     1      19.520  36.338  61.690  1.00  0.00     0.051 C 
ENDBRANCH  13  14
ENDBRANCH  12  13
ENDBRANCH   1  12
TORSDOF 9
ENDMDL
MODEL 5
REMARK VINA RESULT: -7.099140015      1.252      3.669
REMARK  9 active torsions:
REMARK  status: ('A' for Active; 'I' for Inactive)
REMARK    1  A    between atoms: C2_2  and  C3_3 
REMARK    2  A    between atoms: C3_3  and  C6_6 
REMARK    3  A    between atoms: C6_6  and  C7_7 
REMARK    4  A    between atoms: C7_7  and  O1_8 
REMARK    5  A    between atoms: C7_7  and  C8_10 
REMARK    6  A    between atoms: C8_10  and  C9_11 
REMARK    7  A    between atoms: C9_11  and  C10_12 
REMARK    8  A    between atoms: C10_12  and  O2_13 
REMARK    9  A    between atoms: O2_13  and  C11_14 
ROOT
HETATM    1  C9  UNL     1      17.998  34.821  59.922  1.00  0.00     0.029 C 
ENDROOT
BRANCH   1   2
HETATM    2  C8  UNL     1      17.556  36.031  59.135  1.00  0.00     0.034 C 
BRANCH   2   3
HETATM    3  C7  UNL     1      16.354  35.746  58.265  1.00  0.00     0.122 C 
BRANCH   3   4
HETATM    4  C6  UNL     1      16.646  36.315  56.904  1.00  0.00     0.070 C 
BRANCH   4   5
HETATM    5  C3  UNL     1      17.646  35.612  56.111  1.00  0.00    -0.061 C 
HETATM    6  C4  UNL     1      17.564  34.341  55.800  1.00  0.00    -0.024 C 
HETATM    7  C5  UNL     1      18.646  33.726  54.963  1.00  0.00     0.036 C 
BRANCH   5   8
HETATM    8  C2  UNL     1      18.792  36.385  55.631  1.00  0.00    -0.004 C 
HETATM    9  C1  UNL     1      18.692  37.678  55.406  1.00  0.00     0.012 C 
ENDBRANCH   5   8
ENDBRANCH   4   5
ENDBRANCH   3   4
BRANCH   3  10
HETATM   10  O1  UNL     1      15.204  36.348  58.756  1.00  0.00    -0.395 OA
ATOM     11  H1  UNL     1      15.457  37.097  59.282  1.00  0.00     0.210 HD
ENDBRANCH   3  10
ENDBRANCH   2   3
ENDBRANCH   1   2
BRANCH   1  12
HETATM   12  C10 UNL     1      18.989  33.974  59.209  1.00  0.00     0.175 C 
BRANCH  12  13
HETATM   13  O2  UNL     1      20.155  34.663  58.969  1.00  0.00    -0.351 OA
BRANCH  13  14
HETATM   14  C11 UNL     1      21.352  34.380  58.412  1.00  0.00     0.075 A 
HETATM   15  C12 UNL     1      21.641  34.329  57.071  1.00  0.00     0.044 A 
HETATM   16  C13 UNL     1      22.903  34.028  56.560  1.00  0.00    -0.059 A 
HETATM   17  C14 UNL     1      23.163  33.987  55.095  1.00  0.00     0.048 C 
HETATM   18  C15 UNL     1      23.899  33.770  57.476  1.00  0.00     0.007 A 
HETATM   19  C16 UNL     1      23.624  33.815  58.822  1.00  0.00     0.010 A 
HETATM   20  C17 UNL     1      22.387  34.111  59.325  1.00  0.00    -0.029 A 
HETATM   21  C18 UNL     1      22.143  34.148  60.802  1.00  0.00     0.051 C 
ENDBRANCH  13  14
ENDBRANCH  12  13
ENDBRANCH   1  12
TORSDOF 9
ENDMDL
