MODEL 1
REMARK VINA RESULT: -6.912408149      0.000      0.000
REMARK  7 active torsions:
REMARK  status: ('A' for Active; 'I' for Inactive)
REMARK    1  A    between atoms: C2_2  and  C3_3 
REMARK    2  A    between atoms: C3_3  and  C4_4 
REMARK    3  A    between atoms: C4_4  and  C5_5 
REMARK    4  A    between atoms: C6_7  and  C7_8 
REMARK    5  A    between atoms: C6_7  and  O2_10 
REMARK    6  A    between atoms: O2_10  and  C9_11 
REMARK    7  A    between atoms: C9_11  and  C10_12 
ROOT
HETATM    1  O2  UNL     1      17.790  34.828  55.093  1.00  0.00    -0.350 OA
ENDROOT
BRANCH   1   2
HETATM    2  C6  UNL     1      19.026  34.312  54.915  1.00  0.00     0.055 C 
HETATM    3  C4  UNL     1      19.396  33.597  53.844  1.00  0.00     0.009 C 
BRANCH   3   4
HETATM    4  C3  UNL     1      20.761  33.018  53.703  1.00  0.00     0.044 C 
BRANCH   4   5
HETATM    5  C2  UNL     1      21.702  33.897  52.908  1.00  0.00     0.000 C 
HETATM    6  C1  UNL     1      22.919  34.200  53.777  1.00  0.00     0.005 C 
ENDBRANCH   4   5
ENDBRANCH   3   4
BRANCH   3   7
HETATM    7  C5  UNL     1      18.467  33.433  52.734  1.00  0.00     0.268 C 
HETATM    8  O1  UNL     1      18.426  32.377  52.028  1.00  0.00    -0.302 OA
ENDBRANCH   3   7
BRANCH   2   9
HETATM    9  C7  UNL     1      19.995  34.577  56.033  1.00  0.00     0.061 C 
HETATM   10  C8  UNL     1      20.530  36.003  55.904  1.00  0.00     0.012 C 
ENDBRANCH   2   9
ENDBRANCH   1   2
BRANCH   1  11
HETATM   11  C9  UNL     1      16.835  34.900  56.045  1.00  0.00     0.215 C 
BRANCH  11  12
HETATM   12  C10 UNL     1      17.227  35.169  57.445  1.00  0.00    -0.022 A 
HETATM   13  C11 UNL     1      17.552  36.397  57.928  1.00  0.00    -0.053 A 
HETATM   14  C12 UNL     1      17.283  37.594  57.119  1.00  0.00     0.049 C 
HETATM   15  C13 UNL     1      18.085  36.585  59.221  1.00  0.00     0.014 A 
HETATM   16  C14 UNL     1      18.297  35.519  60.052  1.00  0.00    -0.061 A 
HETATM   17  C15 UNL     1      18.879  35.722  61.411  1.00  0.00     0.048 C 
HETATM   18  C16 UNL     1      17.968  34.261  59.574  1.00  0.00     0.014 A 
HETATM   19  C17 UNL     1      17.443  34.082  58.299  1.00  0.00    -0.053 A 
HETATM   20  C18 UNL     1      17.110  32.694  57.871  1.00  0.00     0.049 C 
ENDBRANCH  11  12
ENDBRANCH   1  11
TORSDOF 7
ENDMDL
MODEL 2
REMARK VINA RESULT: -6.835372192      1.413      2.153
REMARK  7 active torsions:
REMARK  status: ('A' for Active; 'I' for Inactive)
REMARK    1  A    between atoms: C2_2  and  C3_3 
REMARK    2  A    between atoms: C3_3  and  C4_4 
REMARK    3  A    between atoms: C4_4  and  C5_5 
REMARK    4  A    between atoms: C6_7  and  C7_8 
REMARK    5  A    between atoms: C6_7  and  O2_10 
REMARK    6  A    between atoms: O2_10  and  C9_11 
REMARK    7  A    between atoms: C9_11  and  C10_12 
ROOT
HETATM    1  O2  UNL     1      18.208  34.946  55.745  1.00  0.00    -0.350 OA
ENDROOT
BRANCH   1   2
HETATM    2  C6  UNL     1      19.071  35.389  54.805  1.00  0.00     0.055 C 
HETATM    3  C4  UNL     1      19.586  34.621  53.834  1.00  0.00     0.009 C 
BRANCH   3   4
HETATM    4  C3  UNL     1      20.561  35.144  52.836  1.00  0.00     0.044 C 
BRANCH   4   5
HETATM    5  C2  UNL     1      21.717  34.200  52.582  1.00  0.00     0.000 C 
HETATM    6  C1  UNL     1      22.671  34.285  53.769  1.00  0.00     0.005 C 
ENDBRANCH   4   5
ENDBRANCH   3   4
BRANCH   3   7
HETATM    7  C5  UNL     1      19.131  33.246  53.689  1.00  0.00     0.268 C 
HETATM    8  O1  UNL     1      18.331  32.885  52.770  1.00  0.00    -0.302 OA
ENDBRANCH   3   7
BRANCH   2   9
HETATM    9  C7  UNL     1      19.452  36.838  54.920  1.00  0.00     0.061 C 
HETATM   10  C8  UNL     1      18.323  37.598  55.615  1.00  0.00     0.012 C 
ENDBRANCH   2   9
ENDBRANCH   1   2
BRANCH   1  11
HETATM   11  C9  UNL     1      18.219  34.254  56.904  1.00  0.00     0.215 C 
BRANCH  11  12
HETATM   12  C10 UNL     1      18.779  34.886  58.118  1.00  0.00    -0.022 A 
HETATM   13  C11 UNL     1      20.093  34.851  58.464  1.00  0.00    -0.053 A 
HETATM   14  C12 UNL     1      21.091  34.380  57.493  1.00  0.00     0.049 C 
HETATM   15  C13 UNL     1      20.561  35.315  59.711  1.00  0.00     0.014 A 
HETATM   16  C14 UNL     1      19.692  35.829  60.636  1.00  0.00    -0.061 A 
HETATM   17  C15 UNL     1      20.190  36.302  61.962  1.00  0.00     0.048 C 
HETATM   18  C16 UNL     1      18.350  35.874  60.296  1.00  0.00     0.014 A 
HETATM   19  C17 UNL     1      17.895  35.414  59.065  1.00  0.00    -0.053 A 
HETATM   20  C18 UNL     1      16.436  35.509  58.782  1.00  0.00     0.049 C 
ENDBRANCH  11  12
ENDBRANCH   1  11
TORSDOF 7
ENDMDL
MODEL 3
REMARK VINA RESULT: -6.707210325      2.374      5.477
REMARK  7 active torsions:
REMARK  status: ('A' for Active; 'I' for Inactive)
REMARK    1  A    between atoms: C2_2  and  C3_3 
REMARK    2  A    between atoms: C3_3  and  C4_4 
REMARK    3  A    between atoms: C4_4  and  C5_5 
REMARK    4  A    between atoms: C6_7  and  C7_8 
REMARK    5  A    between atoms: C6_7  and  O2_10 
REMARK    6  A    between atoms: O2_10  and  C9_11 
REMARK    7  A    between atoms: C9_11  and  C10_12 
ROOT
HETATM    1  O2  UNL     1      18.956  33.783  59.470  1.00  0.00    -0.350 OA
ENDROOT
BRANCH   1   2
HETATM    2  C6  UNL     1      17.868  34.540  59.211  1.00  0.00     0.055 C 
HETATM    3  C4  UNL     1      16.800  34.114  58.521  1.00  0.00     0.009 C 
BRANCH   3   4
HETATM    4  C3  UNL     1      15.635  34.995  58.230  1.00  0.00     0.044 C 
BRANCH   4   5
HETATM    5  C2  UNL     1      15.561  35.425  56.781  1.00  0.00     0.000 C 
HETATM    6  C1  UNL     1      16.268  36.770  56.646  1.00  0.00     0.005 C 
ENDBRANCH   4   5
ENDBRANCH   3   4
BRANCH   3   7
HETATM    7  C5  UNL     1      16.727  32.722  58.099  1.00  0.00     0.268 C 
HETATM    8  O1  UNL     1      16.875  32.368  56.888  1.00  0.00    -0.302 OA
ENDBRANCH   3   7
BRANCH   2   9
HETATM    9  C7  UNL     1      17.928  35.946  59.740  1.00  0.00     0.061 C 
HETATM   10  C8  UNL     1      18.873  35.988  60.940  1.00  0.00     0.012 C 
ENDBRANCH   2   9
ENDBRANCH   1   2
BRANCH   1  11
HETATM   11  C9  UNL     1      20.130  33.441  58.897  1.00  0.00     0.215 C 
BRANCH  11  12
HETATM   12  C10 UNL     1      20.951  34.487  58.251  1.00  0.00    -0.022 A 
HETATM   13  C11 UNL     1      20.808  34.884  56.958  1.00  0.00    -0.053 A 
HETATM   14  C12 UNL     1      19.633  34.453  56.189  1.00  0.00     0.049 C 
HETATM   15  C13 UNL     1      21.719  35.759  56.330  1.00  0.00     0.014 A 
HETATM   16  C14 UNL     1      22.799  36.251  57.012  1.00  0.00    -0.061 A 
HETATM   17  C15 UNL     1      23.770  37.162  56.337  1.00  0.00     0.048 C 
HETATM   18  C16 UNL     1      22.956  35.858  58.331  1.00  0.00     0.014 A 
HETATM   19  C17 UNL     1      22.054  34.994  58.944  1.00  0.00    -0.053 A 
HETATM   20  C18 UNL     1      22.296  34.631  60.369  1.00  0.00     0.049 C 
ENDBRANCH  11  12
ENDBRANCH   1  11
TORSDOF 7
ENDMDL
MODEL 4
REMARK VINA RESULT: -6.645703118      3.514      5.116
REMARK  7 active torsions:
REMARK  status: ('A' for Active; 'I' for Inactive)
REMARK    1  A    between atoms: C2_2  and  C3_3 
REMARK    2  A    between atoms: C3_3  and  C4_4 
REMARK    3  A    between atoms: C4_4  and  C5_5 
REMARK    4  A    between atoms: C6_7  and  C7_8 
REMARK    5  A    between atoms: C6_7  and  O2_10 
REMARK    6  A    between atoms: O2_10  and  C9_11 
REMARK    7  A    between atoms: C9_11  and  C10_12 
ROOT
HETATM    1  O2  UNL     1      20.352  36.638  54.239  1.00  0.00    -0.350 OA
ENDROOT
BRANCH   1   2
HETATM    2  C6  UNL     1      21.242  37.588  53.879  1.00  0.00     0.055 C 
HETATM    3  C4  UNL     1      21.680  37.776  52.627  1.00  0.00     0.009 C 
BRANCH   3   4
HETATM    4  C3  UNL     1      22.689  38.816  52.281  1.00  0.00     0.044 C 
BRANCH   4   5
HETATM    5  C2  UNL     1      22.203  39.792  51.231  1.00  0.00     0.000 C 
HETATM    6  C1  UNL     1      21.321  40.830  51.920  1.00  0.00     0.005 C 
ENDBRANCH   4   5
ENDBRANCH   3   4
BRANCH   3   7
HETATM    7  C5  UNL     1      21.105  36.994  51.541  1.00  0.00     0.268 C 
HETATM    8  O1  UNL     1      19.952  37.235  51.062  1.00  0.00    -0.302 OA
ENDBRANCH   3   7
BRANCH   2   9
HETATM    9  C7  UNL     1      21.750  38.444  55.006  1.00  0.00     0.061 C 
HETATM   10  C8  UNL     1      22.964  37.768  55.640  1.00  0.00     0.012 C 
ENDBRANCH   2   9
ENDBRANCH   1   2
BRANCH   1  11
HETATM   11  C9  UNL     1      20.303  35.307  54.459  1.00  0.00     0.215 C 
BRANCH  11  12
HETATM   12  C10 UNL     1      21.113  34.725  55.552  1.00  0.00    -0.022 A 
HETATM   13  C11 UNL     1      20.772  34.771  56.867  1.00  0.00    -0.053 A 
HETATM   14  C12 UNL     1      19.421  35.199  57.256  1.00  0.00     0.049 C 
HETATM   15  C13 UNL     1      21.650  34.358  57.891  1.00  0.00     0.014 A 
HETATM   16  C14 UNL     1      22.899  33.885  57.593  1.00  0.00    -0.061 A 
HETATM   17  C15 UNL     1      23.830  33.467  58.682  1.00  0.00     0.048 C 
HETATM   18  C16 UNL     1      23.259  33.829  56.257  1.00  0.00     0.014 A 
HETATM   19  C17 UNL     1      22.390  34.239  55.251  1.00  0.00    -0.053 A 
HETATM   20  C18 UNL     1      22.857  34.136  53.841  1.00  0.00     0.049 C 
ENDBRANCH  11  12
ENDBRANCH   1  11
TORSDOF 7
ENDMDL
MODEL 5
REMARK VINA RESULT: -6.644898643      3.141      4.600
REMARK  7 active torsions:
REMARK  status: ('A' for Active; 'I' for Inactive)
REMARK    1  A    between atoms: C2_2  and  C3_3 
REMARK    2  A    between atoms: C3_3  and  C4_4 
REMARK    3  A    between atoms: C4_4  and  C5_5 
REMARK    4  A    between atoms: C6_7  and  C7_8 
REMARK    5  A    between atoms: C6_7  and  O2_10 
REMARK    6  A    between atoms: O2_10  and  C9_11 
REMARK    7  A    between atoms: C9_11  and  C10_12 
ROOT
HETATM    1  O2  UNL     1      19.389  35.989  54.369  1.00  0.00    -0.350 OA
ENDROOT
BRANCH   1   2
HETATM    2  C6  UNL     1      19.961  37.049  53.759  1.00  0.00     0.055 C 
HETATM    3  C4  UNL     1      20.167  37.138  52.438  1.00  0.00     0.009 C 
BRANCH   3   4
HETATM    4  C3  UNL     1      20.833  38.314  51.811  1.00  0.00     0.044 C 
BRANCH   4   5
HETATM    5  C2  UNL     1      22.021  37.939  50.952  1.00  0.00     0.000 C 
HETATM    6  C1  UNL     1      22.144  38.969  49.834  1.00  0.00     0.005 C 
ENDBRANCH   4   5
ENDBRANCH   3   4
BRANCH   3   7
HETATM    7  C5  UNL     1      19.662  36.091  51.561  1.00  0.00     0.268 C 
HETATM    8  O1  UNL     1      18.914  36.339  50.563  1.00  0.00    -0.302 OA
ENDBRANCH   3   7
BRANCH   2   9
HETATM    9  C7  UNL     1      20.389  38.159  54.679  1.00  0.00     0.061 C 
HETATM   10  C8  UNL     1      21.831  37.913  55.122  1.00  0.00     0.012 C 
ENDBRANCH   2   9
ENDBRANCH   1   2
BRANCH   1  11
HETATM   11  C9  UNL     1      19.711  34.744  54.781  1.00  0.00     0.215 C 
BRANCH  11  12
HETATM   12  C10 UNL     1      20.847  34.561  55.710  1.00  0.00    -0.022 A 
HETATM   13  C11 UNL     1      22.087  34.151  55.334  1.00  0.00    -0.053 A 
HETATM   14  C12 UNL     1      22.438  34.104  53.908  1.00  0.00     0.049 C 
HETATM   15  C13 UNL     1      23.093  33.825  56.268  1.00  0.00     0.014 A 
HETATM   16  C14 UNL     1      22.853  33.912  57.613  1.00  0.00    -0.061 A 
HETATM   17  C15 UNL     1      23.914  33.548  58.597  1.00  0.00     0.048 C 
HETATM   18  C16 UNL     1      21.594  34.332  58.011  1.00  0.00     0.014 A 
HETATM   19  C17 UNL     1      20.607  34.652  57.086  1.00  0.00    -0.053 A 
HETATM   20  C18 UNL     1      19.285  35.102  57.604  1.00  0.00     0.049 C 
ENDBRANCH  11  12
ENDBRANCH   1  11
TORSDOF 7
ENDMDL
