MODEL 1
REMARK VINA RESULT: -6.747888361      0.000      0.000
REMARK  10 active torsions:
REMARK  status: ('A' for Active; 'I' for Inactive)
REMARK    1  A    between atoms: C2_2  and  C3_3 
REMARK    2  A    between atoms: C3_3  and  C4_4 
REMARK    3  A    between atoms: C6_6  and  C7_7 
REMARK    4  A    between atoms: C10_10  and  C11_11 
REMARK    5  A    between atoms: C11_11  and  O1_12 
REMARK    6  A    between atoms: O1_12  and  C12_13 
REMARK    7  A    between atoms: C12_13  and  C14_15 
REMARK    8  A    between atoms: C14_15  and  O2_16 
REMARK    9  A    between atoms: C14_15  and  C15_18 
REMARK   10  A    between atoms: C15_18  and  C16_19 
ROOT
HETATM    1  C4  UNL     1      20.102  34.407  59.418  1.00  0.00    -0.057 A 
HETATM    2  C5  UNL     1      21.381  33.888  59.262  1.00  0.00     0.014 A 
HETATM    3  C6  UNL     1      22.091  33.982  58.091  1.00  0.00    -0.057 A 
HETATM    4  C9  UNL     1      21.478  34.628  57.035  1.00  0.00     0.016 A 
HETATM    5  C10 UNL     1      20.211  35.169  57.115  1.00  0.00    -0.034 A 
HETATM    6  C18 UNL     1      19.540  35.043  58.330  1.00  0.00     0.016 A 
ENDROOT
BRANCH   5   7
HETATM    7  C11 UNL     1      19.592  35.856  55.951  1.00  0.00     0.207 C 
BRANCH   7   8
HETATM    8  O1  UNL     1      18.514  36.586  56.394  1.00  0.00    -0.379 OA
BRANCH   8   9
HETATM    9  C12 UNL     1      17.337  36.311  55.739  1.00  0.00     0.146 C 
HETATM   10  C13 UNL     1      17.258  34.889  55.233  1.00  0.00     0.042 C 
BRANCH   9  11
HETATM   11  C14 UNL     1      16.204  36.467  56.759  1.00  0.00     0.146 C 
BRANCH  11  12
HETATM   12  O2  UNL     1      15.156  37.086  56.111  1.00  0.00    -0.393 OA
ATOM     13  H2  UNL     1      15.463  37.943  55.839  1.00  0.00     0.210 HD
ENDBRANCH  11  12
BRANCH  11  14
HETATM   14  C15 UNL     1      15.780  35.064  57.151  1.00  0.00     0.034 C 
BRANCH  14  15
HETATM   15  C16 UNL     1      15.821  34.962  58.660  1.00  0.00    -0.002 C 
HETATM   16  C17 UNL     1      16.070  33.551  59.124  1.00  0.00     0.005 C 
ENDBRANCH  14  15
ENDBRANCH  11  14
ENDBRANCH   9  11
ENDBRANCH   8   9
ENDBRANCH   7   8
ENDBRANCH   5   7
BRANCH   3  17
HETATM   17  C7  UNL     1      23.442  33.423  57.955  1.00  0.00     0.034 C 
HETATM   18  C8  UNL     1      24.222  33.397  59.223  1.00  0.00     0.010 C 
ENDBRANCH   3  17
BRANCH   1  19
HETATM   19  C3  UNL     1      19.406  34.264  60.713  1.00  0.00     0.038 C 
BRANCH  19  20
HETATM   20  C2  UNL     1      19.008  35.617  61.284  1.00  0.00     0.000 C 
HETATM   21  C1  UNL     1      20.228  36.350  61.824  1.00  0.00     0.005 C 
ENDBRANCH  19  20
ENDBRANCH   1  19
TORSDOF 10
ENDMDL
MODEL 2
REMARK VINA RESULT: -6.735961880      1.392      1.800
REMARK  10 active torsions:
REMARK  status: ('A' for Active; 'I' for Inactive)
REMARK    1  A    between atoms: C2_2  and  C3_3 
REMARK    2  A    between atoms: C3_3  and  C4_4 
REMARK    3  A    between atoms: C6_6  and  C7_7 
REMARK    4  A    between atoms: C10_10  and  C11_11 
REMARK    5  A    between atoms: C11_11  and  O1_12 
REMARK    6  A    between atoms: O1_12  and  C12_13 
REMARK    7  A    between atoms: C12_13  and  C14_15 
REMARK    8  A    between atoms: C14_15  and  O2_16 
REMARK    9  A    between atoms: C14_15  and  C15_18 
REMARK   10  A    between atoms: C15_18  and  C16_19 
ROOT
HETATM    1  C4  UNL     1      20.729  34.158  59.231  1.00  0.00    -0.057 A 
HETATM    2  C5  UNL     1      21.895  33.932  58.511  1.00  0.00     0.014 A 
HETATM    3  C6  UNL     1      22.014  34.204  57.171  1.00  0.00    -0.057 A 
HETATM    4  C9  UNL     1      20.904  34.726  56.535  1.00  0.00     0.016 A 
HETATM    5  C10 UNL     1      19.713  34.978  57.183  1.00  0.00    -0.034 A 
HETATM    6  C18 UNL     1      19.652  34.682  58.544  1.00  0.00     0.016 A 
ENDROOT
BRANCH   5   7
HETATM    7  C11 UNL     1      18.544  35.541  56.456  1.00  0.00     0.207 C 
BRANCH   7   8
HETATM    8  O1  UNL     1      17.947  36.490  57.253  1.00  0.00    -0.379 OA
BRANCH   8   9
HETATM    9  C12 UNL     1      16.573  36.472  57.220  1.00  0.00     0.146 C 
HETATM   10  C13 UNL     1      16.017  35.777  55.999  1.00  0.00     0.042 C 
BRANCH   9  11
HETATM   11  C14 UNL     1      16.102  35.658  58.430  1.00  0.00     0.146 C 
BRANCH  11  12
HETATM   12  O2  UNL     1      15.096  36.378  59.038  1.00  0.00    -0.393 OA
ATOM     13  H2  UNL     1      14.756  35.843  59.744  1.00  0.00     0.210 HD
ENDBRANCH  11  12
BRANCH  11  14
HETATM   14  C15 UNL     1      15.521  34.368  57.881  1.00  0.00     0.034 C 
BRANCH  14  15
HETATM   15  C16 UNL     1      16.227  33.209  58.549  1.00  0.00    -0.002 C 
HETATM   16  C17 UNL     1      16.636  32.150  57.560  1.00  0.00     0.005 C 
ENDBRANCH  14  15
ENDBRANCH  11  14
ENDBRANCH   9  11
ENDBRANCH   8   9
ENDBRANCH   7   8
ENDBRANCH   5   7
BRANCH   3  17
HETATM   17  C7  UNL     1      23.261  33.955  56.435  1.00  0.00     0.034 C 
HETATM   18  C8  UNL     1      23.090  33.862  54.959  1.00  0.00     0.010 C 
ENDBRANCH   3  17
BRANCH   1  19
HETATM   19  C3  UNL     1      20.684  33.838  60.672  1.00  0.00     0.038 C 
BRANCH  19  20
HETATM   20  C2  UNL     1      21.548  34.793  61.482  1.00  0.00     0.000 C 
HETATM   21  C1  UNL     1      20.791  36.080  61.779  1.00  0.00     0.005 C 
ENDBRANCH  19  20
ENDBRANCH   1  19
TORSDOF 10
ENDMDL
MODEL 3
REMARK VINA RESULT: -6.733223443      1.602      3.540
REMARK  10 active torsions:
REMARK  status: ('A' for Active; 'I' for Inactive)
REMARK    1  A    between atoms: C2_2  and  C3_3 
REMARK    2  A    between atoms: C3_3  and  C4_4 
REMARK    3  A    between atoms: C6_6  and  C7_7 
REMARK    4  A    between atoms: C10_10  and  C11_11 
REMARK    5  A    between atoms: C11_11  and  O1_12 
REMARK    6  A    between atoms: O1_12  and  C12_13 
REMARK    7  A    between atoms: C12_13  and  C14_15 
REMARK    8  A    between atoms: C14_15  and  O2_16 
REMARK    9  A    between atoms: C14_15  and  C15_18 
REMARK   10  A    between atoms: C15_18  and  C16_19 
ROOT
HETATM    1  C4  UNL     1      21.951  34.211  57.274  1.00  0.00    -0.057 A 
HETATM    2  C5  UNL     1      21.813  34.005  58.641  1.00  0.00     0.014 A 
HETATM    3  C6  UNL     1      20.660  34.289  59.330  1.00  0.00    -0.057 A 
HETATM    4  C9  UNL     1      19.605  34.804  58.602  1.00  0.00     0.016 A 
HETATM    5  C10 UNL     1      19.666  35.035  57.243  1.00  0.00    -0.034 A 
HETATM    6  C18 UNL     1      20.863  34.726  56.598  1.00  0.00     0.016 A 
ENDROOT
BRANCH   5   7
HETATM    7  C11 UNL     1      18.504  35.590  56.502  1.00  0.00     0.207 C 
BRANCH   7   8
HETATM    8  O1  UNL     1      17.901  36.548  57.285  1.00  0.00    -0.379 OA
BRANCH   8   9
HETATM    9  C12 UNL     1      16.527  36.514  57.263  1.00  0.00     0.146 C 
HETATM   10  C13 UNL     1      15.970  35.835  56.033  1.00  0.00     0.042 C 
BRANCH   9  11
HETATM   11  C14 UNL     1      16.075  35.671  58.461  1.00  0.00     0.146 C 
BRANCH  11  12
HETATM   12  O2  UNL     1      15.070  36.370  59.093  1.00  0.00    -0.393 OA
ATOM     13  H2  UNL     1      14.283  36.261  58.572  1.00  0.00     0.210 HD
ENDBRANCH  11  12
BRANCH  11  14
HETATM   14  C15 UNL     1      15.501  34.387  57.892  1.00  0.00     0.034 C 
BRANCH  14  15
HETATM   15  C16 UNL     1      16.192  33.221  58.562  1.00  0.00    -0.002 C 
HETATM   16  C17 UNL     1      16.619  32.171  57.571  1.00  0.00     0.005 C 
ENDBRANCH  14  15
ENDBRANCH  11  14
ENDBRANCH   9  11
ENDBRANCH   8   9
ENDBRANCH   7   8
ENDBRANCH   5   7
BRANCH   3  17
HETATM   17  C7  UNL     1      20.543  34.061  60.776  1.00  0.00     0.034 C 
HETATM   18  C8  UNL     1      21.538  34.810  61.594  1.00  0.00     0.010 C 
ENDBRANCH   3  17
BRANCH   1  19
HETATM   19  C3  UNL     1      23.227  33.878  56.608  1.00  0.00     0.038 C 
BRANCH  19  20
HETATM   20  C2  UNL     1      23.042  33.700  55.108  1.00  0.00     0.000 C 
HETATM   21  C1  UNL     1      24.143  34.421  54.343  1.00  0.00     0.005 C 
ENDBRANCH  19  20
ENDBRANCH   1  19
TORSDOF 10
ENDMDL
MODEL 4
REMARK VINA RESULT: -6.701535501      1.591      3.939
REMARK  10 active torsions:
REMARK  status: ('A' for Active; 'I' for Inactive)
REMARK    1  A    between atoms: C2_2  and  C3_3 
REMARK    2  A    between atoms: C3_3  and  C4_4 
REMARK    3  A    between atoms: C6_6  and  C7_7 
REMARK    4  A    between atoms: C10_10  and  C11_11 
REMARK    5  A    between atoms: C11_11  and  O1_12 
REMARK    6  A    between atoms: O1_12  and  C12_13 
REMARK    7  A    between atoms: C12_13  and  C14_15 
REMARK    8  A    between atoms: C14_15  and  O2_16 
REMARK    9  A    between atoms: C14_15  and  C15_18 
REMARK   10  A    between atoms: C15_18  and  C16_19 
ROOT
HETATM    1  C4  UNL     1      20.811  34.770  56.917  1.00  0.00    -0.057 A 
HETATM    2  C5  UNL     1      21.617  34.622  58.039  1.00  0.00     0.014 A 
HETATM    3  C6  UNL     1      21.134  34.224  59.261  1.00  0.00    -0.057 A 
HETATM    4  C9  UNL     1      19.780  33.967  59.348  1.00  0.00     0.016 A 
HETATM    5  C10 UNL     1      18.918  34.090  58.277  1.00  0.00    -0.034 A 
HETATM    6  C18 UNL     1      19.466  34.498  57.062  1.00  0.00     0.016 A 
ENDROOT
BRANCH   5   7
HETATM    7  C11 UNL     1      17.467  33.802  58.419  1.00  0.00     0.207 C 
BRANCH   7   8
HETATM    8  O1  UNL     1      16.834  34.143  57.247  1.00  0.00    -0.379 OA
BRANCH   8   9
HETATM    9  C12 UNL     1      15.846  35.088  57.391  1.00  0.00     0.146 C 
HETATM   10  C13 UNL     1      15.829  35.724  58.762  1.00  0.00     0.042 C 
BRANCH   9  11
HETATM   11  C14 UNL     1      16.147  36.214  56.397  1.00  0.00     0.146 C 
BRANCH  11  12
HETATM   12  O2  UNL     1      14.939  36.771  56.036  1.00  0.00    -0.393 OA
ATOM     13  H2  UNL     1      15.080  37.245  55.226  1.00  0.00     0.210 HD
ENDBRANCH  11  12
BRANCH  11  14
HETATM   14  C15 UNL     1      16.961  37.249  57.152  1.00  0.00     0.034 C 
BRANCH  14  15
HETATM   15  C16 UNL     1      17.489  38.255  56.154  1.00  0.00    -0.002 C 
HETATM   16  C17 UNL     1      18.658  37.716  55.373  1.00  0.00     0.005 C 
ENDBRANCH  14  15
ENDBRANCH  11  14
ENDBRANCH   9  11
ENDBRANCH   8   9
ENDBRANCH   7   8
ENDBRANCH   5   7
BRANCH   3  17
HETATM   17  C7  UNL     1      22.010  34.077  60.431  1.00  0.00     0.034 C 
HETATM   18  C8  UNL     1      21.571  34.853  61.624  1.00  0.00     0.010 C 
ENDBRANCH   3  17
BRANCH   1  19
HETATM   19  C3  UNL     1      21.410  35.202  55.637  1.00  0.00     0.038 C 
BRANCH  19  20
HETATM   20  C2  UNL     1      21.866  34.013  54.805  1.00  0.00     0.000 C 
HETATM   21  C1  UNL     1      23.380  34.018  54.648  1.00  0.00     0.005 C 
ENDBRANCH  19  20
ENDBRANCH   1  19
TORSDOF 10
ENDMDL
MODEL 5
REMARK VINA RESULT: -6.685509743      1.781      3.135
REMARK  10 active torsions:
REMARK  status: ('A' for Active; 'I' for Inactive)
REMARK    1  A    between atoms: C2_2  and  C3_3 
REMARK    2  A    between atoms: C3_3  and  C4_4 
REMARK    3  A    between atoms: C6_6  and  C7_7 
REMARK    4  A    between atoms: C10_10  and  C11_11 
REMARK    5  A    between atoms: C11_11  and  O1_12 
REMARK    6  A    between atoms: O1_12  and  C12_13 
REMARK    7  A    between atoms: C12_13  and  C14_15 
REMARK    8  A    between atoms: C14_15  and  O2_16 
REMARK    9  A    between atoms: C14_15  and  C15_18 
REMARK   10  A    between atoms: C15_18  and  C16_19 
ROOT
HETATM    1  C4  UNL     1      21.428  34.856  57.407  1.00  0.00    -0.057 A 
HETATM    2  C5  UNL     1      22.234  34.674  56.290  1.00  0.00     0.014 A 
HETATM    3  C6  UNL     1      21.739  34.328  55.057  1.00  0.00    -0.057 A 
HETATM    4  C9  UNL     1      20.372  34.161  54.953  1.00  0.00     0.016 A 
HETATM    5  C10 UNL     1      19.509  34.327  56.017  1.00  0.00    -0.034 A 
HETATM    6  C18 UNL     1      20.070  34.677  57.244  1.00  0.00     0.016 A 
ENDROOT
BRANCH   5   7
HETATM    7  C11 UNL     1      18.043  34.136  55.856  1.00  0.00     0.207 C 
BRANCH   7   8
HETATM    8  O1  UNL     1      17.404  35.285  56.260  1.00  0.00    -0.379 OA
BRANCH   8   9
HETATM    9  C12 UNL     1      16.312  35.072  57.066  1.00  0.00     0.146 C 
HETATM   10  C13 UNL     1      16.224  33.655  57.584  1.00  0.00     0.042 C 
BRANCH   9  11
HETATM   11  C14 UNL     1      16.474  35.971  58.296  1.00  0.00     0.146 C 
BRANCH  11  12
HETATM   12  O2  UNL     1      15.207  36.290  58.736  1.00  0.00    -0.393 OA
ATOM     13  H2  UNL     1      15.217  36.232  59.683  1.00  0.00     0.210 HD
ENDBRANCH  11  12
BRANCH  11  14
HETATM   14  C15 UNL     1      17.165  35.132  59.354  1.00  0.00     0.034 C 
BRANCH  14  15
HETATM   15  C16 UNL     1      18.223  35.985  60.018  1.00  0.00    -0.002 C 
HETATM   16  C17 UNL     1      19.113  35.177  60.925  1.00  0.00     0.005 C 
ENDBRANCH  14  15
ENDBRANCH  11  14
ENDBRANCH   9  11
ENDBRANCH   8   9
ENDBRANCH   7   8
ENDBRANCH   5   7
BRANCH   3  17
HETATM   17  C7  UNL     1      22.616  34.141  53.893  1.00  0.00     0.034 C 
HETATM   18  C8  UNL     1      24.069  34.251  54.200  1.00  0.00     0.010 C 
ENDBRANCH   3  17
BRANCH   1  19
HETATM   19  C3  UNL     1      22.041  35.228  58.699  1.00  0.00     0.038 C 
BRANCH  19  20
HETATM   20  C2  UNL     1      22.439  33.997  59.500  1.00  0.00     0.000 C 
HETATM   21  C1  UNL     1      23.938  33.753  59.398  1.00  0.00     0.005 C 
ENDBRANCH  19  20
ENDBRANCH   1  19
TORSDOF 10
ENDMDL
