MODEL 1
REMARK VINA RESULT: -6.883986456      0.000      0.000
REMARK  9 active torsions:
REMARK  status: ('A' for Active; 'I' for Inactive)
REMARK    1  A    between atoms: C2_2  and  C3_3 
REMARK    2  A    between atoms: C3_3  and  C4_4 
REMARK    3  A    between atoms: C4_4  and  C5_5 
REMARK    4  A    between atoms: C4_4  and  C8_8 
REMARK    5  A    between atoms: C5_5  and  C6_6 
REMARK    6  A    between atoms: C8_8  and  C9_10 
REMARK    7  A    between atoms: C9_10  and  C10_11 
REMARK    8  A    between atoms: C10_11  and  C11_12 
REMARK    9  A    between atoms: C14_15  and  C15_16 
ROOT
HETATM    1  C9  UNL     1      16.149  35.598  58.675  1.00  0.00     0.083 C 
ENDROOT
BRANCH   1   2
HETATM    2  C8  UNL     1      16.907  34.456  59.198  1.00  0.00     0.132 C 
HETATM    3  O1  UNL     1      16.373  33.312  59.154  1.00  0.00    -0.298 OA
BRANCH   2   4
HETATM    4  C4  UNL     1      18.261  34.443  59.792  1.00  0.00     0.062 C 
BRANCH   4   5
HETATM    5  C3  UNL     1      18.696  35.878  60.124  1.00  0.00     0.038 C 
BRANCH   5   6
HETATM    6  C2  UNL     1      19.251  36.029  61.476  1.00  0.00    -0.036 C 
HETATM    7  C1  UNL     1      20.570  36.096  61.631  1.00  0.00     0.007 C 
ENDBRANCH   5   6
ENDBRANCH   4   5
BRANCH   4   8
HETATM    8  C5  UNL     1      19.344  33.874  58.916  1.00  0.00     0.038 C 
BRANCH   8   9
HETATM    9  C6  UNL     1      20.098  34.928  58.190  1.00  0.00    -0.036 C 
HETATM   10  C7  UNL     1      21.177  34.637  57.493  1.00  0.00     0.007 C 
ENDBRANCH   8   9
ENDBRANCH   4   8
ENDBRANCH   2   4
ENDBRANCH   1   2
BRANCH   1  11
HETATM   11  C10 UNL     1      15.872  35.558  57.224  1.00  0.00     0.046 C 
BRANCH  11  12
HETATM   12  C11 UNL     1      16.974  36.141  56.407  1.00  0.00    -0.052 A 
HETATM   13  C12 UNL     1      17.201  37.494  56.409  1.00  0.00     0.008 A 
HETATM   14  C13 UNL     1      18.195  38.100  55.670  1.00  0.00     0.015 A 
HETATM   15  C14 UNL     1      19.002  37.280  54.887  1.00  0.00     0.002 A 
HETATM   16  C16 UNL     1      18.766  35.921  54.892  1.00  0.00     0.021 A 
HETATM   17  C17 UNL     1      17.771  35.315  55.631  1.00  0.00    -0.055 A 
HETATM   18  C18 UNL     1      17.539  33.854  55.622  1.00  0.00     0.049 C 
BRANCH  15  19
HETATM   19  C15 UNL     1      20.066  37.850  54.083  1.00  0.00     0.269 C 
HETATM   20  O2  UNL     1      19.830  38.550  53.070  1.00  0.00    -0.301 OA
ENDBRANCH  15  19
ENDBRANCH  11  12
ENDBRANCH   1  11
TORSDOF 9
ENDMDL
MODEL 2
REMARK VINA RESULT: -6.876102310      2.392      5.586
REMARK  9 active torsions:
REMARK  status: ('A' for Active; 'I' for Inactive)
REMARK    1  A    between atoms: C2_2  and  C3_3 
REMARK    2  A    between atoms: C3_3  and  C4_4 
REMARK    3  A    between atoms: C4_4  and  C5_5 
REMARK    4  A    between atoms: C4_4  and  C8_8 
REMARK    5  A    between atoms: C5_5  and  C6_6 
REMARK    6  A    between atoms: C8_8  and  C9_10 
REMARK    7  A    between atoms: C9_10  and  C10_11 
REMARK    8  A    between atoms: C10_11  and  C11_12 
REMARK    9  A    between atoms: C14_15  and  C15_16 
ROOT
HETATM    1  C9  UNL     1      22.033  33.753  59.581  1.00  0.00     0.083 C 
ENDROOT
BRANCH   1   2
HETATM    2  C8  UNL     1      22.279  34.875  58.667  1.00  0.00     0.132 C 
HETATM    3  O1  UNL     1      22.484  36.017  59.165  1.00  0.00    -0.298 OA
BRANCH   2   4
HETATM    4  C4  UNL     1      22.328  34.866  57.190  1.00  0.00     0.062 C 
BRANCH   4   5
HETATM    5  C3  UNL     1      20.920  34.621  56.626  1.00  0.00     0.038 C 
BRANCH   5   6
HETATM    6  C2  UNL     1      20.096  35.835  56.546  1.00  0.00    -0.036 C 
HETATM    7  C1  UNL     1      18.956  35.803  55.863  1.00  0.00     0.007 C 
ENDBRANCH   5   6
ENDBRANCH   4   5
BRANCH   4   8
HETATM    8  C5  UNL     1      23.207  33.809  56.579  1.00  0.00     0.038 C 
BRANCH   8   9
HETATM    9  C6  UNL     1      23.045  33.716  55.106  1.00  0.00    -0.036 C 
HETATM   10  C7  UNL     1      23.886  34.314  54.288  1.00  0.00     0.007 C 
ENDBRANCH   8   9
ENDBRANCH   4   8
ENDBRANCH   2   4
ENDBRANCH   1   2
BRANCH   1  11
HETATM   11  C10 UNL     1      21.036  34.010  60.640  1.00  0.00     0.046 C 
BRANCH  11  12
HETATM   12  C11 UNL     1      19.683  34.323  60.100  1.00  0.00    -0.052 A 
HETATM   13  C12 UNL     1      19.053  33.450  59.250  1.00  0.00     0.008 A 
HETATM   14  C13 UNL     1      17.807  33.680  58.708  1.00  0.00     0.015 A 
HETATM   15  C14 UNL     1      17.167  34.867  59.054  1.00  0.00     0.002 A 
HETATM   16  C16 UNL     1      17.807  35.738  59.910  1.00  0.00     0.021 A 
HETATM   17  C17 UNL     1      19.055  35.507  60.452  1.00  0.00    -0.055 A 
HETATM   18  C18 UNL     1      19.720  36.456  61.370  1.00  0.00     0.049 C 
BRANCH  15  19
HETATM   19  C15 UNL     1      15.854  35.175  58.518  1.00  0.00     0.269 C 
HETATM   20  O2  UNL     1      15.184  36.153  58.927  1.00  0.00    -0.301 OA
ENDBRANCH  15  19
ENDBRANCH  11  12
ENDBRANCH   1  11
TORSDOF 9
ENDMDL
MODEL 3
REMARK VINA RESULT: -6.712153883      2.472      5.802
REMARK  9 active torsions:
REMARK  status: ('A' for Active; 'I' for Inactive)
REMARK    1  A    between atoms: C2_2  and  C3_3 
REMARK    2  A    between atoms: C3_3  and  C4_4 
REMARK    3  A    between atoms: C4_4  and  C5_5 
REMARK    4  A    between atoms: C4_4  and  C8_8 
REMARK    5  A    between atoms: C5_5  and  C6_6 
REMARK    6  A    between atoms: C8_8  and  C9_10 
REMARK    7  A    between atoms: C9_10  and  C10_11 
REMARK    8  A    between atoms: C10_11  and  C11_12 
REMARK    9  A    between atoms: C14_15  and  C15_16 
ROOT
HETATM    1  C9  UNL     1      22.095  33.773  59.880  1.00  0.00     0.083 C 
ENDROOT
BRANCH   1   2
HETATM    2  C8  UNL     1      22.192  34.749  58.789  1.00  0.00     0.132 C 
HETATM    3  O1  UNL     1      22.542  35.929  59.071  1.00  0.00    -0.298 OA
BRANCH   2   4
HETATM    4  C4  UNL     1      21.933  34.549  57.347  1.00  0.00     0.062 C 
BRANCH   4   5
HETATM    5  C3  UNL     1      23.243  34.188  56.630  1.00  0.00     0.038 C 
BRANCH   5   6
HETATM    6  C2  UNL     1      23.060  33.809  55.222  1.00  0.00    -0.036 C 
HETATM    7  C1  UNL     1      23.932  34.239  54.316  1.00  0.00     0.007 C 
ENDBRANCH   5   6
ENDBRANCH   4   5
BRANCH   4   8
HETATM    8  C5  UNL     1      21.379  35.744  56.619  1.00  0.00     0.038 C 
BRANCH   8   9
HETATM    9  C6  UNL     1      19.915  35.642  56.391  1.00  0.00    -0.036 C 
HETATM   10  C7  UNL     1      19.410  34.709  55.611  1.00  0.00     0.007 C 
ENDBRANCH   8   9
ENDBRANCH   4   8
ENDBRANCH   2   4
ENDBRANCH   1   2
BRANCH   1  11
HETATM   11  C10 UNL     1      21.046  34.051  60.882  1.00  0.00     0.046 C 
BRANCH  11  12
HETATM   12  C11 UNL     1      19.724  34.363  60.267  1.00  0.00    -0.052 A 
HETATM   13  C12 UNL     1      19.131  33.478  59.404  1.00  0.00     0.008 A 
HETATM   14  C13 UNL     1      17.916  33.708  58.794  1.00  0.00     0.015 A 
HETATM   15  C14 UNL     1      17.270  34.907  59.083  1.00  0.00     0.002 A 
HETATM   16  C16 UNL     1      17.874  35.790  59.953  1.00  0.00     0.021 A 
HETATM   17  C17 UNL     1      19.091  35.560  60.563  1.00  0.00    -0.055 A 
HETATM   18  C18 UNL     1      19.717  36.522  61.495  1.00  0.00     0.049 C 
BRANCH  15  19
HETATM   19  C15 UNL     1      15.989  35.215  58.475  1.00  0.00     0.269 C 
HETATM   20  O2  UNL     1      15.259  36.141  58.900  1.00  0.00    -0.301 OA
ENDBRANCH  15  19
ENDBRANCH  11  12
ENDBRANCH   1  11
TORSDOF 9
ENDMDL
MODEL 4
REMARK VINA RESULT: -6.632716725      2.124      5.259
REMARK  9 active torsions:
REMARK  status: ('A' for Active; 'I' for Inactive)
REMARK    1  A    between atoms: C2_2  and  C3_3 
REMARK    2  A    between atoms: C3_3  and  C4_4 
REMARK    3  A    between atoms: C4_4  and  C5_5 
REMARK    4  A    between atoms: C4_4  and  C8_8 
REMARK    5  A    between atoms: C5_5  and  C6_6 
REMARK    6  A    between atoms: C8_8  and  C9_10 
REMARK    7  A    between atoms: C9_10  and  C10_11 
REMARK    8  A    between atoms: C10_11  and  C11_12 
REMARK    9  A    between atoms: C14_15  and  C15_16 
ROOT
HETATM    1  C9  UNL     1      16.651  36.728  57.705  1.00  0.00     0.083 C 
ENDROOT
BRANCH   1   2
HETATM    2  C8  UNL     1      16.715  36.120  56.371  1.00  0.00     0.132 C 
HETATM    3  O1  UNL     1      15.636  35.748  55.830  1.00  0.00    -0.298 OA
BRANCH   2   4
HETATM    4  C4  UNL     1      17.904  35.870  55.528  1.00  0.00     0.062 C 
BRANCH   4   5
HETATM    5  C3  UNL     1      17.980  34.378  55.168  1.00  0.00     0.038 C 
BRANCH   5   6
HETATM    6  C2  UNL     1      17.920  34.117  53.723  1.00  0.00    -0.036 C 
HETATM    7  C1  UNL     1      18.904  33.432  53.147  1.00  0.00     0.007 C 
ENDBRANCH   5   6
ENDBRANCH   4   5
BRANCH   4   8
HETATM    8  C5  UNL     1      19.226  36.210  56.161  1.00  0.00     0.038 C 
BRANCH   8   9
HETATM    9  C6  UNL     1      20.062  35.009  56.410  1.00  0.00    -0.036 C 
HETATM   10  C7  UNL     1      21.206  35.096  57.057  1.00  0.00     0.007 C 
ENDBRANCH   8   9
ENDBRANCH   4   8
ENDBRANCH   2   4
ENDBRANCH   1   2
BRANCH   1  11
HETATM   11  C10 UNL     1      16.441  35.781  58.819  1.00  0.00     0.046 C 
BRANCH  11  12
HETATM   12  C11 UNL     1      17.716  35.332  59.448  1.00  0.00    -0.052 A 
HETATM   13  C12 UNL     1      18.453  36.193  60.219  1.00  0.00     0.008 A 
HETATM   14  C13 UNL     1      19.644  35.846  60.821  1.00  0.00     0.015 A 
HETATM   15  C14 UNL     1      20.106  34.548  60.627  1.00  0.00     0.002 A 
HETATM   16  C16 UNL     1      19.358  33.689  59.850  1.00  0.00     0.021 A 
HETATM   17  C17 UNL     1      18.166  34.037  59.246  1.00  0.00    -0.055 A 
HETATM   18  C18 UNL     1      17.380  33.096  58.419  1.00  0.00     0.049 C 
BRANCH  15  19
HETATM   19  C15 UNL     1      21.353  34.115  61.229  1.00  0.00     0.269 C 
HETATM   20  O2  UNL     1      22.365  33.846  60.540  1.00  0.00    -0.301 OA
ENDBRANCH  15  19
ENDBRANCH  11  12
ENDBRANCH   1  11
TORSDOF 9
ENDMDL
MODEL 5
REMARK VINA RESULT: -6.631447189      2.042      4.878
REMARK  9 active torsions:
REMARK  status: ('A' for Active; 'I' for Inactive)
REMARK    1  A    between atoms: C2_2  and  C3_3 
REMARK    2  A    between atoms: C3_3  and  C4_4 
REMARK    3  A    between atoms: C4_4  and  C5_5 
REMARK    4  A    between atoms: C4_4  and  C8_8 
REMARK    5  A    between atoms: C5_5  and  C6_6 
REMARK    6  A    between atoms: C8_8  and  C9_10 
REMARK    7  A    between atoms: C9_10  and  C10_11 
REMARK    8  A    between atoms: C10_11  and  C11_12 
REMARK    9  A    between atoms: C14_15  and  C15_16 
ROOT
HETATM    1  C9  UNL     1      17.732  36.146  59.618  1.00  0.00     0.083 C 
ENDROOT
BRANCH   1   2
HETATM    2  C8  UNL     1      16.650  35.975  58.642  1.00  0.00     0.132 C 
HETATM    3  O1  UNL     1      15.458  36.072  59.046  1.00  0.00    -0.298 OA
BRANCH   2   4
HETATM    4  C4  UNL     1      16.752  35.699  57.192  1.00  0.00     0.062 C 
BRANCH   4   5
HETATM    5  C3  UNL     1      16.093  36.839  56.400  1.00  0.00     0.038 C 
BRANCH   5   6
HETATM    6  C2  UNL     1      16.969  38.001  56.199  1.00  0.00    -0.036 C 
HETATM    7  C1  UNL     1      18.204  37.812  55.745  1.00  0.00     0.007 C 
ENDBRANCH   5   6
ENDBRANCH   4   5
BRANCH   4   8
HETATM    8  C5  UNL     1      16.083  34.433  56.729  1.00  0.00     0.038 C 
BRANCH   8   9
HETATM    9  C6  UNL     1      16.879  33.221  57.048  1.00  0.00    -0.036 C 
HETATM   10  C7  UNL     1      16.406  32.285  57.844  1.00  0.00     0.007 C 
ENDBRANCH   8   9
ENDBRANCH   4   8
ENDBRANCH   2   4
ENDBRANCH   1   2
BRANCH   1  11
HETATM   11  C10 UNL     1      18.531  34.934  59.891  1.00  0.00     0.046 C 
BRANCH  11  12
HETATM   12  C11 UNL     1      19.902  34.999  59.311  1.00  0.00    -0.052 A 
HETATM   13  C12 UNL     1      20.126  34.630  58.009  1.00  0.00     0.008 A 
HETATM   14  C13 UNL     1      21.369  34.657  57.414  1.00  0.00     0.015 A 
HETATM   15  C14 UNL     1      22.442  35.085  58.189  1.00  0.00     0.002 A 
HETATM   16  C16 UNL     1      22.208  35.454  59.497  1.00  0.00     0.021 A 
HETATM   17  C17 UNL     1      20.963  35.426  60.093  1.00  0.00    -0.055 A 
HETATM   18  C18 UNL     1      20.736  35.829  61.498  1.00  0.00     0.049 C 
BRANCH  15  19
HETATM   19  C15 UNL     1      23.779  35.137  57.627  1.00  0.00     0.269 C 
HETATM   20  O2  UNL     1      24.165  36.098  56.921  1.00  0.00    -0.301 OA
ENDBRANCH  15  19
ENDBRANCH  11  12
ENDBRANCH   1  11
TORSDOF 9
ENDMDL
