MODEL 1
REMARK VINA RESULT: -6.325492052      0.000      0.000
REMARK  10 active torsions:
REMARK  status: ('A' for Active; 'I' for Inactive)
REMARK    1  A    between atoms: O1_2  and  C2_3 
REMARK    2  A    between atoms: C2_3  and  C5_6 
REMARK    3  A    between atoms: C5_6  and  O2_7 
REMARK    4  A    between atoms: C5_6  and  C6_9 
REMARK    5  A    between atoms: C5_6  and  C14_17 
REMARK    6  A    between atoms: C6_9  and  C7_10 
REMARK    7  A    between atoms: C7_10  and  C8_11 
REMARK    8  A    between atoms: C8_11  and  C9_12 
REMARK    9  A    between atoms: C9_12  and  C10_13 
REMARK   10  A    between atoms: C10_13  and  C11_14 
ROOT
HETATM    1  C5  UNL     1      17.788  35.229  58.145  1.00  0.00     0.092 C 
ENDROOT
BRANCH   1   2
HETATM    2  C2  UNL     1      16.478  34.588  57.762  1.00  0.00     0.084 C 
HETATM    3  C3  UNL     1      15.574  34.544  58.959  1.00  0.00     0.049 C 
HETATM    4  C4  UNL     1      15.787  35.558  56.780  1.00  0.00     0.049 C 
BRANCH   2   5
HETATM    5  O1  UNL     1      16.608  33.384  57.134  1.00  0.00    -0.383 OA
HETATM    6  C1  UNL     1      16.239  32.292  57.859  1.00  0.00     0.202 C 
ENDBRANCH   2   5
ENDBRANCH   1   2
BRANCH   1   7
HETATM    7  O2  UNL     1      17.693  36.578  57.771  1.00  0.00    -0.386 OA
ATOM      8  H2  UNL     1      18.583  36.883  57.642  1.00  0.00     0.210 HD
ENDBRANCH   1   7
BRANCH   1   9
HETATM    9  C6  UNL     1      18.903  34.690  57.233  1.00  0.00     0.041 C 
BRANCH   9  10
HETATM   10  C7  UNL     1      19.482  35.735  56.325  1.00  0.00     0.003 C 
BRANCH  10  11
HETATM   11  C8  UNL     1      20.995  35.648  56.313  1.00  0.00     0.000 C 
BRANCH  11  12
HETATM   12  C9  UNL     1      21.504  34.733  57.387  1.00  0.00     0.000 C 
BRANCH  12  13
HETATM   13  C10 UNL     1      22.345  35.458  58.397  1.00  0.00     0.004 C 
BRANCH  13  14
HETATM   14  C11 UNL     1      23.316  34.519  59.089  1.00  0.00    -0.023 C 
HETATM   15  C12 UNL     1      22.835  34.097  60.439  1.00  0.00     0.009 C 
HETATM   16  C13 UNL     1      23.494  33.290  58.226  1.00  0.00     0.009 C 
ENDBRANCH  13  14
ENDBRANCH  12  13
ENDBRANCH  11  12
ENDBRANCH  10  11
ENDBRANCH   9  10
ENDBRANCH   1   9
BRANCH   1  17
HETATM   17  C14 UNL     1      18.224  35.141  59.530  1.00  0.00     0.023 C 
HETATM   18  C15 UNL     1      18.923  36.338  60.119  1.00  0.00     0.007 C 
HETATM   19  C16 UNL     1      19.201  35.805  61.536  1.00  0.00     0.001 C 
HETATM   20  C17 UNL     1      19.303  34.295  61.394  1.00  0.00     0.001 C 
HETATM   21  C18 UNL     1      19.199  34.043  59.875  1.00  0.00     0.007 C 
ENDBRANCH   1  17
TORSDOF 10
ENDMDL
MODEL 2
REMARK VINA RESULT: -6.142157887      0.950      1.235
REMARK  10 active torsions:
REMARK  status: ('A' for Active; 'I' for Inactive)
REMARK    1  A    between atoms: O1_2  and  C2_3 
REMARK    2  A    between atoms: C2_3  and  C5_6 
REMARK    3  A    between atoms: C5_6  and  O2_7 
REMARK    4  A    between atoms: C5_6  and  C6_9 
REMARK    5  A    between atoms: C5_6  and  C14_17 
REMARK    6  A    between atoms: C6_9  and  C7_10 
REMARK    7  A    between atoms: C7_10  and  C8_11 
REMARK    8  A    between atoms: C8_11  and  C9_12 
REMARK    9  A    between atoms: C9_12  and  C10_13 
REMARK   10  A    between atoms: C10_13  and  C11_14 
ROOT
HETATM    1  C5  UNL     1      17.891  34.993  58.133  1.00  0.00     0.092 C 
ENDROOT
BRANCH   1   2
HETATM    2  C2  UNL     1      16.566  34.342  57.826  1.00  0.00     0.084 C 
HETATM    3  C3  UNL     1      15.794  34.156  59.100  1.00  0.00     0.049 C 
HETATM    4  C4  UNL     1      15.749  35.369  57.016  1.00  0.00     0.049 C 
BRANCH   2   5
HETATM    5  O1  UNL     1      16.662  33.205  57.079  1.00  0.00    -0.383 OA
HETATM    6  C1  UNL     1      16.192  32.067  57.661  1.00  0.00     0.202 C 
ENDBRANCH   2   5
ENDBRANCH   1   2
BRANCH   1   7
HETATM    7  O2  UNL     1      17.718  36.367  57.902  1.00  0.00    -0.386 OA
ATOM      8  H2  UNL     1      16.781  36.520  57.891  1.00  0.00     0.210 HD
ENDBRANCH   1   7
BRANCH   1   9
HETATM    9  C6  UNL     1      18.917  34.584  57.063  1.00  0.00     0.041 C 
BRANCH   9  10
HETATM   10  C7  UNL     1      19.433  35.745  56.262  1.00  0.00     0.003 C 
BRANCH  10  11
HETATM   11  C8  UNL     1      20.912  35.578  55.979  1.00  0.00     0.000 C 
BRANCH  11  12
HETATM   12  C9  UNL     1      21.234  34.185  55.526  1.00  0.00     0.000 C 
BRANCH  12  13
HETATM   13  C10 UNL     1      22.647  33.796  55.853  1.00  0.00     0.004 C 
BRANCH  13  14
HETATM   14  C11 UNL     1      23.095  34.392  57.174  1.00  0.00    -0.023 C 
HETATM   15  C12 UNL     1      23.228  33.361  58.247  1.00  0.00     0.009 C 
HETATM   16  C13 UNL     1      24.435  35.062  56.971  1.00  0.00     0.009 C 
ENDBRANCH  13  14
ENDBRANCH  12  13
ENDBRANCH  11  12
ENDBRANCH  10  11
ENDBRANCH   9  10
ENDBRANCH   1   9
BRANCH   1  17
HETATM   17  C14 UNL     1      18.474  34.794  59.450  1.00  0.00     0.023 C 
HETATM   18  C15 UNL     1      18.763  36.018  60.278  1.00  0.00     0.007 C 
HETATM   19  C16 UNL     1      19.359  35.350  61.530  1.00  0.00     0.001 C 
HETATM   20  C17 UNL     1      19.973  34.046  61.046  1.00  0.00     0.001 C 
HETATM   21  C18 UNL     1      19.804  34.087  59.513  1.00  0.00     0.007 C 
ENDBRANCH   1  17
TORSDOF 10
ENDMDL
MODEL 3
REMARK VINA RESULT: -6.088668682      1.597      2.667
REMARK  10 active torsions:
REMARK  status: ('A' for Active; 'I' for Inactive)
REMARK    1  A    between atoms: O1_2  and  C2_3 
REMARK    2  A    between atoms: C2_3  and  C5_6 
REMARK    3  A    between atoms: C5_6  and  O2_7 
REMARK    4  A    between atoms: C5_6  and  C6_9 
REMARK    5  A    between atoms: C5_6  and  C14_17 
REMARK    6  A    between atoms: C6_9  and  C7_10 
REMARK    7  A    between atoms: C7_10  and  C8_11 
REMARK    8  A    between atoms: C8_11  and  C9_12 
REMARK    9  A    between atoms: C9_12  and  C10_13 
REMARK   10  A    between atoms: C10_13  and  C11_14 
ROOT
HETATM    1  C5  UNL     1      17.874  35.094  58.062  1.00  0.00     0.092 C 
ENDROOT
BRANCH   1   2
HETATM    2  C2  UNL     1      16.526  34.513  57.718  1.00  0.00     0.084 C 
HETATM    3  C3  UNL     1      15.674  34.463  58.953  1.00  0.00     0.049 C 
HETATM    4  C4  UNL     1      15.828  35.538  56.799  1.00  0.00     0.049 C 
BRANCH   2   5
HETATM    5  O1  UNL     1      16.583  33.326  57.049  1.00  0.00    -0.383 OA
HETATM    6  C1  UNL     1      16.253  32.219  57.770  1.00  0.00     0.202 C 
ENDBRANCH   2   5
ENDBRANCH   1   2
BRANCH   1   7
HETATM    7  O2  UNL     1      17.808  36.460  57.748  1.00  0.00    -0.386 OA
ATOM      8  H2  UNL     1      18.413  36.599  57.029  1.00  0.00     0.210 HD
ENDBRANCH   1   7
BRANCH   1   9
HETATM    9  C6  UNL     1      18.924  34.558  57.074  1.00  0.00     0.041 C 
BRANCH   9  10
HETATM   10  C7  UNL     1      19.567  35.636  56.249  1.00  0.00     0.003 C 
BRANCH  10  11
HETATM   11  C8  UNL     1      21.076  35.552  56.350  1.00  0.00     0.000 C 
BRANCH  11  12
HETATM   12  C9  UNL     1      21.585  34.210  55.912  1.00  0.00     0.000 C 
BRANCH  12  13
HETATM   13  C10 UNL     1      22.413  34.299  54.663  1.00  0.00     0.004 C 
BRANCH  13  14
HETATM   14  C11 UNL     1      21.697  33.678  53.478  1.00  0.00    -0.023 C 
HETATM   15  C12 UNL     1      20.607  32.746  53.895  1.00  0.00     0.009 C 
HETATM   16  C13 UNL     1      21.100  34.787  52.642  1.00  0.00     0.009 C 
ENDBRANCH  13  14
ENDBRANCH  12  13
ENDBRANCH  11  12
ENDBRANCH  10  11
ENDBRANCH   9  10
ENDBRANCH   1   9
BRANCH   1  17
HETATM   17  C14 UNL     1      18.374  34.933  59.418  1.00  0.00     0.023 C 
HETATM   18  C15 UNL     1      18.723  36.181  60.186  1.00  0.00     0.007 C 
HETATM   19  C16 UNL     1      19.200  35.549  61.505  1.00  0.00     0.001 C 
HETATM   20  C17 UNL     1      19.726  34.172  61.134  1.00  0.00     0.001 C 
HETATM   21  C18 UNL     1      19.636  34.128  59.594  1.00  0.00     0.007 C 
ENDBRANCH   1  17
TORSDOF 10
ENDMDL
MODEL 4
REMARK VINA RESULT: -5.896144467      1.574      3.681
REMARK  10 active torsions:
REMARK  status: ('A' for Active; 'I' for Inactive)
REMARK    1  A    between atoms: O1_2  and  C2_3 
REMARK    2  A    between atoms: C2_3  and  C5_6 
REMARK    3  A    between atoms: C5_6  and  O2_7 
REMARK    4  A    between atoms: C5_6  and  C6_9 
REMARK    5  A    between atoms: C5_6  and  C14_17 
REMARK    6  A    between atoms: C6_9  and  C7_10 
REMARK    7  A    between atoms: C7_10  and  C8_11 
REMARK    8  A    between atoms: C8_11  and  C9_12 
REMARK    9  A    between atoms: C9_12  and  C10_13 
REMARK   10  A    between atoms: C10_13  and  C11_14 
ROOT
HETATM    1  C5  UNL     1      16.705  36.056  57.861  1.00  0.00     0.092 C 
ENDROOT
BRANCH   1   2
HETATM    2  C2  UNL     1      16.749  36.917  56.625  1.00  0.00     0.084 C 
HETATM    3  C3  UNL     1      15.385  36.965  56.001  1.00  0.00     0.049 C 
HETATM    4  C4  UNL     1      17.013  38.360  57.105  1.00  0.00     0.049 C 
BRANCH   2   5
HETATM    5  O1  UNL     1      17.737  36.585  55.746  1.00  0.00    -0.383 OA
HETATM    6  C1  UNL     1      18.631  37.570  55.455  1.00  0.00     0.202 C 
ENDBRANCH   2   5
ENDBRANCH   1   2
BRANCH   1   7
HETATM    7  O2  UNL     1      15.671  36.565  58.662  1.00  0.00    -0.386 OA
ATOM      8  H2  UNL     1      14.875  36.134  58.375  1.00  0.00     0.210 HD
ENDBRANCH   1   7
BRANCH   1   9
HETATM    9  C6  UNL     1      17.964  36.317  58.706  1.00  0.00     0.041 C 
BRANCH   9  10
HETATM   10  C7  UNL     1      17.729  36.164  60.181  1.00  0.00     0.003 C 
BRANCH  10  11
HETATM   11  C8  UNL     1      19.036  35.903  60.902  1.00  0.00     0.000 C 
BRANCH  11  12
HETATM   12  C9  UNL     1      19.213  34.446  61.215  1.00  0.00     0.000 C 
BRANCH  12  13
HETATM   13  C10 UNL     1      20.033  33.740  60.174  1.00  0.00     0.004 C 
BRANCH  13  14
HETATM   14  C11 UNL     1      21.244  34.560  59.772  1.00  0.00    -0.023 C 
HETATM   15  C12 UNL     1      22.510  34.034  60.365  1.00  0.00     0.009 C 
HETATM   16  C13 UNL     1      21.362  34.537  58.265  1.00  0.00     0.009 C 
ENDBRANCH  13  14
ENDBRANCH  12  13
ENDBRANCH  11  12
ENDBRANCH  10  11
ENDBRANCH   9  10
ENDBRANCH   1   9
BRANCH   1  17
HETATM   17  C14 UNL     1      16.531  34.621  57.701  1.00  0.00     0.023 C 
HETATM   18  C15 UNL     1      15.982  33.849  58.872  1.00  0.00     0.007 C 
HETATM   19  C16 UNL     1      15.984  32.431  58.273  1.00  0.00     0.001 C 
HETATM   20  C17 UNL     1      17.097  32.426  57.236  1.00  0.00     0.001 C 
HETATM   21  C18 UNL     1      17.762  33.811  57.377  1.00  0.00     0.007 C 
ENDBRANCH   1  17
TORSDOF 10
ENDMDL
MODEL 5
REMARK VINA RESULT: -5.891970320      2.489      5.684
REMARK  10 active torsions:
REMARK  status: ('A' for Active; 'I' for Inactive)
REMARK    1  A    between atoms: O1_2  and  C2_3 
REMARK    2  A    between atoms: C2_3  and  C5_6 
REMARK    3  A    between atoms: C5_6  and  O2_7 
REMARK    4  A    between atoms: C5_6  and  C6_9 
REMARK    5  A    between atoms: C5_6  and  C14_17 
REMARK    6  A    between atoms: C6_9  and  C7_10 
REMARK    7  A    between atoms: C7_10  and  C8_11 
REMARK    8  A    between atoms: C8_11  and  C9_12 
REMARK    9  A    between atoms: C9_12  and  C10_13 
REMARK   10  A    between atoms: C10_13  and  C11_14 
ROOT
HETATM    1  C5  UNL     1      19.802  35.678  54.891  1.00  0.00     0.092 C 
ENDROOT
BRANCH   1   2
HETATM    2  C2  UNL     1      19.737  37.153  54.590  1.00  0.00     0.084 C 
HETATM    3  C3  UNL     1      18.727  37.803  55.490  1.00  0.00     0.049 C 
HETATM    4  C4  UNL     1      21.092  37.750  55.023  1.00  0.00     0.049 C 
BRANCH   2   5
HETATM    5  O1  UNL     1      19.556  37.447  53.270  1.00  0.00    -0.383 OA
HETATM    6  C1  UNL     1      20.561  38.146  52.673  1.00  0.00     0.202 C 
ENDBRANCH   2   5
ENDBRANCH   1   2
BRANCH   1   7
HETATM    7  O2  UNL     1      19.216  35.025  53.795  1.00  0.00    -0.386 OA
ATOM      8  H2  UNL     1      19.665  35.346  53.022  1.00  0.00     0.210 HD
ENDBRANCH   1   7
BRANCH   1   9
HETATM    9  C6  UNL     1      18.841  35.352  56.047  1.00  0.00     0.041 C 
BRANCH   9  10
HETATM   10  C7  UNL     1      17.767  34.373  55.668  1.00  0.00     0.003 C 
BRANCH  10  11
HETATM   11  C8  UNL     1      17.622  33.307  56.734  1.00  0.00     0.000 C 
BRANCH  11  12
HETATM   12  C9  UNL     1      18.018  33.820  58.087  1.00  0.00     0.000 C 
BRANCH  12  13
HETATM   13  C10 UNL     1      16.835  33.995  58.994  1.00  0.00     0.004 C 
BRANCH  13  14
HETATM   14  C11 UNL     1      16.705  35.431  59.466  1.00  0.00    -0.023 C 
HETATM   15  C12 UNL     1      18.029  36.053  59.769  1.00  0.00     0.009 C 
HETATM   16  C13 UNL     1      16.024  36.234  58.381  1.00  0.00     0.009 C 
ENDBRANCH  13  14
ENDBRANCH  12  13
ENDBRANCH  11  12
ENDBRANCH  10  11
ENDBRANCH   9  10
ENDBRANCH   1   9
BRANCH   1  17
HETATM   17  C14 UNL     1      21.099  35.084  55.171  1.00  0.00     0.023 C 
HETATM   18  C15 UNL     1      21.530  33.915  54.324  1.00  0.00     0.007 C 
HETATM   19  C16 UNL     1      22.898  33.621  54.963  1.00  0.00     0.001 C 
HETATM   20  C17 UNL     1      22.788  34.094  56.404  1.00  0.00     0.001 C 
HETATM   21  C18 UNL     1      21.315  34.527  56.556  1.00  0.00     0.007 C 
ENDBRANCH   1  17
TORSDOF 10
ENDMDL
