MODEL 1
REMARK VINA RESULT: -6.902587803      0.000      0.000
REMARK  8 active torsions:
REMARK  status: ('A' for Active; 'I' for Inactive)
REMARK    1  A    between atoms: C2_2  and  C3_3 
REMARK    2  A    between atoms: C3_3  and  C7_9 
REMARK    3  A    between atoms: C4_4  and  C6_6 
REMARK    4  A    between atoms: C6_6  and  O1_7 
REMARK    5  A    between atoms: C7_9  and  O2_10 
REMARK    6  A    between atoms: O2_10  and  C8_11 
REMARK    7  A    between atoms: C8_11  and  C9_12 
REMARK    8  A    between atoms: C9_12  and  C10_13 
ROOT
HETATM    1  C7  UNL     1      17.715  35.160  55.967  1.00  0.00     0.076 C 
HETATM    2  C16 UNL     1      17.372  36.396  56.134  1.00  0.00    -0.054 C 
HETATM    3  C17 UNL     1      15.918  36.604  56.600  1.00  0.00     0.046 C 
HETATM    4  C18 UNL     1      18.082  37.667  55.963  1.00  0.00     0.046 C 
ENDROOT
BRANCH   1   5
HETATM    5  C3  UNL     1      18.965  34.544  55.541  1.00  0.00    -0.021 C 
HETATM    6  C4  UNL     1      19.101  33.876  54.432  1.00  0.00    -0.051 C 
HETATM    7  C5  UNL     1      20.363  33.067  54.211  1.00  0.00     0.046 C 
BRANCH   5   8
HETATM    8  C2  UNL     1      20.131  34.441  56.488  1.00  0.00     0.037 C 
HETATM    9  C1  UNL     1      20.968  35.662  56.564  1.00  0.00     0.010 C 
ENDBRANCH   5   8
BRANCH   6  10
HETATM   10  C6  UNL     1      18.246  33.943  53.236  1.00  0.00     0.198 C 
BRANCH  10  11
HETATM   11  O1  UNL     1      18.553  32.679  52.564  1.00  0.00    -0.397 OA
ATOM     12  H1  UNL     1      17.925  32.671  51.851  1.00  0.00     0.209 HD
ENDBRANCH  10  11
ENDBRANCH   6  10
ENDBRANCH   1   5
BRANCH   1  13
HETATM   13  O2  UNL     1      16.678  34.201  56.280  1.00  0.00    -0.350 OA
BRANCH  13  14
HETATM   14  C8  UNL     1      17.051  33.215  57.264  1.00  0.00     0.176 C 
BRANCH  14  15
HETATM   15  C9  UNL     1      16.407  33.389  58.577  1.00  0.00     0.031 C 
BRANCH  15  16
HETATM   16  C10 UNL     1      17.129  34.066  59.671  1.00  0.00    -0.013 C 
HETATM   17  C11 UNL     1      16.946  35.542  59.709  1.00  0.00     0.005 C 
HETATM   18  C12 UNL     1      18.206  36.343  59.825  1.00  0.00     0.000 C 
HETATM   19  C13 UNL     1      19.189  35.769  60.824  1.00  0.00     0.000 C 
HETATM   20  C14 UNL     1      19.459  34.306  60.561  1.00  0.00     0.000 C 
HETATM   21  C15 UNL     1      18.623  33.797  59.410  1.00  0.00     0.005 C 
ENDBRANCH  15  16
ENDBRANCH  14  15
ENDBRANCH  13  14
ENDBRANCH   1  13
TORSDOF 8
ENDMDL
MODEL 2
REMARK VINA RESULT: -6.744658825      0.812      1.573
REMARK  8 active torsions:
REMARK  status: ('A' for Active; 'I' for Inactive)
REMARK    1  A    between atoms: C2_2  and  C3_3 
REMARK    2  A    between atoms: C3_3  and  C7_9 
REMARK    3  A    between atoms: C4_4  and  C6_6 
REMARK    4  A    between atoms: C6_6  and  O1_7 
REMARK    5  A    between atoms: C7_9  and  O2_10 
REMARK    6  A    between atoms: O2_10  and  C8_11 
REMARK    7  A    between atoms: C8_11  and  C9_12 
REMARK    8  A    between atoms: C9_12  and  C10_13 
ROOT
HETATM    1  C7  UNL     1      18.101  35.238  56.115  1.00  0.00     0.076 C 
HETATM    2  C16 UNL     1      17.788  36.493  56.170  1.00  0.00    -0.054 C 
HETATM    3  C17 UNL     1      16.460  36.794  56.892  1.00  0.00     0.046 C 
HETATM    4  C18 UNL     1      18.434  37.711  55.675  1.00  0.00     0.046 C 
ENDROOT
BRANCH   1   5
HETATM    5  C3  UNL     1      19.241  34.544  55.532  1.00  0.00    -0.021 C 
HETATM    6  C4  UNL     1      19.180  33.845  54.436  1.00  0.00    -0.051 C 
HETATM    7  C5  UNL     1      20.352  32.960  54.060  1.00  0.00     0.046 C 
BRANCH   5   8
HETATM    8  C2  UNL     1      20.526  34.394  56.305  1.00  0.00     0.037 C 
HETATM    9  C1  UNL     1      21.303  35.647  56.449  1.00  0.00     0.010 C 
ENDBRANCH   5   8
BRANCH   6  10
HETATM   10  C6  UNL     1      18.166  33.935  53.373  1.00  0.00     0.198 C 
BRANCH  10  11
HETATM   11  O1  UNL     1      18.422  32.720  52.596  1.00  0.00    -0.397 OA
ATOM     12  H1  UNL     1      17.753  32.128  52.920  1.00  0.00     0.209 HD
ENDBRANCH  10  11
ENDBRANCH   6  10
ENDBRANCH   1   5
BRANCH   1  13
HETATM   13  O2  UNL     1      17.161  34.355  56.769  1.00  0.00    -0.350 OA
BRANCH  13  14
HETATM   14  C8  UNL     1      17.739  33.515  57.790  1.00  0.00     0.176 C 
BRANCH  14  15
HETATM   15  C9  UNL     1      17.760  34.115  59.135  1.00  0.00     0.031 C 
BRANCH  15  16
HETATM   16  C10 UNL     1      18.966  34.814  59.615  1.00  0.00    -0.013 C 
HETATM   17  C11 UNL     1      20.100  33.916  59.964  1.00  0.00     0.005 C 
HETATM   18  C12 UNL     1      20.732  34.167  61.298  1.00  0.00     0.000 C 
HETATM   19  C13 UNL     1      20.933  35.639  61.596  1.00  0.00     0.000 C 
HETATM   20  C14 UNL     1      19.657  36.425  61.406  1.00  0.00     0.000 C 
HETATM   21  C15 UNL     1      18.541  35.537  60.906  1.00  0.00     0.005 C 
ENDBRANCH  15  16
ENDBRANCH  14  15
ENDBRANCH  13  14
ENDBRANCH   1  13
TORSDOF 8
ENDMDL
MODEL 3
REMARK VINA RESULT: -6.492200383      1.237      3.116
REMARK  8 active torsions:
REMARK  status: ('A' for Active; 'I' for Inactive)
REMARK    1  A    between atoms: C2_2  and  C3_3 
REMARK    2  A    between atoms: C3_3  and  C7_9 
REMARK    3  A    between atoms: C4_4  and  C6_6 
REMARK    4  A    between atoms: C6_6  and  O1_7 
REMARK    5  A    between atoms: C7_9  and  O2_10 
REMARK    6  A    between atoms: O2_10  and  C8_11 
REMARK    7  A    between atoms: C8_11  and  C9_12 
REMARK    8  A    between atoms: C9_12  and  C10_13 
ROOT
HETATM    1  C7  UNL     1      18.072  34.907  55.034  1.00  0.00     0.076 C 
HETATM    2  C16 UNL     1      18.568  34.746  53.850  1.00  0.00    -0.054 C 
HETATM    3  C17 UNL     1      18.361  33.340  53.252  1.00  0.00     0.046 C 
HETATM    4  C18 UNL     1      19.305  35.628  52.942  1.00  0.00     0.046 C 
ENDROOT
BRANCH   1   5
HETATM    5  C3  UNL     1      18.053  36.052  55.935  1.00  0.00    -0.021 C 
HETATM    6  C4  UNL     1      16.971  36.698  56.262  1.00  0.00    -0.051 C 
HETATM    7  C5  UNL     1      17.096  38.019  56.994  1.00  0.00     0.046 C 
BRANCH   5   8
HETATM    8  C2  UNL     1      19.337  36.715  56.360  1.00  0.00     0.037 C 
HETATM    9  C1  UNL     1      20.481  35.787  56.519  1.00  0.00     0.010 C 
ENDBRANCH   5   8
BRANCH   6  10
HETATM   10  C6  UNL     1      15.582  36.219  56.178  1.00  0.00     0.198 C 
BRANCH  10  11
HETATM   11  O1  UNL     1      14.836  37.463  55.983  1.00  0.00    -0.397 OA
ATOM     12  H1  UNL     1      14.368  37.293  55.174  1.00  0.00     0.209 HD
ENDBRANCH  10  11
ENDBRANCH   6  10
ENDBRANCH   1   5
BRANCH   1  13
HETATM   13  O2  UNL     1      17.389  33.747  55.563  1.00  0.00    -0.350 OA
BRANCH  13  14
HETATM   14  C8  UNL     1      17.917  33.259  56.813  1.00  0.00     0.176 C 
BRANCH  14  15
HETATM   15  C9  UNL     1      16.973  33.323  57.942  1.00  0.00     0.031 C 
BRANCH  15  16
HETATM   16  C10 UNL     1      17.414  33.849  59.247  1.00  0.00    -0.013 C 
HETATM   17  C11 UNL     1      16.991  35.248  59.522  1.00  0.00     0.005 C 
HETATM   18  C12 UNL     1      18.075  36.167  59.994  1.00  0.00     0.000 C 
HETATM   19  C13 UNL     1      18.987  35.534  61.025  1.00  0.00     0.000 C 
HETATM   20  C14 UNL     1      19.526  34.205  60.549  1.00  0.00     0.000 C 
HETATM   21  C15 UNL     1      18.953  33.838  59.200  1.00  0.00     0.005 C 
ENDBRANCH  15  16
ENDBRANCH  14  15
ENDBRANCH  13  14
ENDBRANCH   1  13
TORSDOF 8
ENDMDL
MODEL 4
REMARK VINA RESULT: -6.422418683      3.636      5.015
REMARK  8 active torsions:
REMARK  status: ('A' for Active; 'I' for Inactive)
REMARK    1  A    between atoms: C2_2  and  C3_3 
REMARK    2  A    between atoms: C3_3  and  C7_9 
REMARK    3  A    between atoms: C4_4  and  C6_6 
REMARK    4  A    between atoms: C6_6  and  O1_7 
REMARK    5  A    between atoms: C7_9  and  O2_10 
REMARK    6  A    between atoms: O2_10  and  C8_11 
REMARK    7  A    between atoms: C8_11  and  C9_12 
REMARK    8  A    between atoms: C9_12  and  C10_13 
ROOT
HETATM    1  C7  UNL     1      21.432  36.326  54.624  1.00  0.00     0.076 C 
HETATM    2  C16 UNL     1      20.948  36.867  53.553  1.00  0.00    -0.054 C 
HETATM    3  C17 UNL     1      19.608  37.602  53.752  1.00  0.00     0.046 C 
HETATM    4  C18 UNL     1      21.407  36.926  52.163  1.00  0.00     0.046 C 
ENDROOT
BRANCH   1   5
HETATM    5  C3  UNL     1      22.644  35.555  54.864  1.00  0.00    -0.021 C 
HETATM    6  C4  UNL     1      23.820  36.087  55.028  1.00  0.00    -0.051 C 
HETATM    7  C5  UNL     1      25.043  35.191  55.013  1.00  0.00     0.046 C 
BRANCH   5   8
HETATM    8  C2  UNL     1      22.647  34.058  54.696  1.00  0.00     0.037 C 
HETATM    9  C1  UNL     1      21.787  33.564  53.595  1.00  0.00     0.010 C 
ENDBRANCH   5   8
BRANCH   6  10
HETATM   10  C6  UNL     1      24.129  37.471  55.421  1.00  0.00     0.198 C 
BRANCH  10  11
HETATM   11  O1  UNL     1      25.574  37.544  55.194  1.00  0.00    -0.397 OA
ATOM     12  H1  UNL     1      25.765  38.452  55.398  1.00  0.00     0.209 HD
ENDBRANCH  10  11
ENDBRANCH   6  10
ENDBRANCH   1   5
BRANCH   1  13
HETATM   13  O2  UNL     1      20.639  36.537  55.815  1.00  0.00    -0.350 OA
BRANCH  13  14
HETATM   14  C8  UNL     1      20.053  35.339  56.365  1.00  0.00     0.176 C 
BRANCH  14  15
HETATM   15  C9  UNL     1      20.309  35.138  57.802  1.00  0.00     0.031 C 
BRANCH  15  16
HETATM   16  C10 UNL     1      21.491  34.374  58.242  1.00  0.00    -0.013 C 
HETATM   17  C11 UNL     1      21.345  33.726  59.573  1.00  0.00     0.005 C 
HETATM   18  C12 UNL     1      22.474  33.958  60.529  1.00  0.00     0.000 C 
HETATM   19  C13 UNL     1      23.838  33.843  59.880  1.00  0.00     0.000 C 
HETATM   20  C14 UNL     1      23.942  34.709  58.646  1.00  0.00     0.000 C 
HETATM   21  C15 UNL     1      22.631  35.403  58.357  1.00  0.00     0.005 C 
ENDBRANCH  15  16
ENDBRANCH  14  15
ENDBRANCH  13  14
ENDBRANCH   1  13
TORSDOF 8
ENDMDL
MODEL 5
REMARK VINA RESULT: -6.410421571      1.795      5.251
REMARK  8 active torsions:
REMARK  status: ('A' for Active; 'I' for Inactive)
REMARK    1  A    between atoms: C2_2  and  C3_3 
REMARK    2  A    between atoms: C3_3  and  C7_9 
REMARK    3  A    between atoms: C4_4  and  C6_6 
REMARK    4  A    between atoms: C6_6  and  O1_7 
REMARK    5  A    between atoms: C7_9  and  O2_10 
REMARK    6  A    between atoms: O2_10  and  C8_11 
REMARK    7  A    between atoms: C8_11  and  C9_12 
REMARK    8  A    between atoms: C9_12  and  C10_13 
ROOT
HETATM    1  C7  UNL     1      17.387  34.102  56.879  1.00  0.00     0.076 C 
HETATM    2  C16 UNL     1      16.753  33.453  57.801  1.00  0.00    -0.054 C 
HETATM    3  C17 UNL     1      16.367  32.009  57.422  1.00  0.00     0.046 C 
HETATM    4  C18 UNL     1      16.308  33.805  59.152  1.00  0.00     0.046 C 
ENDROOT
BRANCH   1   5
HETATM    5  C3  UNL     1      17.914  35.459  56.831  1.00  0.00    -0.021 C 
HETATM    6  C4  UNL     1      17.219  36.493  56.454  1.00  0.00    -0.051 C 
HETATM    7  C5  UNL     1      17.933  37.806  56.197  1.00  0.00     0.046 C 
BRANCH   5   8
HETATM    8  C2  UNL     1      19.390  35.715  56.989  1.00  0.00     0.037 C 
HETATM    9  C1  UNL     1      20.111  34.679  57.766  1.00  0.00     0.010 C 
ENDBRANCH   5   8
BRANCH   6  10
HETATM   10  C6  UNL     1      15.754  36.621  56.415  1.00  0.00     0.198 C 
BRANCH  10  11
HETATM   11  O1  UNL     1      15.421  36.812  57.828  1.00  0.00    -0.397 OA
ATOM     12  H1  UNL     1      15.851  36.071  58.239  1.00  0.00     0.209 HD
ENDBRANCH  10  11
ENDBRANCH   6  10
ENDBRANCH   1   5
BRANCH   1  13
HETATM   13  O2  UNL     1      17.642  33.342  55.675  1.00  0.00    -0.350 OA
BRANCH  13  14
HETATM   14  C8  UNL     1      17.709  34.133  54.470  1.00  0.00     0.176 C 
BRANCH  14  15
HETATM   15  C9  UNL     1      18.396  33.475  53.346  1.00  0.00     0.031 C 
BRANCH  15  16
HETATM   16  C10 UNL     1      19.840  33.690  53.134  1.00  0.00    -0.013 C 
HETATM   17  C11 UNL     1      20.720  32.804  53.943  1.00  0.00     0.005 C 
HETATM   18  C12 UNL     1      21.819  33.496  54.687  1.00  0.00     0.000 C 
HETATM   19  C13 UNL     1      22.520  34.557  53.865  1.00  0.00     0.000 C 
HETATM   20  C14 UNL     1      21.536  35.530  53.257  1.00  0.00     0.000 C 
HETATM   21  C15 UNL     1      20.114  35.137  53.581  1.00  0.00     0.005 C 
ENDBRANCH  15  16
ENDBRANCH  14  15
ENDBRANCH  13  14
ENDBRANCH   1  13
TORSDOF 8
ENDMDL
