MODEL 1
REMARK VINA RESULT: -6.659047241      0.000      0.000
REMARK  9 active torsions:
REMARK  status: ('A' for Active; 'I' for Inactive)
REMARK    1  A    between atoms: C2_2  and  C3_3 
REMARK    2  A    between atoms: C3_3  and  C6_6 
REMARK    3  A    between atoms: C6_6  and  C7_7 
REMARK    4  A    between atoms: C7_7  and  C8_8 
REMARK    5  A    between atoms: C8_8  and  C9_9 
REMARK    6  A    between atoms: C9_9  and  C10_10 
REMARK    7  A    between atoms: C9_9  and  C13_15 
REMARK    8  A    between atoms: C10_10  and  O2_12 
REMARK    9  A    between atoms: O2_12  and  C11_13 
ROOT
HETATM    1  C9  UNL     1      18.572  34.008  56.255  1.00  0.00     0.089 C 
ENDROOT
BRANCH   1   2
HETATM    2  C8  UNL     1      19.502  35.096  56.724  1.00  0.00     0.015 C 
BRANCH   2   3
HETATM    3  C7  UNL     1      20.584  34.645  57.664  1.00  0.00     0.005 C 
BRANCH   3   4
HETATM    4  C6  UNL     1      19.999  33.866  58.820  1.00  0.00     0.038 C 
BRANCH   4   5
HETATM    5  C3  UNL     1      20.240  34.411  60.148  1.00  0.00    -0.063 C 
HETATM    6  C4  UNL     1      21.474  34.286  60.645  1.00  0.00    -0.024 C 
HETATM    7  C5  UNL     1      21.777  34.797  62.005  1.00  0.00     0.036 C 
BRANCH   5   8
HETATM    8  C2  UNL     1      19.237  35.043  60.957  1.00  0.00    -0.004 C 
HETATM    9  C1  UNL     1      18.632  36.176  60.779  1.00  0.00     0.012 C 
ENDBRANCH   5   8
ENDBRANCH   4   5
ENDBRANCH   3   4
ENDBRANCH   2   3
ENDBRANCH   1   2
BRANCH   1  10
HETATM   10  C10 UNL     1      18.808  33.756  54.849  1.00  0.00     0.263 C 
HETATM   11  O1  UNL     1      18.367  34.547  53.972  1.00  0.00    -0.265 OA
BRANCH  10  12
HETATM   12  O2  UNL     1      19.497  32.709  54.272  1.00  0.00    -0.322 OA
BRANCH  12  13
HETATM   13  C11 UNL     1      20.692  32.792  53.556  1.00  0.00     0.174 C 
HETATM   14  C12 UNL     1      21.796  33.525  54.230  1.00  0.00     0.034 C 
ENDBRANCH  12  13
ENDBRANCH  10  12
ENDBRANCH   1  10
BRANCH   1  15
HETATM   15  C13 UNL     1      17.200  34.333  56.687  1.00  0.00    -0.001 C 
HETATM   16  C14 UNL     1      16.474  33.355  57.530  1.00  0.00     0.005 C 
HETATM   17  C15 UNL     1      16.290  33.825  58.989  1.00  0.00     0.000 C 
HETATM   18  C16 UNL     1      15.466  35.061  59.067  1.00  0.00     0.000 C 
HETATM   19  C17 UNL     1      15.761  35.950  57.906  1.00  0.00     0.000 C 
HETATM   20  C18 UNL     1      17.200  35.642  57.443  1.00  0.00     0.005 C 
ENDBRANCH   1  15
TORSDOF 9
ENDMDL
MODEL 2
REMARK VINA RESULT: -6.656565399      0.451      1.408
REMARK  9 active torsions:
REMARK  status: ('A' for Active; 'I' for Inactive)
REMARK    1  A    between atoms: C2_2  and  C3_3 
REMARK    2  A    between atoms: C3_3  and  C6_6 
REMARK    3  A    between atoms: C6_6  and  C7_7 
REMARK    4  A    between atoms: C7_7  and  C8_8 
REMARK    5  A    between atoms: C8_8  and  C9_9 
REMARK    6  A    between atoms: C9_9  and  C10_10 
REMARK    7  A    between atoms: C9_9  and  C13_15 
REMARK    8  A    between atoms: C10_10  and  O2_12 
REMARK    9  A    between atoms: O2_12  and  C11_13 
ROOT
HETATM    1  C9  UNL     1      18.548  34.018  56.374  1.00  0.00     0.089 C 
ENDROOT
BRANCH   1   2
HETATM    2  C8  UNL     1      19.509  35.067  56.869  1.00  0.00     0.015 C 
BRANCH   2   3
HETATM    3  C7  UNL     1      20.582  34.562  57.791  1.00  0.00     0.005 C 
BRANCH   3   4
HETATM    4  C6  UNL     1      19.977  33.973  59.045  1.00  0.00     0.038 C 
BRANCH   4   5
HETATM    5  C3  UNL     1      20.164  34.739  60.268  1.00  0.00    -0.063 C 
HETATM    6  C4  UNL     1      19.211  35.617  60.592  1.00  0.00    -0.024 C 
HETATM    7  C5  UNL     1      19.356  36.449  61.813  1.00  0.00     0.036 C 
BRANCH   5   8
HETATM    8  C2  UNL     1      21.311  34.629  61.124  1.00  0.00    -0.004 C 
HETATM    9  C1  UNL     1      22.442  34.031  60.908  1.00  0.00     0.012 C 
ENDBRANCH   5   8
ENDBRANCH   4   5
ENDBRANCH   3   4
ENDBRANCH   2   3
ENDBRANCH   1   2
BRANCH   1  10
HETATM   10  C10 UNL     1      18.791  33.780  54.967  1.00  0.00     0.263 C 
HETATM   11  O1  UNL     1      18.393  34.603  54.098  1.00  0.00    -0.265 OA
BRANCH  10  12
HETATM   12  O2  UNL     1      19.443  32.715  54.379  1.00  0.00    -0.322 OA
BRANCH  12  13
HETATM   13  C11 UNL     1      20.641  32.763  53.666  1.00  0.00     0.174 C 
HETATM   14  C12 UNL     1      21.767  33.455  54.348  1.00  0.00     0.034 C 
ENDBRANCH  12  13
ENDBRANCH  10  12
ENDBRANCH   1  10
BRANCH   1  15
HETATM   15  C13 UNL     1      17.183  34.382  56.798  1.00  0.00    -0.001 C 
HETATM   16  C14 UNL     1      16.449  33.452  57.686  1.00  0.00     0.005 C 
HETATM   17  C15 UNL     1      16.279  33.988  59.124  1.00  0.00     0.000 C 
HETATM   18  C16 UNL     1      15.473  35.237  59.152  1.00  0.00     0.000 C 
HETATM   19  C17 UNL     1      15.774  36.071  57.951  1.00  0.00     0.000 C 
HETATM   20  C18 UNL     1      17.206  35.722  57.495  1.00  0.00     0.005 C 
ENDBRANCH   1  15
TORSDOF 9
ENDMDL
MODEL 3
REMARK VINA RESULT: -6.656152875      2.148      4.932
REMARK  9 active torsions:
REMARK  status: ('A' for Active; 'I' for Inactive)
REMARK    1  A    between atoms: C2_2  and  C3_3 
REMARK    2  A    between atoms: C3_3  and  C6_6 
REMARK    3  A    between atoms: C6_6  and  C7_7 
REMARK    4  A    between atoms: C7_7  and  C8_8 
REMARK    5  A    between atoms: C8_8  and  C9_9 
REMARK    6  A    between atoms: C9_9  and  C10_10 
REMARK    7  A    between atoms: C9_9  and  C13_15 
REMARK    8  A    between atoms: C10_10  and  O2_12 
REMARK    9  A    between atoms: O2_12  and  C11_13 
ROOT
HETATM    1  C9  UNL     1      18.604  34.062  58.947  1.00  0.00     0.089 C 
ENDROOT
BRANCH   1   2
HETATM    2  C8  UNL     1      19.084  35.141  58.013  1.00  0.00     0.015 C 
BRANCH   2   3
HETATM    3  C7  UNL     1      19.769  34.648  56.770  1.00  0.00     0.005 C 
BRANCH   3   4
HETATM    4  C6  UNL     1      21.147  35.255  56.641  1.00  0.00     0.038 C 
BRANCH   4   5
HETATM    5  C3  UNL     1      22.268  34.346  56.829  1.00  0.00    -0.063 C 
HETATM    6  C4  UNL     1      22.578  34.009  58.084  1.00  0.00    -0.024 C 
HETATM    7  C5  UNL     1      23.728  33.106  58.345  1.00  0.00     0.036 C 
BRANCH   5   8
HETATM    8  C2  UNL     1      23.068  33.817  55.762  1.00  0.00    -0.004 C 
HETATM    9  C1  UNL     1      22.830  33.800  54.486  1.00  0.00     0.012 C 
ENDBRANCH   5   8
ENDBRANCH   4   5
ENDBRANCH   3   4
ENDBRANCH   2   3
ENDBRANCH   1   2
BRANCH   1  10
HETATM   10  C10 UNL     1      17.239  33.716  58.610  1.00  0.00     0.263 C 
HETATM   11  O1  UNL     1      16.913  32.515  58.404  1.00  0.00    -0.265 OA
BRANCH  10  12
HETATM   12  O2  UNL     1      16.153  34.556  58.471  1.00  0.00    -0.322 OA
BRANCH  12  13
HETATM   13  C11 UNL     1      15.434  34.801  57.301  1.00  0.00     0.174 C 
HETATM   14  C12 UNL     1      15.753  36.075  56.606  1.00  0.00     0.034 C 
ENDBRANCH  12  13
ENDBRANCH  10  12
ENDBRANCH   1  10
BRANCH   1  15
HETATM   15  C13 UNL     1      18.903  34.463  60.334  1.00  0.00    -0.001 C 
HETATM   16  C14 UNL     1      20.185  34.028  60.934  1.00  0.00     0.005 C 
HETATM   17  C15 UNL     1      21.189  35.184  61.131  1.00  0.00     0.000 C 
HETATM   18  C16 UNL     1      20.669  36.208  62.076  1.00  0.00     0.000 C 
HETATM   19  C17 UNL     1      19.195  36.366  61.902  1.00  0.00     0.000 C 
HETATM   20  C18 UNL     1      18.856  35.968  60.451  1.00  0.00     0.005 C 
ENDBRANCH   1  15
TORSDOF 9
ENDMDL
MODEL 4
REMARK VINA RESULT: -6.609061319      2.258      5.061
REMARK  9 active torsions:
REMARK  status: ('A' for Active; 'I' for Inactive)
REMARK    1  A    between atoms: C2_2  and  C3_3 
REMARK    2  A    between atoms: C3_3  and  C6_6 
REMARK    3  A    between atoms: C6_6  and  C7_7 
REMARK    4  A    between atoms: C7_7  and  C8_8 
REMARK    5  A    between atoms: C8_8  and  C9_9 
REMARK    6  A    between atoms: C9_9  and  C10_10 
REMARK    7  A    between atoms: C9_9  and  C13_15 
REMARK    8  A    between atoms: C10_10  and  O2_12 
REMARK    9  A    between atoms: O2_12  and  C11_13 
ROOT
HETATM    1  C9  UNL     1      18.398  34.144  59.046  1.00  0.00     0.089 C 
ENDROOT
BRANCH   1   2
HETATM    2  C8  UNL     1      18.913  35.184  58.087  1.00  0.00     0.015 C 
BRANCH   2   3
HETATM    3  C7  UNL     1      19.914  34.684  57.084  1.00  0.00     0.005 C 
BRANCH   3   4
HETATM    4  C6  UNL     1      21.309  35.137  57.448  1.00  0.00     0.038 C 
BRANCH   4   5
HETATM    5  C3  UNL     1      22.401  34.469  56.757  1.00  0.00    -0.063 C 
HETATM    6  C4  UNL     1      22.387  34.497  55.421  1.00  0.00    -0.024 C 
HETATM    7  C5  UNL     1      23.459  33.810  54.657  1.00  0.00     0.036 C 
BRANCH   5   8
HETATM    8  C2  UNL     1      23.466  33.767  57.415  1.00  0.00    -0.004 C 
HETATM    9  C1  UNL     1      23.557  33.386  58.652  1.00  0.00     0.012 C 
ENDBRANCH   5   8
ENDBRANCH   4   5
ENDBRANCH   3   4
ENDBRANCH   2   3
ENDBRANCH   1   2
BRANCH   1  10
HETATM   10  C10 UNL     1      16.994  33.911  58.783  1.00  0.00     0.263 C 
HETATM   11  O1  UNL     1      16.192  33.679  59.729  1.00  0.00    -0.265 OA
BRANCH  10  12
HETATM   12  O2  UNL     1      16.340  33.906  57.567  1.00  0.00    -0.322 OA
BRANCH  12  13
HETATM   13  C11 UNL     1      15.333  34.782  57.160  1.00  0.00     0.174 C 
HETATM   14  C12 UNL     1      15.794  36.108  56.672  1.00  0.00     0.034 C 
ENDBRANCH  12  13
ENDBRANCH  10  12
ENDBRANCH   1  10
BRANCH   1  15
HETATM   15  C13 UNL     1      18.802  34.514  60.415  1.00  0.00    -0.001 C 
HETATM   16  C14 UNL     1      20.086  33.994  60.938  1.00  0.00     0.005 C 
HETATM   17  C15 UNL     1      21.172  35.081  61.080  1.00  0.00     0.000 C 
HETATM   18  C16 UNL     1      20.775  36.129  62.057  1.00  0.00     0.000 C 
HETATM   19  C17 UNL     1      19.307  36.383  61.971  1.00  0.00     0.000 C 
HETATM   20  C18 UNL     1      18.860  36.019  60.540  1.00  0.00     0.005 C 
ENDBRANCH   1  15
TORSDOF 9
ENDMDL
MODEL 5
REMARK VINA RESULT: -6.518499423      2.058      4.997
REMARK  9 active torsions:
REMARK  status: ('A' for Active; 'I' for Inactive)
REMARK    1  A    between atoms: C2_2  and  C3_3 
REMARK    2  A    between atoms: C3_3  and  C6_6 
REMARK    3  A    between atoms: C6_6  and  C7_7 
REMARK    4  A    between atoms: C7_7  and  C8_8 
REMARK    5  A    between atoms: C8_8  and  C9_9 
REMARK    6  A    between atoms: C9_9  and  C10_10 
REMARK    7  A    between atoms: C9_9  and  C13_15 
REMARK    8  A    between atoms: C10_10  and  O2_12 
REMARK    9  A    between atoms: O2_12  and  C11_13 
ROOT
HETATM    1  C9  UNL     1      18.911  34.074  58.201  1.00  0.00     0.089 C 
ENDROOT
BRANCH   1   2
HETATM    2  C8  UNL     1      18.982  35.398  57.487  1.00  0.00     0.015 C 
BRANCH   2   3
HETATM    3  C7  UNL     1      20.141  35.550  56.543  1.00  0.00     0.005 C 
BRANCH   3   4
HETATM    4  C6  UNL     1      20.882  34.241  56.391  1.00  0.00     0.038 C 
BRANCH   4   5
HETATM    5  C3  UNL     1      22.328  34.336  56.257  1.00  0.00    -0.063 C 
HETATM    6  C4  UNL     1      22.820  34.469  55.022  1.00  0.00    -0.024 C 
HETATM    7  C5  UNL     1      24.289  34.543  54.816  1.00  0.00     0.036 C 
BRANCH   5   8
HETATM    8  C2  UNL     1      23.248  34.267  57.356  1.00  0.00    -0.004 C 
HETATM    9  C1  UNL     1      23.501  33.277  58.156  1.00  0.00     0.012 C 
ENDBRANCH   5   8
ENDBRANCH   4   5
ENDBRANCH   3   4
ENDBRANCH   2   3
ENDBRANCH   1   2
BRANCH   1  10
HETATM   10  C10 UNL     1      17.684  33.401  57.831  1.00  0.00     0.263 C 
HETATM   11  O1  UNL     1      17.432  33.144  56.622  1.00  0.00    -0.265 OA
BRANCH  10  12
HETATM   12  O2  UNL     1      16.670  32.956  58.654  1.00  0.00    -0.322 OA
BRANCH  12  13
HETATM   13  C11 UNL     1      15.831  33.744  59.443  1.00  0.00     0.174 C 
HETATM   14  C12 UNL     1      15.447  35.057  58.860  1.00  0.00     0.034 C 
ENDBRANCH  12  13
ENDBRANCH  10  12
ENDBRANCH   1  10
BRANCH   1  15
HETATM   15  C13 UNL     1      19.187  34.288  59.634  1.00  0.00    -0.001 C 
HETATM   16  C14 UNL     1      20.551  34.008  60.140  1.00  0.00     0.005 C 
HETATM   17  C15 UNL     1      21.333  35.283  60.522  1.00  0.00     0.000 C 
HETATM   18  C16 UNL     1      20.674  36.020  61.632  1.00  0.00     0.000 C 
HETATM   19  C17 UNL     1      19.190  35.926  61.501  1.00  0.00     0.000 C 
HETATM   20  C18 UNL     1      18.871  35.718  60.006  1.00  0.00     0.005 C 
ENDBRANCH   1  15
TORSDOF 9
ENDMDL
