MODEL 1
REMARK VINA RESULT: -6.587146227      0.000      0.000
REMARK  10 active torsions:
REMARK  status: ('A' for Active; 'I' for Inactive)
REMARK    1  A    between atoms: C2_2  and  C3_3 
REMARK    2  A    between atoms: C3_3  and  C4_4 
REMARK    3  A    between atoms: C4_4  and  C5_5 
REMARK    4  A    between atoms: C5_5  and  C6_6 
REMARK    5  A    between atoms: C6_6  and  C7_7 
REMARK    6  A    between atoms: C7_7  and  C8_9 
REMARK    7  A    between atoms: C8_9  and  C9_10 
REMARK    8  A    between atoms: C9_10  and  O2_11 
REMARK    9  A    between atoms: C9_10  and  C10_13 
REMARK   10  A    between atoms: C10_13  and  C11_14 
ROOT
HETATM    1  C9  UNL     1      17.323  37.780  56.217  1.00  0.00     0.129 C 
ENDROOT
BRANCH   1   2
HETATM    2  C8  UNL     1      17.982  36.909  55.192  1.00  0.00     0.110 C 
BRANCH   2   3
HETATM    3  C7  UNL     1      19.388  37.322  55.009  1.00  0.00     0.129 C 
HETATM    4  O1  UNL     1      19.653  38.432  54.613  1.00  0.00    -0.298 OA
BRANCH   3   5
HETATM    5  C6  UNL     1      20.509  36.376  55.308  1.00  0.00     0.078 C 
BRANCH   5   6
HETATM    6  C5  UNL     1      19.823  35.095  55.784  1.00  0.00     0.007 C 
BRANCH   6   7
HETATM    7  C4  UNL     1      20.622  34.429  56.865  1.00  0.00     0.000 C 
BRANCH   7   8
HETATM    8  C3  UNL     1      21.745  35.341  57.276  1.00  0.00    -0.000 C 
BRANCH   8   9
HETATM    9  C2  UNL     1      22.207  35.042  58.666  1.00  0.00    -0.005 C 
HETATM   10  C1  UNL     1      21.922  33.583  58.998  1.00  0.00     0.005 C 
ENDBRANCH   8   9
ENDBRANCH   7   8
ENDBRANCH   6   7
ENDBRANCH   5   6
ENDBRANCH   3   5
ENDBRANCH   2   3
ENDBRANCH   1   2
BRANCH   1  11
HETATM   11  O2  UNL     1      16.719  38.886  55.525  1.00  0.00    -0.395 OA
ATOM     12  H2  UNL     1      15.975  39.175  56.040  1.00  0.00     0.210 HD
ENDBRANCH   1  11
BRANCH   1  13
HETATM   13  C10 UNL     1      16.229  37.044  56.935  1.00  0.00     0.070 C 
BRANCH  13  14
HETATM   14  C11 UNL     1      16.811  35.976  57.773  1.00  0.00    -0.055 A 
HETATM   15  C12 UNL     1      17.661  36.136  58.820  1.00  0.00     0.013 A 
HETATM   16  C13 UNL     1      18.171  35.072  59.553  1.00  0.00    -0.061 A 
HETATM   17  C14 UNL     1      19.101  35.292  60.692  1.00  0.00     0.048 C 
HETATM   18  C15 UNL     1      17.793  33.799  59.197  1.00  0.00     0.013 A 
HETATM   19  C16 UNL     1      16.923  33.588  58.131  1.00  0.00    -0.061 A 
HETATM   20  C17 UNL     1      16.506  32.201  57.738  1.00  0.00     0.048 C 
HETATM   21  C18 UNL     1      16.438  34.671  57.429  1.00  0.00     0.013 A 
ENDBRANCH  13  14
ENDBRANCH   1  13
TORSDOF 10
ENDMDL
MODEL 2
REMARK VINA RESULT: -6.558449189      1.921      4.088
REMARK  10 active torsions:
REMARK  status: ('A' for Active; 'I' for Inactive)
REMARK    1  A    between atoms: C2_2  and  C3_3 
REMARK    2  A    between atoms: C3_3  and  C4_4 
REMARK    3  A    between atoms: C4_4  and  C5_5 
REMARK    4  A    between atoms: C5_5  and  C6_6 
REMARK    5  A    between atoms: C6_6  and  C7_7 
REMARK    6  A    between atoms: C7_7  and  C8_9 
REMARK    7  A    between atoms: C8_9  and  C9_10 
REMARK    8  A    between atoms: C9_10  and  O2_11 
REMARK    9  A    between atoms: C9_10  and  C10_13 
REMARK   10  A    between atoms: C10_13  and  C11_14 
ROOT
HETATM    1  C9  UNL     1      16.166  35.682  56.021  1.00  0.00     0.129 C 
ENDROOT
BRANCH   1   2
HETATM    2  C8  UNL     1      16.115  34.722  57.168  1.00  0.00     0.110 C 
BRANCH   2   3
HETATM    3  C7  UNL     1      16.105  35.462  58.446  1.00  0.00     0.129 C 
HETATM    4  O1  UNL     1      15.095  36.005  58.829  1.00  0.00    -0.298 OA
BRANCH   3   5
HETATM    5  C6  UNL     1      17.339  35.554  59.288  1.00  0.00     0.078 C 
BRANCH   5   6
HETATM    6  C5  UNL     1      17.869  34.122  59.361  1.00  0.00     0.007 C 
BRANCH   6   7
HETATM    7  C4  UNL     1      19.261  34.095  59.920  1.00  0.00     0.000 C 
BRANCH   7   8
HETATM    8  C3  UNL     1      19.612  35.466  60.427  1.00  0.00    -0.000 C 
BRANCH   8   9
HETATM    9  C2  UNL     1      21.006  35.505  60.970  1.00  0.00    -0.005 C 
HETATM   10  C1  UNL     1      21.628  34.118  60.881  1.00  0.00     0.005 C 
ENDBRANCH   8   9
ENDBRANCH   7   8
ENDBRANCH   6   7
ENDBRANCH   5   6
ENDBRANCH   3   5
ENDBRANCH   2   3
ENDBRANCH   1   2
BRANCH   1  11
HETATM   11  O2  UNL     1      15.098  36.629  56.197  1.00  0.00    -0.395 OA
ATOM     12  H2  UNL     1      15.475  37.500  56.153  1.00  0.00     0.210 HD
ENDBRANCH   1  11
BRANCH   1  13
HETATM   13  C10 UNL     1      17.455  36.452  56.010  1.00  0.00     0.070 C 
BRANCH  13  14
HETATM   14  C11 UNL     1      18.578  35.543  55.703  1.00  0.00    -0.055 A 
HETATM   15  C12 UNL     1      19.698  35.357  56.447  1.00  0.00     0.013 A 
HETATM   16  C13 UNL     1      20.717  34.485  56.080  1.00  0.00    -0.061 A 
HETATM   17  C14 UNL     1      21.928  34.311  56.925  1.00  0.00     0.048 C 
HETATM   18  C15 UNL     1      20.577  33.782  54.907  1.00  0.00     0.013 A 
HETATM   19  C16 UNL     1      19.445  33.942  54.113  1.00  0.00    -0.061 A 
HETATM   20  C17 UNL     1      19.287  33.177  52.832  1.00  0.00     0.048 C 
HETATM   21  C18 UNL     1      18.457  34.816  54.513  1.00  0.00     0.013 A 
ENDBRANCH  13  14
ENDBRANCH   1  13
TORSDOF 10
ENDMDL
MODEL 3
REMARK VINA RESULT: -6.528678369      1.977      4.484
REMARK  10 active torsions:
REMARK  status: ('A' for Active; 'I' for Inactive)
REMARK    1  A    between atoms: C2_2  and  C3_3 
REMARK    2  A    between atoms: C3_3  and  C4_4 
REMARK    3  A    between atoms: C4_4  and  C5_5 
REMARK    4  A    between atoms: C5_5  and  C6_6 
REMARK    5  A    between atoms: C6_6  and  C7_7 
REMARK    6  A    between atoms: C7_7  and  C8_9 
REMARK    7  A    between atoms: C8_9  and  C9_10 
REMARK    8  A    between atoms: C9_10  and  O2_11 
REMARK    9  A    between atoms: C9_10  and  C10_13 
REMARK   10  A    between atoms: C10_13  and  C11_14 
ROOT
HETATM    1  C9  UNL     1      16.143  35.714  55.996  1.00  0.00     0.129 C 
ENDROOT
BRANCH   1   2
HETATM    2  C8  UNL     1      16.068  34.731  57.124  1.00  0.00     0.110 C 
BRANCH   2   3
HETATM    3  C7  UNL     1      16.085  35.444  58.417  1.00  0.00     0.129 C 
HETATM    4  O1  UNL     1      15.085  35.982  58.830  1.00  0.00    -0.298 OA
BRANCH   3   5
HETATM    5  C6  UNL     1      17.335  35.514  59.237  1.00  0.00     0.078 C 
BRANCH   5   6
HETATM    6  C5  UNL     1      17.835  34.070  59.310  1.00  0.00     0.007 C 
BRANCH   6   7
HETATM    7  C4  UNL     1      19.297  34.027  59.643  1.00  0.00     0.000 C 
BRANCH   7   8
HETATM    8  C3  UNL     1      19.709  35.355  60.215  1.00  0.00    -0.000 C 
BRANCH   8   9
HETATM    9  C2  UNL     1      21.182  35.406  60.467  1.00  0.00    -0.005 C 
HETATM   10  C1  UNL     1      21.646  34.080  61.055  1.00  0.00     0.005 C 
ENDBRANCH   8   9
ENDBRANCH   7   8
ENDBRANCH   6   7
ENDBRANCH   5   6
ENDBRANCH   3   5
ENDBRANCH   2   3
ENDBRANCH   1   2
BRANCH   1  11
HETATM   11  O2  UNL     1      15.144  36.721  56.229  1.00  0.00    -0.395 OA
ATOM     12  H2  UNL     1      15.579  37.478  56.603  1.00  0.00     0.210 HD
ENDBRANCH   1  11
BRANCH   1  13
HETATM   13  C10 UNL     1      17.477  36.401  55.960  1.00  0.00     0.070 C 
BRANCH  13  14
HETATM   14  C11 UNL     1      18.511  35.464  55.473  1.00  0.00    -0.055 A 
HETATM   15  C12 UNL     1      18.466  34.726  54.335  1.00  0.00     0.013 A 
HETATM   16  C13 UNL     1      19.481  33.857  53.954  1.00  0.00    -0.061 A 
HETATM   17  C14 UNL     1      19.391  33.065  52.698  1.00  0.00     0.048 C 
HETATM   18  C15 UNL     1      20.580  33.745  54.772  1.00  0.00     0.013 A 
HETATM   19  C16 UNL     1      20.668  34.484  55.949  1.00  0.00    -0.061 A 
HETATM   20  C17 UNL     1      21.865  34.366  56.845  1.00  0.00     0.048 C 
HETATM   21  C18 UNL     1      19.639  35.335  56.291  1.00  0.00     0.013 A 
ENDBRANCH  13  14
ENDBRANCH   1  13
TORSDOF 10
ENDMDL
MODEL 4
REMARK VINA RESULT: -6.514288823      0.164      1.913
REMARK  10 active torsions:
REMARK  status: ('A' for Active; 'I' for Inactive)
REMARK    1  A    between atoms: C2_2  and  C3_3 
REMARK    2  A    between atoms: C3_3  and  C4_4 
REMARK    3  A    between atoms: C4_4  and  C5_5 
REMARK    4  A    between atoms: C5_5  and  C6_6 
REMARK    5  A    between atoms: C6_6  and  C7_7 
REMARK    6  A    between atoms: C7_7  and  C8_9 
REMARK    7  A    between atoms: C8_9  and  C9_10 
REMARK    8  A    between atoms: C9_10  and  O2_11 
REMARK    9  A    between atoms: C9_10  and  C10_13 
REMARK   10  A    between atoms: C10_13  and  C11_14 
ROOT
HETATM    1  C9  UNL     1      17.275  37.776  56.202  1.00  0.00     0.129 C 
ENDROOT
BRANCH   1   2
HETATM    2  C8  UNL     1      17.936  36.907  55.177  1.00  0.00     0.110 C 
BRANCH   2   3
HETATM    3  C7  UNL     1      19.343  37.320  54.997  1.00  0.00     0.129 C 
HETATM    4  O1  UNL     1      19.607  38.428  54.593  1.00  0.00    -0.298 OA
BRANCH   3   5
HETATM    5  C6  UNL     1      20.463  36.378  55.309  1.00  0.00     0.078 C 
BRANCH   5   6
HETATM    6  C5  UNL     1      19.776  35.074  55.717  1.00  0.00     0.007 C 
BRANCH   6   7
HETATM    7  C4  UNL     1      20.522  34.402  56.831  1.00  0.00     0.000 C 
BRANCH   7   8
HETATM    8  C3  UNL     1      21.720  35.237  57.192  1.00  0.00    -0.000 C 
BRANCH   8   9
HETATM    9  C2  UNL     1      22.057  35.104  58.643  1.00  0.00    -0.005 C 
HETATM   10  C1  UNL     1      21.935  33.645  59.065  1.00  0.00     0.005 C 
ENDBRANCH   8   9
ENDBRANCH   7   8
ENDBRANCH   6   7
ENDBRANCH   5   6
ENDBRANCH   3   5
ENDBRANCH   2   3
ENDBRANCH   1   2
BRANCH   1  11
HETATM   11  O2  UNL     1      16.742  38.924  55.522  1.00  0.00    -0.395 OA
ATOM     12  H2  UNL     1      15.827  39.004  55.765  1.00  0.00     0.210 HD
ENDBRANCH   1  11
BRANCH   1  13
HETATM   13  C10 UNL     1      16.128  37.067  56.860  1.00  0.00     0.070 C 
BRANCH  13  14
HETATM   14  C11 UNL     1      16.618  35.864  57.564  1.00  0.00    -0.055 A 
HETATM   15  C12 UNL     1      16.313  34.573  57.276  1.00  0.00     0.013 A 
HETATM   16  C13 UNL     1      16.813  33.496  57.998  1.00  0.00    -0.061 A 
HETATM   17  C14 UNL     1      16.452  32.096  57.648  1.00  0.00     0.048 C 
HETATM   18  C15 UNL     1      17.656  33.757  59.051  1.00  0.00     0.013 A 
HETATM   19  C16 UNL     1      17.996  35.065  59.382  1.00  0.00    -0.061 A 
HETATM   20  C17 UNL     1      18.917  35.356  60.531  1.00  0.00     0.048 C 
HETATM   21  C18 UNL     1      17.480  36.106  58.641  1.00  0.00     0.013 A 
ENDBRANCH  13  14
ENDBRANCH   1  13
TORSDOF 10
ENDMDL
MODEL 5
REMARK VINA RESULT: -6.394992823      2.034      4.852
REMARK  10 active torsions:
REMARK  status: ('A' for Active; 'I' for Inactive)
REMARK    1  A    between atoms: C2_2  and  C3_3 
REMARK    2  A    between atoms: C3_3  and  C4_4 
REMARK    3  A    between atoms: C4_4  and  C5_5 
REMARK    4  A    between atoms: C5_5  and  C6_6 
REMARK    5  A    between atoms: C6_6  and  C7_7 
REMARK    6  A    between atoms: C7_7  and  C8_9 
REMARK    7  A    between atoms: C8_9  and  C9_10 
REMARK    8  A    between atoms: C9_10  and  O2_11 
REMARK    9  A    between atoms: C9_10  and  C10_13 
REMARK   10  A    between atoms: C10_13  and  C11_14 
ROOT
HETATM    1  C9  UNL     1      18.215  34.322  55.895  1.00  0.00     0.129 C 
ENDROOT
BRANCH   1   2
HETATM    2  C8  UNL     1      16.904  34.818  55.366  1.00  0.00     0.110 C 
BRANCH   2   3
HETATM    3  C7  UNL     1      16.043  35.257  56.483  1.00  0.00     0.129 C 
HETATM    4  O1  UNL     1      15.295  36.195  56.344  1.00  0.00    -0.298 OA
BRANCH   3   5
HETATM    5  C6  UNL     1      16.080  34.551  57.802  1.00  0.00     0.078 C 
BRANCH   5   6
HETATM    6  C5  UNL     1      16.242  35.666  58.837  1.00  0.00     0.007 C 
BRANCH   6   7
HETATM    7  C4  UNL     1      17.659  35.742  59.323  1.00  0.00     0.000 C 
BRANCH   7   8
HETATM    8  C3  UNL     1      18.115  34.366  59.725  1.00  0.00    -0.000 C 
BRANCH   8   9
HETATM    9  C2  UNL     1      19.126  34.428  60.825  1.00  0.00    -0.005 C 
HETATM   10  C1  UNL     1      19.815  35.785  60.811  1.00  0.00     0.005 C 
ENDBRANCH   8   9
ENDBRANCH   7   8
ENDBRANCH   6   7
ENDBRANCH   5   6
ENDBRANCH   3   5
ENDBRANCH   2   3
ENDBRANCH   1   2
BRANCH   1  11
HETATM   11  O2  UNL     1      18.613  33.200  55.089  1.00  0.00    -0.395 OA
ATOM     12  H2  UNL     1      19.009  33.541  54.296  1.00  0.00     0.210 HD
ENDBRANCH   1  11
BRANCH   1  13
HETATM   13  C10 UNL     1      19.284  35.368  55.773  1.00  0.00     0.070 C 
BRANCH  13  14
HETATM   14  C11 UNL     1      20.577  34.820  56.229  1.00  0.00    -0.055 A 
HETATM   15  C12 UNL     1      20.910  34.476  57.500  1.00  0.00     0.013 A 
HETATM   16  C13 UNL     1      22.158  33.972  57.848  1.00  0.00    -0.061 A 
HETATM   17  C14 UNL     1      22.481  33.609  59.253  1.00  0.00     0.048 C 
HETATM   18  C15 UNL     1      23.094  33.818  56.854  1.00  0.00     0.013 A 
HETATM   19  C16 UNL     1      22.796  34.158  55.537  1.00  0.00    -0.061 A 
HETATM   20  C17 UNL     1      23.814  33.991  54.448  1.00  0.00     0.048 C 
HETATM   21  C18 UNL     1      21.546  34.653  55.233  1.00  0.00     0.013 A 
ENDBRANCH  13  14
ENDBRANCH   1  13
TORSDOF 10
ENDMDL
