MODEL 1
REMARK VINA RESULT: -7.156888732      0.000      0.000
REMARK  9 active torsions:
REMARK  status: ('A' for Active; 'I' for Inactive)
REMARK    1  A    between atoms: O1_2  and  C2_3 
REMARK    2  A    between atoms: C9_10  and  C10_11 
REMARK    3  A    between atoms: C10_11  and  C11_12 
REMARK    4  A    between atoms: C11_12  and  C12_13 
REMARK    5  A    between atoms: C12_13  and  C13_14 
REMARK    6  A    between atoms: C13_14  and  C14_15 
REMARK    7  A    between atoms: C14_15  and  C15_16 
REMARK    8  A    between atoms: C15_16  and  C16_17 
REMARK    9  A    between atoms: C16_17  and  O2_20 
ROOT
HETATM    1  C10 UNL     1      18.393  34.459  59.670  1.00  0.00     0.041 C 
ENDROOT
BRANCH   1   2
HETATM    2  C9  UNL     1      17.508  34.968  58.585  1.00  0.00    -0.024 A 
HETATM    3  C2  UNL     1      16.530  34.209  57.998  1.00  0.00     0.075 A 
HETATM    4  C3  UNL     1      15.758  34.762  57.006  1.00  0.00     0.044 A 
HETATM    5  C4  UNL     1      15.918  36.064  56.559  1.00  0.00    -0.053 A 
HETATM    6  C5  UNL     1      15.077  36.648  55.485  1.00  0.00     0.049 C 
HETATM    7  C6  UNL     1      16.906  36.801  57.165  1.00  0.00    -0.055 A 
HETATM    8  C7  UNL     1      17.108  38.212  56.709  1.00  0.00     0.049 C 
HETATM    9  C8  UNL     1      17.684  36.262  58.157  1.00  0.00     0.017 A 
BRANCH   3  10
HETATM   10  O1  UNL     1      16.324  32.902  58.404  1.00  0.00    -0.355 OA
HETATM   11  C1  UNL     1      16.225  31.860  57.441  1.00  0.00     0.210 C 
ENDBRANCH   3  10
ENDBRANCH   1   2
BRANCH   1  12
HETATM   12  C11 UNL     1      18.855  35.579  60.553  1.00  0.00     0.005 C 
BRANCH  12  13
HETATM   13  C12 UNL     1      20.336  35.581  60.777  1.00  0.00     0.000 C 
BRANCH  13  14
HETATM   14  C13 UNL     1      20.922  34.192  60.986  1.00  0.00     0.000 C 
BRANCH  14  15
HETATM   15  C14 UNL     1      22.200  33.964  60.272  1.00  0.00     0.003 C 
BRANCH  15  16
HETATM   16  C15 UNL     1      22.174  33.526  58.868  1.00  0.00     0.037 C 
BRANCH  16  17
HETATM   17  C16 UNL     1      22.486  34.480  57.789  1.00  0.00     0.051 C 
HETATM   18  C17 UNL     1      21.127  34.853  57.142  1.00  0.00     0.045 C 
HETATM   19  C18 UNL     1      23.343  34.038  56.656  1.00  0.00     0.045 C 
BRANCH  17  20
HETATM   20  O2  UNL     1      23.007  35.692  58.263  1.00  0.00    -0.391 OA
ATOM     21  H2  UNL     1      23.377  36.232  57.574  1.00  0.00     0.210 HD
ENDBRANCH  17  20
ENDBRANCH  16  17
ENDBRANCH  15  16
ENDBRANCH  14  15
ENDBRANCH  13  14
ENDBRANCH  12  13
ENDBRANCH   1  12
TORSDOF 9
ENDMDL
MODEL 2
REMARK VINA RESULT: -6.962109642      1.821      6.052
REMARK  9 active torsions:
REMARK  status: ('A' for Active; 'I' for Inactive)
REMARK    1  A    between atoms: O1_2  and  C2_3 
REMARK    2  A    between atoms: C9_10  and  C10_11 
REMARK    3  A    between atoms: C10_11  and  C11_12 
REMARK    4  A    between atoms: C11_12  and  C12_13 
REMARK    5  A    between atoms: C12_13  and  C13_14 
REMARK    6  A    between atoms: C13_14  and  C14_15 
REMARK    7  A    between atoms: C14_15  and  C15_16 
REMARK    8  A    between atoms: C15_16  and  C16_17 
REMARK    9  A    between atoms: C16_17  and  O2_20 
ROOT
HETATM    1  C10 UNL     1      19.554  35.072  58.347  1.00  0.00     0.041 C 
ENDROOT
BRANCH   1   2
HETATM    2  C9  UNL     1      20.624  34.720  57.371  1.00  0.00    -0.024 A 
HETATM    3  C2  UNL     1      21.956  34.714  57.690  1.00  0.00     0.075 A 
HETATM    4  C3  UNL     1      22.874  34.373  56.727  1.00  0.00     0.044 A 
HETATM    5  C4  UNL     1      22.521  34.031  55.432  1.00  0.00    -0.053 A 
HETATM    6  C5  UNL     1      23.524  33.665  54.402  1.00  0.00     0.049 C 
HETATM    7  C6  UNL     1      21.178  34.046  55.140  1.00  0.00    -0.055 A 
HETATM    8  C7  UNL     1      20.758  33.682  53.751  1.00  0.00     0.049 C 
HETATM    9  C8  UNL     1      20.251  34.384  56.092  1.00  0.00     0.017 A 
BRANCH   3  10
HETATM   10  O1  UNL     1      22.368  35.046  58.969  1.00  0.00    -0.355 OA
HETATM   11  C1  UNL     1      22.787  34.032  59.873  1.00  0.00     0.210 C 
ENDBRANCH   3  10
ENDBRANCH   1   2
BRANCH   1  12
HETATM   12  C11 UNL     1      18.809  33.848  58.787  1.00  0.00     0.005 C 
BRANCH  12  13
HETATM   13  C12 UNL     1      17.557  34.161  59.547  1.00  0.00     0.000 C 
BRANCH  13  14
HETATM   14  C13 UNL     1      16.306  33.544  58.937  1.00  0.00     0.000 C 
BRANCH  14  15
HETATM   15  C14 UNL     1      15.634  34.408  57.938  1.00  0.00     0.003 C 
BRANCH  15  16
HETATM   16  C15 UNL     1      15.909  35.854  57.933  1.00  0.00     0.037 C 
BRANCH  16  17
HETATM   17  C16 UNL     1      16.205  36.547  56.667  1.00  0.00     0.051 C 
HETATM   18  C17 UNL     1      16.834  35.482  55.732  1.00  0.00     0.045 C 
HETATM   19  C18 UNL     1      17.173  37.677  56.667  1.00  0.00     0.045 C 
BRANCH  17  20
HETATM   20  O2  UNL     1      15.053  36.981  55.997  1.00  0.00    -0.391 OA
ATOM     21  H2  UNL     1      15.214  37.714  55.416  1.00  0.00     0.210 HD
ENDBRANCH  17  20
ENDBRANCH  16  17
ENDBRANCH  15  16
ENDBRANCH  14  15
ENDBRANCH  13  14
ENDBRANCH  12  13
ENDBRANCH   1  12
TORSDOF 9
ENDMDL
MODEL 3
REMARK VINA RESULT: -6.954379080      2.117      5.620
REMARK  9 active torsions:
REMARK  status: ('A' for Active; 'I' for Inactive)
REMARK    1  A    between atoms: O1_2  and  C2_3 
REMARK    2  A    between atoms: C9_10  and  C10_11 
REMARK    3  A    between atoms: C10_11  and  C11_12 
REMARK    4  A    between atoms: C11_12  and  C12_13 
REMARK    5  A    between atoms: C12_13  and  C13_14 
REMARK    6  A    between atoms: C13_14  and  C14_15 
REMARK    7  A    between atoms: C14_15  and  C15_16 
REMARK    8  A    between atoms: C15_16  and  C16_17 
REMARK    9  A    between atoms: C16_17  and  O2_20 
ROOT
HETATM    1  C10 UNL     1      21.369  34.811  58.333  1.00  0.00     0.041 C 
ENDROOT
BRANCH   1   2
HETATM    2  C9  UNL     1      21.175  34.382  56.919  1.00  0.00    -0.024 A 
HETATM    3  C2  UNL     1      22.208  33.991  56.107  1.00  0.00     0.075 A 
HETATM    4  C3  UNL     1      21.936  33.607  54.817  1.00  0.00     0.044 A 
HETATM    5  C4  UNL     1      20.658  33.593  54.284  1.00  0.00    -0.053 A 
HETATM    6  C5  UNL     1      20.380  33.176  52.888  1.00  0.00     0.049 C 
HETATM    7  C6  UNL     1      19.642  33.989  55.121  1.00  0.00    -0.055 A 
HETATM    8  C7  UNL     1      18.247  33.988  54.580  1.00  0.00     0.049 C 
HETATM    9  C8  UNL     1      19.899  34.375  56.411  1.00  0.00     0.017 A 
BRANCH   3  10
HETATM   10  O1  UNL     1      23.506  33.984  56.586  1.00  0.00    -0.355 OA
HETATM   11  C1  UNL     1      24.454  34.925  56.097  1.00  0.00     0.210 C 
ENDBRANCH   3  10
ENDBRANCH   1   2
BRANCH   1  12
HETATM   12  C11 UNL     1      21.103  33.678  59.277  1.00  0.00     0.005 C 
BRANCH  12  13
HETATM   13  C12 UNL     1      19.848  33.855  60.075  1.00  0.00     0.000 C 
BRANCH  13  14
HETATM   14  C13 UNL     1      19.354  35.294  60.119  1.00  0.00     0.000 C 
BRANCH  14  15
HETATM   15  C14 UNL     1      17.921  35.449  59.773  1.00  0.00     0.003 C 
BRANCH  15  16
HETATM   16  C15 UNL     1      17.552  36.055  58.484  1.00  0.00     0.037 C 
BRANCH  16  17
HETATM   17  C16 UNL     1      16.253  35.742  57.864  1.00  0.00     0.051 C 
HETATM   18  C17 UNL     1      16.198  34.197  57.742  1.00  0.00     0.045 C 
HETATM   19  C18 UNL     1      15.963  36.245  56.494  1.00  0.00     0.045 C 
BRANCH  17  20
HETATM   20  O2  UNL     1      15.161  36.080  58.676  1.00  0.00    -0.391 OA
ATOM     21  H2  UNL     1      14.802  36.936  58.478  1.00  0.00     0.210 HD
ENDBRANCH  17  20
ENDBRANCH  16  17
ENDBRANCH  15  16
ENDBRANCH  14  15
ENDBRANCH  13  14
ENDBRANCH  12  13
ENDBRANCH   1  12
TORSDOF 9
ENDMDL
MODEL 4
REMARK VINA RESULT: -6.893423300      2.754      5.112
REMARK  9 active torsions:
REMARK  status: ('A' for Active; 'I' for Inactive)
REMARK    1  A    between atoms: O1_2  and  C2_3 
REMARK    2  A    between atoms: C9_10  and  C10_11 
REMARK    3  A    between atoms: C10_11  and  C11_12 
REMARK    4  A    between atoms: C11_12  and  C12_13 
REMARK    5  A    between atoms: C12_13  and  C13_14 
REMARK    6  A    between atoms: C13_14  and  C14_15 
REMARK    7  A    between atoms: C14_15  and  C15_16 
REMARK    8  A    between atoms: C15_16  and  C16_17 
REMARK    9  A    between atoms: C16_17  and  O2_20 
ROOT
HETATM    1  C10 UNL     1      16.248  35.556  58.370  1.00  0.00     0.041 C 
ENDROOT
BRANCH   1   2
HETATM    2  C9  UNL     1      17.529  35.010  58.900  1.00  0.00    -0.024 A 
HETATM    3  C2  UNL     1      18.082  33.837  58.459  1.00  0.00     0.075 A 
HETATM    4  C3  UNL     1      19.269  33.410  59.002  1.00  0.00     0.044 A 
HETATM    5  C4  UNL     1      19.948  34.112  59.986  1.00  0.00    -0.053 A 
HETATM    6  C5  UNL     1      21.229  33.638  60.564  1.00  0.00     0.049 C 
HETATM    7  C6  UNL     1      19.370  35.284  60.408  1.00  0.00    -0.055 A 
HETATM    8  C7  UNL     1      20.073  36.070  61.471  1.00  0.00     0.049 C 
HETATM    9  C8  UNL     1      18.185  35.722  59.875  1.00  0.00     0.017 A 
BRANCH   3  10
HETATM   10  O1  UNL     1      17.450  33.094  57.478  1.00  0.00    -0.355 OA
HETATM   11  C1  UNL     1      16.463  32.133  57.831  1.00  0.00     0.210 C 
ENDBRANCH   3  10
ENDBRANCH   1   2
BRANCH   1  12
HETATM   12  C11 UNL     1      16.504  36.652  57.380  1.00  0.00     0.005 C 
BRANCH  12  13
HETATM   13  C12 UNL     1      16.752  36.147  55.991  1.00  0.00     0.000 C 
BRANCH  13  14
HETATM   14  C13 UNL     1      18.177  36.375  55.507  1.00  0.00     0.000 C 
BRANCH  14  15
HETATM   15  C14 UNL     1      18.882  35.136  55.103  1.00  0.00     0.003 C 
BRANCH  15  16
HETATM   16  C15 UNL     1      18.215  34.191  54.194  1.00  0.00     0.037 C 
BRANCH  16  17
HETATM   17  C16 UNL     1      18.943  33.634  53.040  1.00  0.00     0.051 C 
HETATM   18  C17 UNL     1      20.206  32.950  53.620  1.00  0.00     0.045 C 
HETATM   19  C18 UNL     1      19.454  34.557  51.991  1.00  0.00     0.045 C 
BRANCH  17  20
HETATM   20  O2  UNL     1      18.241  32.608  52.391  1.00  0.00    -0.391 OA
ATOM     21  H2  UNL     1      17.751  32.912  51.636  1.00  0.00     0.210 HD
ENDBRANCH  17  20
ENDBRANCH  16  17
ENDBRANCH  15  16
ENDBRANCH  14  15
ENDBRANCH  13  14
ENDBRANCH  12  13
ENDBRANCH   1  12
TORSDOF 9
ENDMDL
MODEL 5
REMARK VINA RESULT: -6.882918609      2.290      3.257
REMARK  9 active torsions:
REMARK  status: ('A' for Active; 'I' for Inactive)
REMARK    1  A    between atoms: O1_2  and  C2_3 
REMARK    2  A    between atoms: C9_10  and  C10_11 
REMARK    3  A    between atoms: C10_11  and  C11_12 
REMARK    4  A    between atoms: C11_12  and  C12_13 
REMARK    5  A    between atoms: C12_13  and  C13_14 
REMARK    6  A    between atoms: C13_14  and  C14_15 
REMARK    7  A    between atoms: C14_15  and  C15_16 
REMARK    8  A    between atoms: C15_16  and  C16_17 
REMARK    9  A    between atoms: C16_17  and  O2_20 
ROOT
HETATM    1  C10 UNL     1      18.195  34.985  59.737  1.00  0.00     0.041 C 
ENDROOT
BRANCH   1   2
HETATM    2  C9  UNL     1      17.335  35.365  58.581  1.00  0.00    -0.024 A 
HETATM    3  C2  UNL     1      16.399  34.525  58.037  1.00  0.00     0.075 A 
HETATM    4  C3  UNL     1      15.647  34.959  56.973  1.00  0.00     0.044 A 
HETATM    5  C4  UNL     1      15.785  36.219  56.412  1.00  0.00    -0.053 A 
HETATM    6  C5  UNL     1      14.966  36.674  55.262  1.00  0.00     0.049 C 
HETATM    7  C6  UNL     1      16.731  37.039  56.978  1.00  0.00    -0.055 A 
HETATM    8  C7  UNL     1      16.910  38.407  56.398  1.00  0.00     0.049 C 
HETATM    9  C8  UNL     1      17.489  36.618  58.040  1.00  0.00     0.017 A 
BRANCH   3  10
HETATM   10  O1  UNL     1      16.216  33.255  58.556  1.00  0.00    -0.355 OA
HETATM   11  C1  UNL     1      16.369  32.112  57.725  1.00  0.00     0.210 C 
ENDBRANCH   3  10
ENDBRANCH   1   2
BRANCH   1  12
HETATM   12  C11 UNL     1      19.637  34.931  59.334  1.00  0.00     0.005 C 
BRANCH  12  13
HETATM   13  C12 UNL     1      19.918  33.904  58.279  1.00  0.00     0.000 C 
BRANCH  13  14
HETATM   14  C13 UNL     1      20.633  34.466  57.058  1.00  0.00     0.000 C 
BRANCH  14  15
HETATM   15  C14 UNL     1      19.722  34.893  55.970  1.00  0.00     0.003 C 
BRANCH  15  16
HETATM   16  C15 UNL     1      18.922  33.882  55.261  1.00  0.00     0.037 C 
BRANCH  16  17
HETATM   17  C16 UNL     1      19.054  33.724  53.802  1.00  0.00     0.051 C 
HETATM   18  C17 UNL     1      20.235  32.743  53.583  1.00  0.00     0.045 C 
HETATM   19  C18 UNL     1      19.383  34.913  52.970  1.00  0.00     0.045 C 
BRANCH  17  20
HETATM   20  O2  UNL     1      17.947  33.094  53.216  1.00  0.00    -0.391 OA
ATOM     21  H2  UNL     1      17.995  32.146  53.253  1.00  0.00     0.210 HD
ENDBRANCH  17  20
ENDBRANCH  16  17
ENDBRANCH  15  16
ENDBRANCH  14  15
ENDBRANCH  13  14
ENDBRANCH  12  13
ENDBRANCH   1  12
TORSDOF 9
ENDMDL
