MODEL 1
REMARK VINA RESULT: -6.549886469      0.000      0.000
REMARK  10 active torsions:
REMARK  status: ('A' for Active; 'I' for Inactive)
REMARK    1  A    between atoms: C2_2  and  C3_3 
REMARK    2  A    between atoms: C3_3  and  C4_4 
REMARK    3  A    between atoms: C4_4  and  C5_5 
REMARK    4  A    between atoms: C5_5  and  O1_6 
REMARK    5  A    between atoms: O1_6  and  C6_7 
REMARK    6  A    between atoms: C9_10  and  C10_11 
REMARK    7  A    between atoms: C10_11  and  O2_13 
REMARK    8  A    between atoms: C13_16  and  C14_17 
REMARK    9  A    between atoms: C14_17  and  C16_19 
REMARK   10  A    between atoms: C16_19  and  C17_20 
ROOT
HETATM    1  C6  UNL     1      18.348  35.461  56.425  1.00  0.00     0.075 A 
HETATM    2  C7  UNL     1      17.589  35.519  55.272  1.00  0.00     0.038 A 
HETATM    3  C8  UNL     1      18.038  34.795  54.177  1.00  0.00     0.012 A 
HETATM    4  C9  UNL     1      19.200  34.049  54.248  1.00  0.00    -0.029 A 
HETATM    5  C12 UNL     1      19.906  34.041  55.436  1.00  0.00     0.020 A 
HETATM    6  C13 UNL     1      19.504  34.747  56.559  1.00  0.00    -0.020 A 
ENDROOT
BRANCH   1   7
HETATM    7  O1  UNL     1      17.875  36.166  57.540  1.00  0.00    -0.351 OA
BRANCH   7   8
HETATM    8  C5  UNL     1      16.473  36.398  57.679  1.00  0.00     0.175 C 
BRANCH   8   9
HETATM    9  C4  UNL     1      15.998  35.621  58.908  1.00  0.00     0.027 C 
BRANCH   9  10
HETATM   10  C3  UNL     1      15.391  34.318  58.419  1.00  0.00     0.002 C 
BRANCH  10  11
HETATM   11  C2  UNL     1      16.323  33.139  58.520  1.00  0.00    -0.004 C 
HETATM   12  C1  UNL     1      16.488  32.362  57.258  1.00  0.00     0.005 C 
ENDBRANCH  10  11
ENDBRANCH   9  10
ENDBRANCH   8   9
ENDBRANCH   7   8
ENDBRANCH   1   7
BRANCH   6  13
HETATM   13  C14 UNL     1      20.343  34.910  57.757  1.00  0.00     0.017 C 
HETATM   14  C15 UNL     1      19.894  33.783  58.752  1.00  0.00     0.015 C 
BRANCH  13  15
HETATM   15  C16 UNL     1      21.797  34.504  57.426  1.00  0.00     0.009 C 
BRANCH  15  16
HETATM   16  C17 UNL     1      22.431  33.695  58.506  1.00  0.00    -0.004 C 
HETATM   17  C18 UNL     1      23.641  32.979  57.958  1.00  0.00     0.005 C 
ENDBRANCH  15  16
ENDBRANCH  13  15
ENDBRANCH   6  13
BRANCH   4  18
HETATM   18  C10 UNL     1      19.577  33.339  53.030  1.00  0.00     0.147 C 
HETATM   19  C11 UNL     1      20.706  32.344  53.365  1.00  0.00     0.044 C 
BRANCH  18  20
HETATM   20  O2  UNL     1      18.531  32.571  52.516  1.00  0.00    -0.391 OA
ATOM     21  H2  UNL     1      18.177  32.934  51.712  1.00  0.00     0.210 HD
ENDBRANCH  18  20
ENDBRANCH   4  18
TORSDOF 10
ENDMDL
MODEL 2
REMARK VINA RESULT: -6.503912326      1.386      4.244
REMARK  10 active torsions:
REMARK  status: ('A' for Active; 'I' for Inactive)
REMARK    1  A    between atoms: C2_2  and  C3_3 
REMARK    2  A    between atoms: C3_3  and  C4_4 
REMARK    3  A    between atoms: C4_4  and  C5_5 
REMARK    4  A    between atoms: C5_5  and  O1_6 
REMARK    5  A    between atoms: O1_6  and  C6_7 
REMARK    6  A    between atoms: C9_10  and  C10_11 
REMARK    7  A    between atoms: C10_11  and  O2_13 
REMARK    8  A    between atoms: C13_16  and  C14_17 
REMARK    9  A    between atoms: C14_17  and  C16_19 
REMARK   10  A    between atoms: C16_19  and  C17_20 
ROOT
HETATM    1  C6  UNL     1      18.917  35.044  57.276  1.00  0.00     0.075 A 
HETATM    2  C7  UNL     1      20.118  34.527  56.833  1.00  0.00     0.038 A 
HETATM    3  C8  UNL     1      20.172  34.071  55.524  1.00  0.00     0.012 A 
HETATM    4  C9  UNL     1      19.060  34.137  54.704  1.00  0.00    -0.029 A 
HETATM    5  C12 UNL     1      17.892  34.666  55.220  1.00  0.00     0.020 A 
HETATM    6  C13 UNL     1      17.783  35.134  56.519  1.00  0.00    -0.020 A 
ENDROOT
BRANCH   1   7
HETATM    7  O1  UNL     1      18.874  35.535  58.588  1.00  0.00    -0.351 OA
BRANCH   7   8
HETATM    8  C5  UNL     1      19.047  34.630  59.679  1.00  0.00     0.175 C 
BRANCH   8   9
HETATM    9  C4  UNL     1      19.527  35.445  60.880  1.00  0.00     0.027 C 
BRANCH   9  10
HETATM   10  C3  UNL     1      21.045  35.454  60.851  1.00  0.00     0.002 C 
BRANCH  10  11
HETATM   11  C2  UNL     1      21.660  34.079  60.807  1.00  0.00    -0.004 C 
HETATM   12  C1  UNL     1      22.742  33.909  59.796  1.00  0.00     0.005 C 
ENDBRANCH  10  11
ENDBRANCH   9  10
ENDBRANCH   8   9
ENDBRANCH   7   8
ENDBRANCH   1   7
BRANCH   6  13
HETATM   13  C14 UNL     1      16.503  35.511  57.140  1.00  0.00     0.017 C 
HETATM   14  C15 UNL     1      15.761  36.405  56.085  1.00  0.00     0.015 C 
BRANCH  13  15
HETATM   15  C16 UNL     1      15.590  34.269  57.229  1.00  0.00     0.009 C 
BRANCH  15  16
HETATM   16  C17 UNL     1      16.075  33.265  58.221  1.00  0.00    -0.004 C 
HETATM   17  C18 UNL     1      16.409  31.975  57.513  1.00  0.00     0.005 C 
ENDBRANCH  15  16
ENDBRANCH  13  15
ENDBRANCH   6  13
BRANCH   4  18
HETATM   18  C10 UNL     1      19.234  33.616  53.351  1.00  0.00     0.147 C 
HETATM   19  C11 UNL     1      20.464  32.688  53.331  1.00  0.00     0.044 C 
BRANCH  18  20
HETATM   20  O2  UNL     1      18.155  32.832  52.941  1.00  0.00    -0.391 OA
ATOM     21  H2  UNL     1      18.399  32.203  52.271  1.00  0.00     0.210 HD
ENDBRANCH  18  20
ENDBRANCH   4  18
TORSDOF 10
ENDMDL
MODEL 3
REMARK VINA RESULT: -6.461504282      2.072      4.896
REMARK  10 active torsions:
REMARK  status: ('A' for Active; 'I' for Inactive)
REMARK    1  A    between atoms: C2_2  and  C3_3 
REMARK    2  A    between atoms: C3_3  and  C4_4 
REMARK    3  A    between atoms: C4_4  and  C5_5 
REMARK    4  A    between atoms: C5_5  and  O1_6 
REMARK    5  A    between atoms: O1_6  and  C6_7 
REMARK    6  A    between atoms: C9_10  and  C10_11 
REMARK    7  A    between atoms: C10_11  and  O2_13 
REMARK    8  A    between atoms: C13_16  and  C14_17 
REMARK    9  A    between atoms: C14_17  and  C16_19 
REMARK   10  A    between atoms: C16_19  and  C17_20 
ROOT
HETATM    1  C6  UNL     1      20.525  34.946  57.298  1.00  0.00     0.075 A 
HETATM    2  C7  UNL     1      19.596  34.511  56.373  1.00  0.00     0.038 A 
HETATM    3  C8  UNL     1      18.403  33.998  56.861  1.00  0.00     0.012 A 
HETATM    4  C9  UNL     1      18.165  33.929  58.222  1.00  0.00    -0.029 A 
HETATM    5  C12 UNL     1      19.144  34.384  59.085  1.00  0.00     0.020 A 
HETATM    6  C13 UNL     1      20.352  34.903  58.652  1.00  0.00    -0.020 A 
ENDROOT
BRANCH   1   7
HETATM    7  O1  UNL     1      21.715  35.495  56.802  1.00  0.00    -0.351 OA
BRANCH   7   8
HETATM    8  C5  UNL     1      21.906  35.592  55.390  1.00  0.00     0.175 C 
BRANCH   8   9
HETATM    9  C4  UNL     1      23.159  34.790  55.039  1.00  0.00     0.027 C 
BRANCH   9  10
HETATM   10  C3  UNL     1      22.706  33.447  54.494  1.00  0.00     0.002 C 
BRANCH  10  11
HETATM   11  C2  UNL     1      21.712  33.554  53.367  1.00  0.00    -0.004 C 
HETATM   12  C1  UNL     1      20.616  32.544  53.401  1.00  0.00     0.005 C 
ENDBRANCH  10  11
ENDBRANCH   9  10
ENDBRANCH   8   9
ENDBRANCH   7   8
ENDBRANCH   1   7
BRANCH   6  13
HETATM   13  C14 UNL     1      21.477  35.202  59.554  1.00  0.00     0.017 C 
HETATM   14  C15 UNL     1      20.831  35.608  60.925  1.00  0.00     0.015 C 
BRANCH  13  15
HETATM   15  C16 UNL     1      22.215  33.891  59.905  1.00  0.00     0.009 C 
BRANCH  15  16
HETATM   16  C17 UNL     1      23.597  33.840  59.346  1.00  0.00    -0.004 C 
HETATM   17  C18 UNL     1      23.629  32.910  58.158  1.00  0.00     0.005 C 
ENDBRANCH  15  16
ENDBRANCH  13  15
ENDBRANCH   6  13
BRANCH   4  18
HETATM   18  C10 UNL     1      16.880  33.360  58.616  1.00  0.00     0.147 C 
HETATM   19  C11 UNL     1      15.808  34.467  58.559  1.00  0.00     0.044 C 
BRANCH  18  20
HETATM   20  O2  UNL     1      16.448  32.363  57.739  1.00  0.00    -0.391 OA
ATOM     21  H2  UNL     1      15.722  31.862  58.091  1.00  0.00     0.210 HD
ENDBRANCH  18  20
ENDBRANCH   4  18
TORSDOF 10
ENDMDL
MODEL 4
REMARK VINA RESULT: -6.397625173      1.723      5.915
REMARK  10 active torsions:
REMARK  status: ('A' for Active; 'I' for Inactive)
REMARK    1  A    between atoms: C2_2  and  C3_3 
REMARK    2  A    between atoms: C3_3  and  C4_4 
REMARK    3  A    between atoms: C4_4  and  C5_5 
REMARK    4  A    between atoms: C5_5  and  O1_6 
REMARK    5  A    between atoms: O1_6  and  C6_7 
REMARK    6  A    between atoms: C9_10  and  C10_11 
REMARK    7  A    between atoms: C10_11  and  O2_13 
REMARK    8  A    between atoms: C13_16  and  C14_17 
REMARK    9  A    between atoms: C14_17  and  C16_19 
REMARK   10  A    between atoms: C16_19  and  C17_20 
ROOT
HETATM    1  C6  UNL     1      19.042  34.328  56.545  1.00  0.00     0.075 A 
HETATM    2  C7  UNL     1      20.351  34.710  56.766  1.00  0.00     0.038 A 
HETATM    3  C8  UNL     1      20.853  34.549  58.049  1.00  0.00     0.012 A 
HETATM    4  C9  UNL     1      20.066  34.027  59.058  1.00  0.00    -0.029 A 
HETATM    5  C12 UNL     1      18.764  33.670  58.760  1.00  0.00     0.020 A 
HETATM    6  C13 UNL     1      18.212  33.810  57.498  1.00  0.00    -0.020 A 
ENDROOT
BRANCH   1   7
HETATM    7  O1  UNL     1      18.547  34.460  55.241  1.00  0.00    -0.351 OA
BRANCH   7   8
HETATM    8  C5  UNL     1      19.463  34.510  54.146  1.00  0.00     0.175 C 
BRANCH   8   9
HETATM    9  C4  UNL     1      19.444  33.139  53.468  1.00  0.00     0.027 C 
BRANCH   9  10
HETATM   10  C3  UNL     1      20.870  32.618  53.448  1.00  0.00     0.002 C 
BRANCH  10  11
HETATM   11  C2  UNL     1      21.913  33.700  53.559  1.00  0.00    -0.004 C 
HETATM   12  C1  UNL     1      22.985  33.436  54.561  1.00  0.00     0.005 C 
ENDBRANCH  10  11
ENDBRANCH   9  10
ENDBRANCH   8   9
ENDBRANCH   7   8
ENDBRANCH   1   7
BRANCH   6  13
HETATM   13  C14 UNL     1      16.780  33.624  57.214  1.00  0.00     0.017 C 
HETATM   14  C15 UNL     1      16.437  32.164  57.676  1.00  0.00     0.015 C 
BRANCH  13  15
HETATM   15  C16 UNL     1      15.947  34.488  58.186  1.00  0.00     0.009 C 
BRANCH  15  16
HETATM   16  C17 UNL     1      15.991  35.941  57.849  1.00  0.00    -0.004 C 
HETATM   17  C18 UNL     1      15.694  36.128  56.381  1.00  0.00     0.005 C 
ENDBRANCH  15  16
ENDBRANCH  13  15
ENDBRANCH   6  13
BRANCH   4  18
HETATM   18  C10 UNL     1      20.699  33.916  60.369  1.00  0.00     0.147 C 
HETATM   19  C11 UNL     1      22.229  33.880  60.179  1.00  0.00     0.044 C 
BRANCH  18  20
HETATM   20  O2  UNL     1      20.440  35.023  61.180  1.00  0.00    -0.391 OA
ATOM     21  H2  UNL     1      20.018  34.782  61.996  1.00  0.00     0.210 HD
ENDBRANCH  18  20
ENDBRANCH   4  18
TORSDOF 10
ENDMDL
MODEL 5
REMARK VINA RESULT: -6.382172516      1.918      4.454
REMARK  10 active torsions:
REMARK  status: ('A' for Active; 'I' for Inactive)
REMARK    1  A    between atoms: C2_2  and  C3_3 
REMARK    2  A    between atoms: C3_3  and  C4_4 
REMARK    3  A    between atoms: C4_4  and  C5_5 
REMARK    4  A    between atoms: C5_5  and  O1_6 
REMARK    5  A    between atoms: O1_6  and  C6_7 
REMARK    6  A    between atoms: C9_10  and  C10_11 
REMARK    7  A    between atoms: C10_11  and  O2_13 
REMARK    8  A    between atoms: C13_16  and  C14_17 
REMARK    9  A    between atoms: C14_17  and  C16_19 
REMARK   10  A    between atoms: C16_19  and  C17_20 
ROOT
HETATM    1  C6  UNL     1      18.538  33.862  57.299  1.00  0.00     0.075 A 
HETATM    2  C7  UNL     1      18.682  33.636  58.654  1.00  0.00     0.038 A 
HETATM    3  C8  UNL     1      19.838  34.106  59.260  1.00  0.00     0.012 A 
HETATM    4  C9  UNL     1      20.802  34.772  58.525  1.00  0.00    -0.029 A 
HETATM    5  C12 UNL     1      20.588  34.958  57.173  1.00  0.00     0.020 A 
HETATM    6  C13 UNL     1      19.454  34.508  56.518  1.00  0.00    -0.020 A 
ENDROOT
BRANCH   1   7
HETATM    7  O1  UNL     1      17.355  33.415  56.696  1.00  0.00    -0.351 OA
BRANCH   7   8
HETATM    8  C5  UNL     1      16.099  33.892  57.182  1.00  0.00     0.175 C 
BRANCH   8   9
HETATM    9  C4  UNL     1      15.817  35.228  56.495  1.00  0.00     0.027 C 
BRANCH   9  10
HETATM   10  C3  UNL     1      16.084  36.329  57.507  1.00  0.00     0.002 C 
BRANCH  10  11
HETATM   11  C2  UNL     1      17.188  37.271  57.102  1.00  0.00    -0.004 C 
HETATM   12  C1  UNL     1      16.845  38.194  55.983  1.00  0.00     0.005 C 
ENDBRANCH  10  11
ENDBRANCH   9  10
ENDBRANCH   8   9
ENDBRANCH   7   8
ENDBRANCH   1   7
BRANCH   6  13
HETATM   13  C14 UNL     1      19.303  34.520  55.054  1.00  0.00     0.017 C 
HETATM   14  C15 UNL     1      19.900  35.889  54.572  1.00  0.00     0.015 C 
BRANCH  13  15
HETATM   15  C16 UNL     1      20.275  33.493  54.430  1.00  0.00     0.009 C 
BRANCH  15  16
HETATM   16  C17 UNL     1      21.489  34.131  53.842  1.00  0.00    -0.004 C 
HETATM   17  C18 UNL     1      22.727  33.491  54.421  1.00  0.00     0.005 C 
ENDBRANCH  15  16
ENDBRANCH  13  15
ENDBRANCH   6  13
BRANCH   4  18
HETATM   18  C10 UNL     1      21.980  35.209  59.268  1.00  0.00     0.147 C 
HETATM   19  C11 UNL     1      22.869  33.983  59.555  1.00  0.00     0.044 C 
BRANCH  18  20
HETATM   20  O2  UNL     1      22.773  36.094  58.535  1.00  0.00    -0.391 OA
ATOM     21  H2  UNL     1      22.361  36.943  58.426  1.00  0.00     0.210 HD
ENDBRANCH  18  20
ENDBRANCH   4  18
TORSDOF 10
ENDMDL
