MODEL 1
REMARK VINA RESULT: -6.087257338      0.000      0.000
REMARK  3 active torsions:
REMARK  status: ('A' for Active; 'I' for Inactive)
REMARK    1  A    between atoms: N2_3  and  N3_4 
REMARK    2  A    between atoms: N2_3  and  C2_7 
REMARK    3  A    between atoms: C3_10  and  N5_11 
REMARK       I    between atoms: N5_11  and  C4_13 
ROOT
HETATM    1  N1  UNL     1      -3.019  70.790  14.710  1.00  0.00    -0.169 NA
HETATM    2  C1  UNL     1      -3.445  70.604  13.645  1.00  0.00     0.220 C 
HETATM    3  N2  UNL     1      -3.983  70.388  12.367  1.00  0.00    -0.021 N 
ENDROOT
BRANCH   3   4
HETATM    4  N3  UNL     1      -3.858  71.380  11.395  1.00  0.00    -0.315 N 
ATOM      5  H32 UNL     1      -3.054  72.006  11.435  1.00  0.00     0.178 HD
ATOM      6  H31 UNL     1      -4.568  71.460  10.668  1.00  0.00     0.178 HD
ENDBRANCH   3   4
BRANCH   3   7
HETATM    7  C2  UNL     1      -4.653  69.185  12.031  1.00  0.00     0.729 A 
HETATM    8  N4  UNL     1      -4.626  68.633  10.795  1.00  0.00    -0.019 N 
HETATM    9  C3  UNL     1      -5.287  67.466  10.549  1.00  0.00     0.704 A 
ATOM     10  H4  UNL     1      -4.110  69.091  10.044  1.00  0.00     0.203 HD
HETATM   11  N6  UNL     1      -5.985  66.829  11.529  1.00  0.00    -0.165 N 
HETATM   12  C5  UNL     1      -6.011  67.379  12.755  1.00  0.00     0.205 A 
ATOM     13  H6  UNL     1      -6.476  65.955  11.339  1.00  0.00     0.186 HD
HETATM   14  S1  UNL     1      -6.845  66.631  13.947  1.00  0.00    -0.040 SA
HETATM   15  N7  UNL     1      -5.350  68.537  12.979  1.00  0.00    -0.163 N 
ATOM     16  H7  UNL     1      -5.384  68.940  13.916  1.00  0.00     0.187 HD
BRANCH   9  17
HETATM   17  N5  UNL     1      -5.308  66.902   9.404  1.00  0.00    -0.133 N 
HETATM   18  C4  UNL     1      -5.166  67.678   8.239  1.00  0.00     0.302 C 
HETATM   19  O1  UNL     1      -4.092  68.250   7.981  1.00  0.00    -0.629 OA
HETATM   20  O2  UNL     1      -6.233  67.809   7.373  1.00  0.00    -0.629 OA
ATOM     21  H5  UNL     1      -5.428  65.892   9.333  1.00  0.00     0.190 HD
ENDBRANCH   9  17
ENDBRANCH   3   7
TORSDOF 3
ENDMDL
MODEL 2
REMARK VINA RESULT: -6.023858733      1.174      1.263
REMARK  3 active torsions:
REMARK  status: ('A' for Active; 'I' for Inactive)
REMARK    1  A    between atoms: N2_3  and  N3_4 
REMARK    2  A    between atoms: N2_3  and  C2_7 
REMARK    3  A    between atoms: C3_10  and  N5_11 
REMARK       I    between atoms: N5_11  and  C4_13 
ROOT
HETATM    1  N1  UNL     1      -6.176  72.287  13.654  1.00  0.00    -0.169 NA
HETATM    2  C1  UNL     1      -5.468  71.599  13.041  1.00  0.00     0.220 C 
HETATM    3  N2  UNL     1      -4.626  70.774  12.280  1.00  0.00    -0.021 N 
ENDROOT
BRANCH   3   4
HETATM    4  N3  UNL     1      -3.440  71.296  11.763  1.00  0.00    -0.315 N 
ATOM      5  H32 UNL     1      -3.253  72.292  11.876  1.00  0.00     0.178 HD
ATOM      6  H31 UNL     1      -2.789  70.676  11.282  1.00  0.00     0.178 HD
ENDBRANCH   3   4
BRANCH   3   7
HETATM    7  C2  UNL     1      -4.943  69.418  12.021  1.00  0.00     0.729 A 
HETATM    8  N4  UNL     1      -4.564  68.760  10.899  1.00  0.00    -0.019 N 
HETATM    9  C3  UNL     1      -4.899  67.450  10.724  1.00  0.00     0.704 A 
ATOM     10  H4  UNL     1      -4.028  69.247  10.182  1.00  0.00     0.203 HD
HETATM   11  N6  UNL     1      -5.614  66.772  11.663  1.00  0.00    -0.165 N 
HETATM   12  C5  UNL     1      -5.989  67.426  12.775  1.00  0.00     0.205 A 
ATOM     13  H6  UNL     1      -5.859  65.791  11.526  1.00  0.00     0.186 HD
HETATM   14  S1  UNL     1      -6.852  66.631  13.915  1.00  0.00    -0.040 SA
HETATM   15  N7  UNL     1      -5.650  68.726  12.930  1.00  0.00    -0.163 N 
ATOM     16  H7  UNL     1      -5.946  69.205  13.780  1.00  0.00     0.187 HD
BRANCH   9  17
HETATM   17  N5  UNL     1      -4.581  66.780   9.685  1.00  0.00    -0.133 N 
HETATM   18  C4  UNL     1      -5.069  67.170   8.425  1.00  0.00     0.302 C 
HETATM   19  O1  UNL     1      -4.699  68.235   7.899  1.00  0.00    -0.629 OA
HETATM   20  O2  UNL     1      -5.972  66.361   7.764  1.00  0.00    -0.629 OA
ATOM     21  H5  UNL     1      -3.974  65.964   9.768  1.00  0.00     0.190 HD
ENDBRANCH   9  17
ENDBRANCH   3   7
TORSDOF 3
ENDMDL
MODEL 3
REMARK VINA RESULT: -6.012898749      3.304      5.720
REMARK  3 active torsions:
REMARK  status: ('A' for Active; 'I' for Inactive)
REMARK    1  A    between atoms: N2_3  and  N3_4 
REMARK    2  A    between atoms: N2_3  and  C2_7 
REMARK    3  A    between atoms: C3_10  and  N5_11 
REMARK       I    between atoms: N5_11  and  C4_13 
ROOT
HETATM    1  N1  UNL     1      -6.834  63.558   7.945  1.00  0.00    -0.169 NA
HETATM    2  C1  UNL     1      -6.649  64.705   7.991  1.00  0.00     0.220 C 
HETATM    3  N2  UNL     1      -6.401  66.086   8.037  1.00  0.00    -0.021 N 
ENDROOT
BRANCH   3   4
HETATM    4  N3  UNL     1      -6.808  66.890   6.972  1.00  0.00    -0.315 N 
ATOM      5  H32 UNL     1      -6.958  66.457   6.061  1.00  0.00     0.178 HD
ATOM      6  H31 UNL     1      -6.945  67.889   7.124  1.00  0.00     0.178 HD
ENDBRANCH   3   4
BRANCH   3   7
HETATM    7  C2  UNL     1      -5.748  66.692   9.138  1.00  0.00     0.729 A 
HETATM    8  N4  UNL     1      -6.403  67.214  10.203  1.00  0.00    -0.019 N 
HETATM    9  C3  UNL     1      -5.705  67.773  11.232  1.00  0.00     0.704 A 
ATOM     10  H4  UNL     1      -7.422  67.188  10.236  1.00  0.00     0.203 HD
HETATM   11  N6  UNL     1      -4.344  67.822  11.219  1.00  0.00    -0.165 N 
HETATM   12  C5  UNL     1      -3.697  67.306  10.162  1.00  0.00     0.205 A 
ATOM     13  H6  UNL     1      -3.829  68.241  11.993  1.00  0.00     0.186 HD
HETATM   14  S1  UNL     1      -2.063  67.357  10.124  1.00  0.00    -0.040 SA
HETATM   15  N7  UNL     1      -4.406  66.756   9.150  1.00  0.00    -0.163 N 
ATOM     16  H7  UNL     1      -3.897  66.371   8.355  1.00  0.00     0.187 HD
BRANCH   9  17
HETATM   17  N5  UNL     1      -6.264  68.290  12.257  1.00  0.00    -0.133 N 
HETATM   18  C4  UNL     1      -5.537  69.163  13.085  1.00  0.00     0.302 C 
HETATM   19  O1  UNL     1      -5.174  70.279  12.673  1.00  0.00    -0.629 OA
HETATM   20  O2  UNL     1      -5.220  68.775  14.372  1.00  0.00    -0.629 OA
ATOM     21  H5  UNL     1      -7.236  68.070  12.474  1.00  0.00     0.190 HD
ENDBRANCH   9  17
ENDBRANCH   3   7
TORSDOF 3
ENDMDL
MODEL 4
REMARK VINA RESULT: -5.955196427      2.088      3.313
REMARK  3 active torsions:
REMARK  status: ('A' for Active; 'I' for Inactive)
REMARK    1  A    between atoms: N2_3  and  N3_4 
REMARK    2  A    between atoms: N2_3  and  C2_7 
REMARK    3  A    between atoms: C3_10  and  N5_11 
REMARK       I    between atoms: N5_11  and  C4_13 
ROOT
HETATM    1  N1  UNL     1      -6.500  68.282  16.196  1.00  0.00    -0.169 NA
HETATM    2  C1  UNL     1      -6.507  67.758  15.158  1.00  0.00     0.220 C 
HETATM    3  N2  UNL     1      -6.493  67.113  13.913  1.00  0.00    -0.021 N 
ENDROOT
BRANCH   3   4
HETATM    4  N3  UNL     1      -7.279  65.976  13.722  1.00  0.00    -0.315 N 
ATOM      5  H32 UNL     1      -7.332  65.286  14.472  1.00  0.00     0.178 HD
ATOM      6  H31 UNL     1      -7.779  65.856  12.842  1.00  0.00     0.178 HD
ENDBRANCH   3   4
BRANCH   3   7
HETATM    7  C2  UNL     1      -5.703  67.583  12.835  1.00  0.00     0.729 A 
HETATM    8  N4  UNL     1      -5.468  66.868  11.709  1.00  0.00    -0.019 N 
HETATM    9  C3  UNL     1      -4.705  67.392  10.708  1.00  0.00     0.704 A 
ATOM     10  H4  UNL     1      -5.862  65.933  11.610  1.00  0.00     0.203 HD
HETATM   11  N6  UNL     1      -4.164  68.637  10.810  1.00  0.00    -0.165 N 
HETATM   12  C5  UNL     1      -4.398  69.345  11.927  1.00  0.00     0.205 A 
ATOM     13  H6  UNL     1      -3.595  69.024  10.057  1.00  0.00     0.186 HD
HETATM   14  S1  UNL     1      -3.755  70.843  12.072  1.00  0.00    -0.040 SA
HETATM   15  N7  UNL     1      -5.156  68.808  12.910  1.00  0.00    -0.163 N 
ATOM     16  H7  UNL     1      -5.320  69.361  13.752  1.00  0.00     0.187 HD
BRANCH   9  17
HETATM   17  N5  UNL     1      -4.439  66.763   9.630  1.00  0.00    -0.133 N 
HETATM   18  C4  UNL     1      -5.035  67.164   8.421  1.00  0.00     0.302 C 
HETATM   19  O1  UNL     1      -4.749  68.256   7.900  1.00  0.00    -0.629 OA
HETATM   20  O2  UNL     1      -5.952  66.334   7.806  1.00  0.00    -0.629 OA
ATOM     21  H5  UNL     1      -3.795  65.972   9.644  1.00  0.00     0.190 HD
ENDBRANCH   9  17
ENDBRANCH   3   7
TORSDOF 3
ENDMDL
MODEL 5
REMARK VINA RESULT: -5.927756913      3.518      5.538
REMARK  3 active torsions:
REMARK  status: ('A' for Active; 'I' for Inactive)
REMARK    1  A    between atoms: N2_3  and  N3_4 
REMARK    2  A    between atoms: N2_3  and  C2_7 
REMARK    3  A    between atoms: C3_10  and  N5_11 
REMARK       I    between atoms: N5_11  and  C4_13 
ROOT
HETATM    1  N1  UNL     1      -5.798  67.834   7.124  1.00  0.00    -0.169 NA
HETATM    2  C1  UNL     1      -5.616  67.207   8.086  1.00  0.00     0.220 C 
HETATM    3  N2  UNL     1      -5.423  66.446   9.249  1.00  0.00    -0.021 N 
ENDROOT
BRANCH   3   4
HETATM    4  N3  UNL     1      -5.146  65.084   9.138  1.00  0.00    -0.315 N 
ATOM      5  H32 UNL     1      -4.624  64.755   8.326  1.00  0.00     0.178 HD
ATOM      6  H31 UNL     1      -5.469  64.447   9.866  1.00  0.00     0.178 HD
ENDBRANCH   3   4
BRANCH   3   7
HETATM    7  C2  UNL     1      -5.499  67.023  10.541  1.00  0.00     0.729 A 
HETATM    8  N4  UNL     1      -6.123  66.434  11.590  1.00  0.00    -0.019 N 
HETATM    9  C3  UNL     1      -6.147  67.046  12.808  1.00  0.00     0.704 A 
ATOM     10  H4  UNL     1      -6.578  65.530  11.467  1.00  0.00     0.203 HD
HETATM   11  N6  UNL     1      -5.549  68.253  13.003  1.00  0.00    -0.165 N 
HETATM   12  C5  UNL     1      -4.931  68.836  11.963  1.00  0.00     0.205 A 
ATOM     13  H6  UNL     1      -5.569  68.705  13.918  1.00  0.00     0.186 HD
HETATM   14  S1  UNL     1      -4.209  70.288  12.175  1.00  0.00    -0.040 SA
HETATM   15  N7  UNL     1      -4.920  68.215  10.761  1.00  0.00    -0.163 N 
ATOM     16  H7  UNL     1      -4.448  68.674   9.983  1.00  0.00     0.187 HD
BRANCH   9  17
HETATM   17  N5  UNL     1      -6.727  66.547  13.829  1.00  0.00    -0.133 N 
HETATM   18  C4  UNL     1      -7.201  67.394  14.848  1.00  0.00     0.302 C 
HETATM   19  O1  UNL     1      -8.149  68.171  14.641  1.00  0.00    -0.629 OA
HETATM   20  O2  UNL     1      -6.604  67.362  16.092  1.00  0.00    -0.629 OA
ATOM     21  H5  UNL     1      -6.847  65.537  13.908  1.00  0.00     0.190 HD
ENDBRANCH   9  17
ENDBRANCH   3   7
TORSDOF 3
ENDMDL
