MODEL 1
REMARK VINA RESULT: -6.313567700      0.000      0.000
REMARK  3 active torsions:
REMARK  status: ('A' for Active; 'I' for Inactive)
REMARK    1  A    between atoms: C3_4  and  N2_5 
REMARK    2  A    between atoms: C9_16  and  N6_17 
REMARK    3  A    between atoms: N6_17  and  N7_19 
ROOT
HETATM    1  N1  UNL     1      -4.660  68.083   8.006  1.00  0.00    -0.191 NA
HETATM    2  C1  UNL     1      -4.889  68.040   9.133  1.00  0.00     0.107 C 
HETATM    3  C2  UNL     1      -5.196  67.964  10.534  1.00  0.00     0.133 A 
HETATM    4  C3  UNL     1      -5.844  66.824  10.961  1.00  0.00     0.130 A 
HETATM    5  N3  UNL     1      -6.184  66.691  12.262  1.00  0.00    -0.315 N 
ATOM      6  H3  UNL     1      -6.664  65.844  12.570  1.00  0.00     0.170 HD
HETATM    7  C8  UNL     1      -5.902  67.656  13.164  1.00  0.00     0.195 A 
HETATM    8  N4  UNL     1      -6.282  67.453  14.518  1.00  0.00    -0.063 NA
HETATM    9  N5  UNL     1      -5.273  68.765  12.752  1.00  0.00    -0.314 N 
ATOM     10  H5  UNL     1      -5.060  69.494  13.433  1.00  0.00     0.170 HD
HETATM   11  C9  UNL     1      -4.906  68.948  11.438  1.00  0.00     0.146 A 
ENDROOT
BRANCH   4  12
HETATM   12  N2  UNL     1      -6.160  65.743  10.058  1.00  0.00    -0.366 N 
HETATM   13  C4  UNL     1      -7.335  65.586   9.247  1.00  0.00     0.124 C 
HETATM   14  C5  UNL     1      -6.916  64.618   8.152  1.00  0.00     0.021 C 
HETATM   15  C6  UNL     1      -5.572  64.070   8.515  1.00  0.00     0.021 C 
HETATM   16  C7  UNL     1      -5.262  64.607   9.883  1.00  0.00     0.124 C 
ENDBRANCH   4  12
BRANCH  11  17
HETATM   17  N6  UNL     1      -4.298  70.000  11.090  1.00  0.00    -0.291 N 
ATOM     18  H6  UNL     1      -4.017  70.017  10.109  1.00  0.00     0.188 HD
BRANCH  17  19
HETATM   19  N7  UNL     1      -3.953  71.114  11.789  1.00  0.00    -0.344 N 
ATOM     20  H72 UNL     1      -4.383  71.154  12.713  1.00  0.00     0.176 HD
ATOM     21  H71 UNL     1      -3.348  71.900  11.552  1.00  0.00     0.176 HD
ENDBRANCH  17  19
ENDBRANCH  11  17
TORSDOF 3
ENDMDL
MODEL 2
REMARK VINA RESULT: -5.857396171      2.012      3.057
REMARK  3 active torsions:
REMARK  status: ('A' for Active; 'I' for Inactive)
REMARK    1  A    between atoms: C3_4  and  N2_5 
REMARK    2  A    between atoms: C9_16  and  N6_17 
REMARK    3  A    between atoms: N6_17  and  N7_19 
ROOT
HETATM    1  N1  UNL     1      -3.630  70.180  11.786  1.00  0.00    -0.191 NA
HETATM    2  C1  UNL     1      -4.320  69.437  12.330  1.00  0.00     0.107 C 
HETATM    3  C2  UNL     1      -5.192  68.498  12.981  1.00  0.00     0.133 A 
HETATM    4  C3  UNL     1      -5.638  67.441  12.216  1.00  0.00     0.130 A 
HETATM    5  N3  UNL     1      -6.478  66.529  12.754  1.00  0.00    -0.315 N 
ATOM      6  H3  UNL     1      -6.805  65.751  12.181  1.00  0.00     0.170 HD
HETATM    7  C8  UNL     1      -6.894  66.628  14.035  1.00  0.00     0.195 A 
HETATM    8  N4  UNL     1      -7.774  65.634  14.543  1.00  0.00    -0.063 NA
HETATM    9  N5  UNL     1      -6.462  67.654  14.781  1.00  0.00    -0.314 N 
ATOM     10  H5  UNL     1      -6.776  67.729  15.748  1.00  0.00     0.170 HD
HETATM   11  C9  UNL     1      -5.607  68.609  14.279  1.00  0.00     0.146 A 
ENDROOT
BRANCH   4  12
HETATM   12  N2  UNL     1      -5.220  67.261  10.846  1.00  0.00    -0.366 N 
HETATM   13  C4  UNL     1      -5.826  67.801   9.661  1.00  0.00     0.124 C 
HETATM   14  C5  UNL     1      -4.724  67.752   8.615  1.00  0.00     0.021 C 
HETATM   15  C6  UNL     1      -3.588  66.962   9.183  1.00  0.00     0.021 C 
HETATM   16  C7  UNL     1      -4.071  66.432  10.501  1.00  0.00     0.124 C 
ENDBRANCH   4  12
BRANCH  11  17
HETATM   17  N6  UNL     1      -5.206  69.553  15.018  1.00  0.00    -0.291 N 
ATOM     18  H6  UNL     1      -4.734  70.306  14.516  1.00  0.00     0.188 HD
BRANCH  17  19
HETATM   19  N7  UNL     1      -5.294  69.744  16.361  1.00  0.00    -0.344 N 
ATOM     20  H72 UNL     1      -5.940  69.099  16.814  1.00  0.00     0.176 HD
ATOM     21  H71 UNL     1      -4.831  70.410  16.980  1.00  0.00     0.176 HD
ENDBRANCH  17  19
ENDBRANCH  11  17
TORSDOF 3
ENDMDL
MODEL 3
REMARK VINA RESULT: -5.619447577      2.115      3.366
REMARK  3 active torsions:
REMARK  status: ('A' for Active; 'I' for Inactive)
REMARK    1  A    between atoms: C3_4  and  N2_5 
REMARK    2  A    between atoms: C9_16  and  N6_17 
REMARK    3  A    between atoms: N6_17  and  N7_19 
ROOT
HETATM    1  N1  UNL     1      -3.552  70.731  12.206  1.00  0.00    -0.191 NA
HETATM    2  C1  UNL     1      -4.226  69.909  12.646  1.00  0.00     0.107 C 
HETATM    3  C2  UNL     1      -5.074  68.872  13.165  1.00  0.00     0.133 A 
HETATM    4  C3  UNL     1      -5.407  67.856  12.294  1.00  0.00     0.130 A 
HETATM    5  N3  UNL     1      -6.220  66.858  12.705  1.00  0.00    -0.315 N 
ATOM      6  H3  UNL     1      -6.462  66.110  12.054  1.00  0.00     0.170 HD
HETATM    7  C8  UNL     1      -6.717  66.829  13.961  1.00  0.00     0.195 A 
HETATM    8  N4  UNL     1      -7.562  65.748  14.333  1.00  0.00    -0.063 NA
HETATM    9  N5  UNL     1      -6.395  67.815  14.809  1.00  0.00    -0.314 N 
ATOM     10  H5  UNL     1      -6.771  67.794  15.757  1.00  0.00     0.170 HD
HETATM   11  C9  UNL     1      -5.573  68.854  14.438  1.00  0.00     0.146 A 
ENDROOT
BRANCH   4  12
HETATM   12  N2  UNL     1      -4.898  67.811  10.944  1.00  0.00    -0.366 N 
HETATM   13  C4  UNL     1      -3.579  67.441  10.512  1.00  0.00     0.124 C 
HETATM   14  C5  UNL     1      -3.751  67.059   9.050  1.00  0.00     0.021 C 
HETATM   15  C6  UNL     1      -5.133  67.451   8.634  1.00  0.00     0.021 C 
HETATM   16  C7  UNL     1      -5.724  68.185   9.803  1.00  0.00     0.124 C 
ENDBRANCH   4  12
BRANCH  11  17
HETATM   17  N6  UNL     1      -5.277  69.758  15.271  1.00  0.00    -0.291 N 
ATOM     18  H6  UNL     1      -4.333  69.685  15.651  1.00  0.00     0.188 HD
BRANCH  17  19
HETATM   19  N7  UNL     1      -5.993  70.810  15.751  1.00  0.00    -0.344 N 
ATOM     20  H72 UNL     1      -6.126  70.773  16.761  1.00  0.00     0.176 HD
ATOM     21  H71 UNL     1      -6.411  71.613  15.281  1.00  0.00     0.176 HD
ENDBRANCH  17  19
ENDBRANCH  11  17
TORSDOF 3
ENDMDL
MODEL 4
REMARK VINA RESULT: -5.236664719      1.490      2.325
REMARK  3 active torsions:
REMARK  status: ('A' for Active; 'I' for Inactive)
REMARK    1  A    between atoms: C3_4  and  N2_5 
REMARK    2  A    between atoms: C9_16  and  N6_17 
REMARK    3  A    between atoms: N6_17  and  N7_19 
ROOT
HETATM    1  N1  UNL     1      -3.565  68.988  10.891  1.00  0.00    -0.191 NA
HETATM    2  C1  UNL     1      -4.286  68.501  11.643  1.00  0.00     0.107 C 
HETATM    3  C2  UNL     1      -5.202  67.877  12.558  1.00  0.00     0.133 A 
HETATM    4  C3  UNL     1      -5.900  66.788  12.083  1.00  0.00     0.130 A 
HETATM    5  N3  UNL     1      -6.796  66.163  12.879  1.00  0.00    -0.315 N 
ATOM      6  H3  UNL     1      -7.309  65.357  12.520  1.00  0.00     0.170 HD
HETATM    7  C8  UNL     1      -7.024  66.583  14.143  1.00  0.00     0.195 A 
HETATM    8  N4  UNL     1      -7.975  65.879  14.932  1.00  0.00    -0.063 NA
HETATM    9  N5  UNL     1      -6.348  67.641  14.607  1.00  0.00    -0.314 N 
ATOM     10  H5  UNL     1      -6.520  67.959  15.561  1.00  0.00     0.170 HD
HETATM   11  C9  UNL     1      -5.426  68.312  13.835  1.00  0.00     0.146 A 
ENDROOT
BRANCH   4  12
HETATM   12  N2  UNL     1      -5.694  66.271  10.751  1.00  0.00    -0.366 N 
HETATM   13  C4  UNL     1      -5.013  65.066  10.368  1.00  0.00     0.124 C 
HETATM   14  C5  UNL     1      -5.545  64.753   8.978  1.00  0.00     0.021 C 
HETATM   15  C6  UNL     1      -6.344  65.930   8.518  1.00  0.00     0.021 C 
HETATM   16  C7  UNL     1      -6.170  66.985   9.572  1.00  0.00     0.124 C 
ENDBRANCH   4  12
BRANCH  11  17
HETATM   17  N6  UNL     1      -4.794  69.296  14.314  1.00  0.00    -0.291 N 
ATOM     18  H6  UNL     1      -3.824  69.093  14.556  1.00  0.00     0.188 HD
BRANCH  17  19
HETATM   19  N7  UNL     1      -5.176  70.577  14.562  1.00  0.00    -0.344 N 
ATOM     20  H72 UNL     1      -5.959  70.641  15.212  1.00  0.00     0.176 HD
ATOM     21  H71 UNL     1      -4.819  71.468  14.216  1.00  0.00     0.176 HD
ENDBRANCH  17  19
ENDBRANCH  11  17
TORSDOF 3
ENDMDL
MODEL 5
REMARK VINA RESULT: -5.220425257      2.072      4.961
REMARK  3 active torsions:
REMARK  status: ('A' for Active; 'I' for Inactive)
REMARK    1  A    between atoms: C3_4  and  N2_5 
REMARK    2  A    between atoms: C9_16  and  N6_17 
REMARK    3  A    between atoms: N6_17  and  N7_19 
ROOT
HETATM    1  N1  UNL     1      -5.514  69.675   8.987  1.00  0.00    -0.191 NA
HETATM    2  C1  UNL     1      -5.769  68.578   8.751  1.00  0.00     0.107 C 
HETATM    3  C2  UNL     1      -6.070  67.199   8.482  1.00  0.00     0.133 A 
HETATM    4  C3  UNL     1      -5.854  66.310   9.514  1.00  0.00     0.130 A 
HETATM    5  N3  UNL     1      -6.094  64.993   9.328  1.00  0.00    -0.315 N 
ATOM      6  H3  UNL     1      -5.931  64.341  10.096  1.00  0.00     0.170 HD
HETATM    7  C8  UNL     1      -6.546  64.522   8.146  1.00  0.00     0.195 A 
HETATM    8  N4  UNL     1      -6.785  63.127   8.016  1.00  0.00    -0.063 NA
HETATM    9  N5  UNL     1      -6.757  65.383   7.142  1.00  0.00    -0.314 N 
ATOM     10  H5  UNL     1      -7.098  65.028   6.249  1.00  0.00     0.170 HD
HETATM   11  C9  UNL     1      -6.526  66.733   7.281  1.00  0.00     0.146 A 
ENDROOT
BRANCH   4  12
HETATM   12  N2  UNL     1      -5.391  66.744  10.811  1.00  0.00    -0.366 N 
HETATM   13  C4  UNL     1      -4.163  67.417  11.129  1.00  0.00     0.124 C 
HETATM   14  C5  UNL     1      -4.430  68.084  12.468  1.00  0.00     0.021 C 
HETATM   15  C6  UNL     1      -5.737  67.570  12.983  1.00  0.00     0.021 C 
HETATM   16  C7  UNL     1      -6.170  66.504  12.019  1.00  0.00     0.124 C 
ENDBRANCH   4  12
BRANCH  11  17
HETATM   17  N6  UNL     1      -6.753  67.519   6.316  1.00  0.00    -0.291 N 
ATOM     18  H6  UNL     1      -6.317  68.436   6.411  1.00  0.00     0.188 HD
BRANCH  17  19
HETATM   19  N7  UNL     1      -7.475  67.358   5.175  1.00  0.00    -0.344 N 
ATOM     20  H72 UNL     1      -8.441  67.085   5.350  1.00  0.00     0.176 HD
ATOM     21  H71 UNL     1      -7.218  67.463   4.193  1.00  0.00     0.176 HD
ENDBRANCH  17  19
ENDBRANCH  11  17
TORSDOF 3
ENDMDL
