MODEL 1
REMARK VINA RESULT: -5.826496356      0.000      0.000
REMARK  3 active torsions:
REMARK  status: ('A' for Active; 'I' for Inactive)
REMARK       I    between atoms: N1_2  and  C2_4 
REMARK    1  A    between atoms: N3_6  and  C3_8 
REMARK    2  A    between atoms: C4_9  and  N4_10 
REMARK    3  A    between atoms: N4_10  and  O1_12 
ROOT
HETATM    1  C3  UNL     1      -5.753  67.911  12.635  1.00  0.00     0.148 A 
HETATM    2  C4  UNL     1      -4.874  68.958  12.491  1.00  0.00     0.166 A 
HETATM    3  C5  UNL     1      -4.403  69.703  13.570  1.00  0.00     0.281 A 
HETATM    4  O2  UNL     1      -3.597  70.659  13.423  1.00  0.00    -0.265 OA
HETATM    5  N5  UNL     1      -4.854  69.351  14.789  1.00  0.00    -0.273 N 
ATOM      6  H5  UNL     1      -4.538  69.864  15.612  1.00  0.00     0.173 HD
HETATM    7  C6  UNL     1      -5.712  68.333  14.933  1.00  0.00     0.330 A 
HETATM    8  O3  UNL     1      -6.103  68.050  16.118  1.00  0.00    -0.246 OA
HETATM    9  N6  UNL     1      -6.172  67.608  13.904  1.00  0.00    -0.287 N 
HETATM   10  C7  UNL     1      -7.107  66.510  14.125  1.00  0.00     0.163 C 
ENDROOT
BRANCH   1  11
HETATM   11  N3  UNL     1      -6.214  67.146  11.579  1.00  0.00    -0.315 N 
HETATM   12  C2  UNL     1      -5.628  66.388  10.753  1.00  0.00     0.189 C 
HETATM   13  N1  UNL     1      -6.311  65.682   9.719  1.00  0.00    -0.369 N 
HETATM   14  N2  UNL     1      -4.231  66.178  10.834  1.00  0.00    -0.064 NA
HETATM   15  C1  UNL     1      -5.711  64.593   8.981  1.00  0.00     0.148 C 
ATOM     16  H1  UNL     1      -7.266  65.958   9.489  1.00  0.00     0.161 HD
ATOM     17  H3  UNL     1      -7.223  67.205  11.438  1.00  0.00     0.170 HD
ENDBRANCH   1  11
BRANCH   2  18
HETATM   18  N4  UNL     1      -4.378  69.396  11.221  1.00  0.00    -0.260 N 
ATOM     19  H4  UNL     1      -4.841  70.167  10.740  1.00  0.00     0.194 HD
BRANCH  18  20
HETATM   20  O1  UNL     1      -3.377  68.844  10.691  1.00  0.00    -0.289 OA
ATOM     21  H1  UNL     1      -3.425  67.952  10.368  1.00  0.00     0.244 HD
ENDBRANCH  18  20
ENDBRANCH   2  18
TORSDOF 3
ENDMDL
MODEL 2
REMARK VINA RESULT: -5.781744082      1.098      1.110
REMARK  3 active torsions:
REMARK  status: ('A' for Active; 'I' for Inactive)
REMARK       I    between atoms: N1_2  and  C2_4 
REMARK    1  A    between atoms: N3_6  and  C3_8 
REMARK    2  A    between atoms: C4_9  and  N4_10 
REMARK    3  A    between atoms: N4_10  and  O1_12 
ROOT
HETATM    1  C3  UNL     1      -5.473  68.766  12.903  1.00  0.00     0.148 A 
HETATM    2  C4  UNL     1      -4.493  69.724  12.797  1.00  0.00     0.166 A 
HETATM    3  C5  UNL     1      -3.938  70.362  13.905  1.00  0.00     0.281 A 
HETATM    4  O2  UNL     1      -3.039  71.236  13.792  1.00  0.00    -0.265 OA
HETATM    5  N5  UNL     1      -4.410  69.997  15.112  1.00  0.00    -0.273 N 
ATOM      6  H5  UNL     1      -4.036  70.434  15.954  1.00  0.00     0.173 HD
HETATM    7  C6  UNL     1      -5.367  69.066  15.218  1.00  0.00     0.330 A 
HETATM    8  O3  UNL     1      -5.773  68.765  16.394  1.00  0.00    -0.246 OA
HETATM    9  N6  UNL     1      -5.909  68.444  14.162  1.00  0.00    -0.287 N 
HETATM   10  C7  UNL     1      -6.949  67.437  14.343  1.00  0.00     0.163 C 
ENDROOT
BRANCH   1  11
HETATM   11  N3  UNL     1      -6.021  68.105  11.818  1.00  0.00    -0.315 N 
HETATM   12  C2  UNL     1      -5.538  67.285  10.985  1.00  0.00     0.189 C 
HETATM   13  N1  UNL     1      -6.296  66.717   9.918  1.00  0.00    -0.369 N 
HETATM   14  N2  UNL     1      -4.192  66.860  11.089  1.00  0.00    -0.064 NA
HETATM   15  C1  UNL     1      -5.853  65.565   9.165  1.00  0.00     0.148 C 
ATOM     16  H1  UNL     1      -7.191  67.142   9.677  1.00  0.00     0.161 HD
ATOM     17  H3  UNL     1      -7.004  68.322  11.659  1.00  0.00     0.170 HD
ENDBRANCH   1  11
BRANCH   2  18
HETATM   18  N4  UNL     1      -3.966  70.171  11.543  1.00  0.00    -0.260 N 
ATOM     19  H4  UNL     1      -3.575  69.492  10.892  1.00  0.00     0.194 HD
BRANCH  18  20
HETATM   20  O1  UNL     1      -3.981  71.392  11.233  1.00  0.00    -0.289 OA
ATOM     21  H1  UNL     1      -4.647  71.742  10.652  1.00  0.00     0.244 HD
ENDBRANCH  18  20
ENDBRANCH   2  18
TORSDOF 3
ENDMDL
MODEL 3
REMARK VINA RESULT: -5.592028710      1.681      3.105
REMARK  3 active torsions:
REMARK  status: ('A' for Active; 'I' for Inactive)
REMARK       I    between atoms: N1_2  and  C2_4 
REMARK    1  A    between atoms: N3_6  and  C3_8 
REMARK    2  A    between atoms: C4_9  and  N4_10 
REMARK    3  A    between atoms: N4_10  and  O1_12 
ROOT
HETATM    1  C3  UNL     1      -5.717  68.791  12.921  1.00  0.00     0.148 A 
HETATM    2  C4  UNL     1      -6.263  68.155  14.011  1.00  0.00     0.166 A 
HETATM    3  C5  UNL     1      -5.912  68.470  15.323  1.00  0.00     0.281 A 
HETATM    4  O2  UNL     1      -6.422  67.879  16.311  1.00  0.00    -0.265 OA
HETATM    5  N5  UNL     1      -4.996  69.443  15.486  1.00  0.00    -0.273 N 
ATOM      6  H5  UNL     1      -4.707  69.711  16.427  1.00  0.00     0.173 HD
HETATM    7  C6  UNL     1      -4.461  70.063  14.427  1.00  0.00     0.330 A 
HETATM    8  O3  UNL     1      -3.595  70.978  14.650  1.00  0.00    -0.246 OA
HETATM    9  N6  UNL     1      -4.789  69.771  13.161  1.00  0.00    -0.287 N 
HETATM   10  C7  UNL     1      -4.170  70.482  12.048  1.00  0.00     0.163 C 
ENDROOT
BRANCH   1  11
HETATM   11  N3  UNL     1      -6.068  68.509  11.614  1.00  0.00    -0.315 N 
HETATM   12  C2  UNL     1      -5.630  67.672  10.773  1.00  0.00     0.189 C 
HETATM   13  N1  UNL     1      -6.147  67.550   9.449  1.00  0.00    -0.369 N 
HETATM   14  N2  UNL     1      -4.593  66.775  11.122  1.00  0.00    -0.064 NA
HETATM   15  C1  UNL     1      -5.872  66.412   8.599  1.00  0.00     0.148 C 
ATOM     16  H1  UNL     1      -6.736  68.298   9.085  1.00  0.00     0.161 HD
ATOM     17  H3  UNL     1      -6.829  69.088  11.259  1.00  0.00     0.170 HD
ENDBRANCH   1  11
BRANCH   2  18
HETATM   18  N4  UNL     1      -7.223  67.098  13.903  1.00  0.00    -0.260 N 
ATOM     19  H4  UNL     1      -8.158  67.227  14.289  1.00  0.00     0.194 HD
BRANCH  18  20
HETATM   20  O1  UNL     1      -6.929  66.012  13.337  1.00  0.00    -0.289 OA
ATOM     21  H1  UNL     1      -7.525  65.272  13.360  1.00  0.00     0.244 HD
ENDBRANCH  18  20
ENDBRANCH   2  18
TORSDOF 3
ENDMDL
MODEL 4
REMARK VINA RESULT: -5.425322689      1.089      1.108
REMARK  3 active torsions:
REMARK  status: ('A' for Active; 'I' for Inactive)
REMARK       I    between atoms: N1_2  and  C2_4 
REMARK    1  A    between atoms: N3_6  and  C3_8 
REMARK    2  A    between atoms: C4_9  and  N4_10 
REMARK    3  A    between atoms: N4_10  and  O1_12 
ROOT
HETATM    1  C3  UNL     1      -5.751  67.699  11.851  1.00  0.00     0.148 A 
HETATM    2  C4  UNL     1      -4.889  68.706  11.485  1.00  0.00     0.166 A 
HETATM    3  C5  UNL     1      -4.296  69.565  12.409  1.00  0.00     0.281 A 
HETATM    4  O2  UNL     1      -3.508  70.482  12.058  1.00  0.00    -0.265 OA
HETATM    5  N5  UNL     1      -4.606  69.367  13.704  1.00  0.00    -0.273 N 
ATOM      6  H5  UNL     1      -4.196  69.968  14.419  1.00  0.00     0.173 HD
HETATM    7  C6  UNL     1      -5.446  68.387  14.063  1.00  0.00     0.330 A 
HETATM    8  O3  UNL     1      -5.700  68.253  15.311  1.00  0.00    -0.246 OA
HETATM    9  N6  UNL     1      -6.023  67.555  13.187  1.00  0.00    -0.287 N 
HETATM   10  C7  UNL     1      -6.931  66.507  13.641  1.00  0.00     0.163 C 
ENDROOT
BRANCH   1  11
HETATM   11  N3  UNL     1      -6.333  66.823  10.952  1.00  0.00    -0.315 N 
HETATM   12  C2  UNL     1      -5.846  66.008  10.117  1.00  0.00     0.189 C 
HETATM   13  N1  UNL     1      -6.646  65.187   9.269  1.00  0.00    -0.369 N 
HETATM   14  N2  UNL     1      -4.445  65.849   9.997  1.00  0.00    -0.064 NA
HETATM   15  C1  UNL     1      -6.117  64.051   8.547  1.00  0.00     0.148 C 
ATOM     16  H1  UNL     1      -7.635  65.410   9.167  1.00  0.00     0.161 HD
ATOM     17  H3  UNL     1      -7.352  66.838  10.966  1.00  0.00     0.170 HD
ENDBRANCH   1  11
BRANCH   2  18
HETATM   18  N4  UNL     1      -4.540  68.983  10.125  1.00  0.00    -0.260 N 
ATOM     19  H4  UNL     1      -3.568  69.179   9.886  1.00  0.00     0.194 HD
BRANCH  18  20
HETATM   20  O1  UNL     1      -5.415  68.987   9.218  1.00  0.00    -0.289 OA
ATOM     21  H1  UNL     1      -5.244  69.392   8.376  1.00  0.00     0.244 HD
ENDBRANCH  18  20
ENDBRANCH   2  18
TORSDOF 3
ENDMDL
MODEL 5
REMARK VINA RESULT: -5.261489101      2.039      4.881
REMARK  3 active torsions:
REMARK  status: ('A' for Active; 'I' for Inactive)
REMARK       I    between atoms: N1_2  and  C2_4 
REMARK    1  A    between atoms: N3_6  and  C3_8 
REMARK    2  A    between atoms: C4_9  and  N4_10 
REMARK    3  A    between atoms: N4_10  and  O1_12 
ROOT
HETATM    1  C3  UNL     1      -4.950  69.172  13.497  1.00  0.00     0.148 A 
HETATM    2  C4  UNL     1      -4.632  69.039  12.166  1.00  0.00     0.166 A 
HETATM    3  C5  UNL     1      -5.073  67.969  11.388  1.00  0.00     0.281 A 
HETATM    4  O2  UNL     1      -4.776  67.862  10.170  1.00  0.00    -0.265 OA
HETATM    5  N5  UNL     1      -5.840  67.050  12.005  1.00  0.00    -0.273 N 
ATOM      6  H5  UNL     1      -6.189  66.249  11.479  1.00  0.00     0.173 HD
HETATM    7  C6  UNL     1      -6.149  67.176  13.302  1.00  0.00     0.330 A 
HETATM    8  O3  UNL     1      -6.880  66.267  13.828  1.00  0.00    -0.246 OA
HETATM    9  N6  UNL     1      -5.732  68.198  14.061  1.00  0.00    -0.287 N 
HETATM   10  C7  UNL     1      -6.103  68.280  15.470  1.00  0.00     0.163 C 
ENDROOT
BRANCH   1  11
HETATM   11  N3  UNL     1      -4.540  70.236  14.280  1.00  0.00    -0.315 N 
HETATM   12  C2  UNL     1      -4.993  71.407  14.434  1.00  0.00     0.189 C 
HETATM   13  N1  UNL     1      -4.400  72.365  15.309  1.00  0.00    -0.369 N 
HETATM   14  N2  UNL     1      -6.157  71.827  13.747  1.00  0.00    -0.064 NA
HETATM   15  C1  UNL     1      -5.075  73.576  15.723  1.00  0.00     0.148 C 
ATOM     16  H1  UNL     1      -3.459  72.189  15.659  1.00  0.00     0.161 HD
ATOM     17  H3  UNL     1      -3.712  70.039  14.841  1.00  0.00     0.170 HD
ENDBRANCH   1  11
BRANCH   2  18
HETATM   18  N4  UNL     1      -3.803  69.968  11.460  1.00  0.00    -0.260 N 
ATOM     19  H4  UNL     1      -2.955  69.637  11.001  1.00  0.00     0.194 HD
BRANCH  18  20
HETATM   20  O1  UNL     1      -4.106  71.189  11.398  1.00  0.00    -0.289 OA
ATOM     21  H1  UNL     1      -4.460  71.565  10.600  1.00  0.00     0.244 HD
ENDBRANCH  18  20
ENDBRANCH   2  18
TORSDOF 3
ENDMDL
