MODEL 1
REMARK VINA RESULT: -6.890150122      0.000      0.000
REMARK  2 active torsions:
REMARK  status: ('A' for Active; 'I' for Inactive)
REMARK    1  A    between atoms: C6_10  and  N2_11 
REMARK    2  A    between atoms: C7_18  and  N6_19 
ROOT
HETATM    1  N2  UNL     1      -4.420  67.770   9.969  1.00  0.00    -0.069 N 
HETATM    2  N3  UNL     1      -4.890  68.888  10.565  1.00  0.00    -0.206 N 
ATOM      3  H3  UNL     1      -5.820  69.276  10.400  1.00  0.00     0.211 HD
HETATM    4  N4  UNL     1      -4.014  69.412  11.372  1.00  0.00    -0.213 N 
ATOM      5  H4  UNL     1      -4.142  70.255  11.931  1.00  0.00     0.210 HD
HETATM    6  N5  UNL     1      -2.946  68.671  11.341  1.00  0.00    -0.115 N 
ATOM      7  H5  UNL     1      -2.085  68.819  11.866  1.00  0.00     0.207 HD
HETATM    8  C7  UNL     1      -3.212  67.633  10.446  1.00  0.00     0.714 A 
ENDROOT
BRANCH   1   9
HETATM    9  C6  UNL     1      -5.184  67.135   8.975  1.00  0.00     0.094 A 
HETATM   10  C2  UNL     1      -5.637  65.783   8.963  1.00  0.00     0.022 A 
HETATM   11  C1  UNL     1      -5.420  64.956   9.984  1.00  0.00     0.029 C 
HETATM   12  C3  UNL     1      -6.499  65.202   7.897  1.00  0.00     0.115 A 
HETATM   13  S1  UNL     1      -6.960  63.650   7.955  1.00  0.00    -0.059 SA
HETATM   14  N1  UNL     1      -6.894  66.044   6.846  1.00  0.00    -0.314 N 
HETATM   15  C4  UNL     1      -6.429  67.383   6.899  1.00  0.00     0.248 A 
ATOM     16  H1  UNL     1      -7.483  65.711   6.083  1.00  0.00     0.170 HD
HETATM   17  O1  UNL     1      -6.769  68.174   5.966  1.00  0.00    -0.268 OA
HETATM   18  C5  UNL     1      -5.601  67.918   7.926  1.00  0.00     0.107 A 
ENDBRANCH   1   9
BRANCH   8  19
HETATM   19  N6  UNL     1      -2.248  66.830  10.167  1.00  0.00    -0.231 N 
ATOM     20  H62 UNL     1      -1.808  66.923   9.252  1.00  0.00     0.174 HD
ATOM     21  H61 UNL     1      -1.860  66.019  10.650  1.00  0.00     0.174 HD
ENDBRANCH   8  19
TORSDOF 2
ENDMDL
MODEL 2
REMARK VINA RESULT: -6.643584380      0.930      1.530
REMARK  2 active torsions:
REMARK  status: ('A' for Active; 'I' for Inactive)
REMARK    1  A    between atoms: C6_10  and  N2_11 
REMARK    2  A    between atoms: C7_18  and  N6_19 
ROOT
HETATM    1  N2  UNL     1      -4.847  67.980  10.251  1.00  0.00    -0.069 N 
HETATM    2  N3  UNL     1      -3.512  68.192  10.244  1.00  0.00    -0.206 N 
ATOM      3  H3  UNL     1      -2.900  67.952   9.464  1.00  0.00     0.211 HD
HETATM    4  N4  UNL     1      -3.103  68.738  11.353  1.00  0.00    -0.213 N 
ATOM      5  H4  UNL     1      -2.141  68.991  11.577  1.00  0.00     0.210 HD
HETATM    6  N5  UNL     1      -4.136  68.904  12.123  1.00  0.00    -0.115 N 
ATOM      7  H5  UNL     1      -4.141  69.310  13.059  1.00  0.00     0.207 HD
HETATM    8  C7  UNL     1      -5.238  68.418  11.418  1.00  0.00     0.714 A 
ENDROOT
BRANCH   1   9
HETATM    9  C6  UNL     1      -5.449  67.289   9.185  1.00  0.00     0.094 A 
HETATM   10  C2  UNL     1      -5.813  65.911   9.144  1.00  0.00     0.022 A 
HETATM   11  C1  UNL     1      -5.666  65.109  10.198  1.00  0.00     0.029 C 
HETATM   12  C3  UNL     1      -6.507  65.266   7.996  1.00  0.00     0.115 A 
HETATM   13  S1  UNL     1      -6.875  63.689   8.026  1.00  0.00    -0.059 SA
HETATM   14  N1  UNL     1      -6.827  66.071   6.891  1.00  0.00    -0.314 N 
HETATM   15  C4  UNL     1      -6.455  67.437   6.975  1.00  0.00     0.248 A 
ATOM     16  H1  UNL     1      -7.302  65.694   6.071  1.00  0.00     0.170 HD
HETATM   17  O1  UNL     1      -6.732  68.195   5.995  1.00  0.00    -0.268 OA
HETATM   18  C5  UNL     1      -5.788  68.034   8.082  1.00  0.00     0.107 A 
ENDBRANCH   1   9
BRANCH   8  19
HETATM   19  N6  UNL     1      -6.365  68.377  12.034  1.00  0.00    -0.231 N 
ATOM     20  H62 UNL     1      -7.206  68.257  11.469  1.00  0.00     0.174 HD
ATOM     21  H61 UNL     1      -6.630  68.532  13.007  1.00  0.00     0.174 HD
ENDBRANCH   8  19
TORSDOF 2
ENDMDL
MODEL 3
REMARK VINA RESULT: -6.630982163      4.326      5.695
REMARK  2 active torsions:
REMARK  status: ('A' for Active; 'I' for Inactive)
REMARK    1  A    between atoms: C6_10  and  N2_11 
REMARK    2  A    between atoms: C7_18  and  N6_19 
ROOT
HETATM    1  N2  UNL     1      -4.502  67.987  10.556  1.00  0.00    -0.069 N 
HETATM    2  N3  UNL     1      -3.181  67.892  10.288  1.00  0.00    -0.206 N 
ATOM      3  H3  UNL     1      -2.454  67.851  11.003  1.00  0.00     0.211 HD
HETATM    4  N4  UNL     1      -2.948  67.861   9.008  1.00  0.00    -0.213 N 
ATOM      5  H4  UNL     1      -2.031  67.791   8.567  1.00  0.00     0.210 HD
HETATM    6  N5  UNL     1      -4.089  67.934   8.390  1.00  0.00    -0.115 N 
ATOM      7  H5  UNL     1      -4.238  67.932   7.381  1.00  0.00     0.207 HD
HETATM    8  C7  UNL     1      -5.070  68.017   9.380  1.00  0.00     0.714 A 
ENDROOT
BRANCH   1   9
HETATM    9  C6  UNL     1      -4.934  68.153  11.883  1.00  0.00     0.094 A 
HETATM   10  C2  UNL     1      -4.697  69.271  12.736  1.00  0.00     0.022 A 
HETATM   11  C1  UNL     1      -4.057  70.360  12.313  1.00  0.00     0.029 C 
HETATM   12  C3  UNL     1      -5.244  69.399  14.115  1.00  0.00     0.115 A 
HETATM   13  S1  UNL     1      -4.916  70.700  15.023  1.00  0.00    -0.059 SA
HETATM   14  N1  UNL     1      -6.050  68.354  14.596  1.00  0.00    -0.314 N 
HETATM   15  C4  UNL     1      -6.268  67.266  13.714  1.00  0.00     0.248 A 
ATOM     16  H1  UNL     1      -6.457  68.377  15.531  1.00  0.00     0.170 HD
HETATM   17  O1  UNL     1      -6.994  66.305  14.116  1.00  0.00    -0.268 OA
HETATM   18  C5  UNL     1      -5.731  67.161  12.400  1.00  0.00     0.107 A 
ENDBRANCH   1   9
BRANCH   8  19
HETATM   19  N6  UNL     1      -6.282  68.212   8.999  1.00  0.00    -0.231 N 
ATOM     20  H62 UNL     1      -6.438  68.901   8.264  1.00  0.00     0.174 HD
ATOM     21  H61 UNL     1      -7.180  67.875   9.345  1.00  0.00     0.174 HD
ENDBRANCH   8  19
TORSDOF 2
ENDMDL
MODEL 4
REMARK VINA RESULT: -6.593704643      4.044      5.384
REMARK  2 active torsions:
REMARK  status: ('A' for Active; 'I' for Inactive)
REMARK    1  A    between atoms: C6_10  and  N2_11 
REMARK    2  A    between atoms: C7_18  and  N6_19 
ROOT
HETATM    1  N2  UNL     1      -4.397  68.092  10.585  1.00  0.00    -0.069 N 
HETATM    2  N3  UNL     1      -3.086  67.980  10.276  1.00  0.00    -0.206 N 
ATOM      3  H3  UNL     1      -2.333  68.004  10.963  1.00  0.00     0.211 HD
HETATM    4  N4  UNL     1      -2.901  67.839   8.995  1.00  0.00    -0.213 N 
ATOM      5  H4  UNL     1      -2.001  67.735   8.527  1.00  0.00     0.210 HD
HETATM    6  N5  UNL     1      -4.066  67.854   8.417  1.00  0.00    -0.115 N 
ATOM      7  H5  UNL     1      -4.253  67.763   7.418  1.00  0.00     0.207 HD
HETATM    8  C7  UNL     1      -5.009  68.018   9.432  1.00  0.00     0.714 A 
ENDROOT
BRANCH   1   9
HETATM    9  C6  UNL     1      -4.781  68.370  11.908  1.00  0.00     0.094 A 
HETATM   10  C2  UNL     1      -5.692  67.631  12.717  1.00  0.00     0.022 A 
HETATM   11  C1  UNL     1      -6.257  66.501  12.296  1.00  0.00     0.029 C 
HETATM   12  C3  UNL     1      -5.999  67.957  14.138  1.00  0.00     0.115 A 
HETATM   13  S1  UNL     1      -7.057  67.070  14.985  1.00  0.00    -0.059 SA
HETATM   14  N1  UNL     1      -5.341  69.057  14.711  1.00  0.00    -0.314 N 
HETATM   15  C4  UNL     1      -4.437  69.760  13.875  1.00  0.00     0.248 A 
ATOM     16  H1  UNL     1      -5.504  69.336  15.679  1.00  0.00     0.170 HD
HETATM   17  O1  UNL     1      -3.822  70.758  14.362  1.00  0.00    -0.268 OA
HETATM   18  C5  UNL     1      -4.161  69.434  12.517  1.00  0.00     0.107 A 
ENDBRANCH   1   9
BRANCH   8  19
HETATM   19  N6  UNL     1      -6.236  68.173   9.083  1.00  0.00    -0.231 N 
ATOM     20  H62 UNL     1      -6.647  67.459   8.482  1.00  0.00     0.174 HD
ATOM     21  H61 UNL     1      -6.901  68.936   9.207  1.00  0.00     0.174 HD
ENDBRANCH   8  19
TORSDOF 2
ENDMDL
MODEL 5
REMARK VINA RESULT: -6.439423214      4.000      5.201
REMARK  2 active torsions:
REMARK  status: ('A' for Active; 'I' for Inactive)
REMARK    1  A    between atoms: C6_10  and  N2_11 
REMARK    2  A    between atoms: C7_18  and  N6_19 
ROOT
HETATM    1  N2  UNL     1      -4.192  68.206  10.653  1.00  0.00    -0.069 N 
HETATM    2  N3  UNL     1      -4.905  68.685   9.610  1.00  0.00    -0.206 N 
ATOM      3  H3  UNL     1      -5.749  69.251   9.706  1.00  0.00     0.211 HD
HETATM    4  N4  UNL     1      -4.386  68.338   8.468  1.00  0.00    -0.213 N 
ATOM      5  H4  UNL     1      -4.747  68.582   7.546  1.00  0.00     0.210 HD
HETATM    6  N5  UNL     1      -3.326  67.625   8.709  1.00  0.00    -0.115 N 
ATOM      7  H5  UNL     1      -2.701  67.208   8.019  1.00  0.00     0.207 HD
HETATM    8  C7  UNL     1      -3.213  67.543  10.098  1.00  0.00     0.714 A 
ENDROOT
BRANCH   1   9
HETATM    9  C6  UNL     1      -4.670  68.380  11.963  1.00  0.00     0.094 A 
HETATM   10  C2  UNL     1      -5.639  67.585  12.642  1.00  0.00     0.022 A 
HETATM   11  C1  UNL     1      -6.173  66.496  12.091  1.00  0.00     0.029 C 
HETATM   12  C3  UNL     1      -6.048  67.798  14.059  1.00  0.00     0.115 A 
HETATM   13  S1  UNL     1      -7.166  66.854  14.752  1.00  0.00    -0.059 SA
HETATM   14  N1  UNL     1      -5.432  68.843  14.765  1.00  0.00    -0.314 N 
HETATM   15  C4  UNL     1      -4.469  69.604  14.055  1.00  0.00     0.248 A 
ATOM     16  H1  UNL     1      -5.665  69.044  15.737  1.00  0.00     0.170 HD
HETATM   17  O1  UNL     1      -3.889  70.556  14.664  1.00  0.00    -0.268 OA
HETATM   18  C5  UNL     1      -4.095  69.386  12.699  1.00  0.00     0.107 A 
ENDBRANCH   1   9
BRANCH   8  19
HETATM   19  N6  UNL     1      -2.290  66.785  10.574  1.00  0.00    -0.231 N 
ATOM     20  H62 UNL     1      -1.476  66.609   9.984  1.00  0.00     0.174 HD
ATOM     21  H61 UNL     1      -2.225  66.221  11.420  1.00  0.00     0.174 HD
ENDBRANCH   8  19
TORSDOF 2
ENDMDL
