MODEL 1
REMARK VINA RESULT: -7.674289054      0.000      0.000
REMARK  11 active torsions:
REMARK  status: ('A' for Active; 'I' for Inactive)
REMARK    1  A    between atoms: C2_2  and  C3_3 
REMARK    2  A    between atoms: C4_4  and  C5_5 
REMARK    3  A    between atoms: C4_4  and  C28_36 
REMARK    4  A    between atoms: C5_5  and  O2_7 
REMARK    5  A    between atoms: O2_7  and  C6_8 
REMARK    6  A    between atoms: C16_18  and  O3_19 
REMARK    7  A    between atoms: C19_23  and  O4_24 
REMARK    8  A    between atoms: C20_26  and  O5_28 
REMARK    9  A    between atoms: O5_28  and  C22_29 
REMARK   10  A    between atoms: C22_29  and  C23_31 
REMARK   11  A    between atoms: C23_31  and  C24_32 
ROOT
HETATM    1  C6  UNL     1      10.407  25.060   4.462  1.00  0.00     0.190 C 
HETATM    2  C7  UNL     1      11.378  25.835   3.694  1.00  0.00    -0.056 C 
HETATM    3  C8  UNL     1      12.629  26.297   4.489  1.00  0.00     0.046 C 
HETATM    4  C9  UNL     1      11.405  26.247   2.440  1.00  0.00    -0.022 C 
HETATM    5  C10 UNL     1      10.382  26.040   1.344  1.00  0.00     0.028 C 
HETATM    6  C11 UNL     1       9.117  26.205   2.015  1.00  0.00     0.009 C 
HETATM    7  C12 UNL     1       7.833  26.786   1.813  1.00  0.00    -0.003 C 
HETATM    8  C13 UNL     1       6.923  25.755   1.142  1.00  0.00    -0.012 C 
HETATM    9  C14 UNL     1       5.591  26.342   0.783  1.00  0.00     0.010 C 
HETATM   10  C15 UNL     1       6.832  24.466   1.880  1.00  0.00     0.037 C 
HETATM   11  C16 UNL     1       6.660  24.563   3.379  1.00  0.00     0.123 C 
HETATM   12  C17 UNL     1       6.973  25.819   4.013  1.00  0.00     0.031 C 
HETATM   13  C18 UNL     1       8.049  26.200   4.929  1.00  0.00     0.059 C 
HETATM   14  C19 UNL     1       9.305  25.620   5.262  1.00  0.00     0.159 C 
HETATM   15  C20 UNL     1       7.755  27.569   4.355  1.00  0.00     0.078 C 
HETATM   16  C21 UNL     1       8.747  28.649   4.450  1.00  0.00     0.047 C 
HETATM   17  C27 UNL     1       7.158  27.059   3.114  1.00  0.00     0.032 C 
ENDROOT
BRANCH   1  18
HETATM   18  O2  UNL     1      11.242  24.399   5.475  1.00  0.00    -0.305 OA
BRANCH  18  19
HETATM   19  C5  UNL     1      11.653  23.116   5.432  1.00  0.00     0.290 C 
HETATM   20  O1  UNL     1      10.913  22.223   5.915  1.00  0.00    -0.260 OA
BRANCH  19  21
HETATM   21  C4  UNL     1      12.956  22.757   4.826  1.00  0.00     0.020 C 
HETATM   22  C3  UNL     1      13.040  22.578   3.533  1.00  0.00     0.013 C 
BRANCH  22  23
HETATM   23  C2  UNL     1      14.179  22.231   2.742  1.00  0.00    -0.010 C 
HETATM   24  C1  UNL     1      14.346  21.006   2.295  1.00  0.00     0.011 C 
ENDBRANCH  22  23
BRANCH  21  25
HETATM   25  C28 UNL     1      14.151  22.603   5.679  1.00  0.00     0.016 C 
HETATM   26  C29 UNL     1      14.119  23.559   6.860  1.00  0.00     0.015 C 
HETATM   27  C30 UNL     1      14.127  21.186   6.220  1.00  0.00     0.015 C 
ENDBRANCH  21  25
ENDBRANCH  19  21
ENDBRANCH  18  19
ENDBRANCH   1  18
BRANCH  14  28
HETATM   28  O4  UNL     1       9.019  24.494   6.119  1.00  0.00    -0.392 OA
ATOM     29  H4  UNL     1       8.335  24.869   6.661  1.00  0.00     0.210 HD
ENDBRANCH  14  28
BRANCH  15  30
HETATM   30  O5  UNL     1       6.603  28.192   5.031  1.00  0.00    -0.310 OA
BRANCH  30  31
HETATM   31  C22 UNL     1       6.678  28.719   6.277  1.00  0.00     0.259 C 
HETATM   32  O6  UNL     1       6.446  29.912   6.477  1.00  0.00    -0.265 OA
BRANCH  31  33
HETATM   33  C23 UNL     1       7.043  27.851   7.429  1.00  0.00     0.115 C 
BRANCH  33  34
HETATM   34  C24 UNL     1       8.336  28.286   8.039  1.00  0.00    -0.013 C 
HETATM   35  C25 UNL     1       8.001  29.200   9.219  1.00  0.00     0.010 C 
HETATM   36  C26 UNL     1       9.069  27.082   8.584  1.00  0.00     0.010 C 
ENDBRANCH  33  34
ENDBRANCH  31  33
ENDBRANCH  30  31
ENDBRANCH  15  30
BRANCH  11  37
HETATM   37  O3  UNL     1       7.336  23.489   4.024  1.00  0.00    -0.395 OA
ATOM     38  H3  UNL     1       7.067  22.659   3.648  1.00  0.00     0.210 HD
ENDBRANCH  11  37
TORSDOF 11
ENDMDL
MODEL 2
REMARK VINA RESULT: -7.452679471      7.475     12.619
REMARK  11 active torsions:
REMARK  status: ('A' for Active; 'I' for Inactive)
REMARK    1  A    between atoms: C2_2  and  C3_3 
REMARK    2  A    between atoms: C4_4  and  C5_5 
REMARK    3  A    between atoms: C4_4  and  C28_36 
REMARK    4  A    between atoms: C5_5  and  O2_7 
REMARK    5  A    between atoms: O2_7  and  C6_8 
REMARK    6  A    between atoms: C16_18  and  O3_19 
REMARK    7  A    between atoms: C19_23  and  O4_24 
REMARK    8  A    between atoms: C20_26  and  O5_28 
REMARK    9  A    between atoms: O5_28  and  C22_29 
REMARK   10  A    between atoms: C22_29  and  C23_31 
REMARK   11  A    between atoms: C23_31  and  C24_32 
ROOT
HETATM    1  C6  UNL     1      17.786  20.622   7.127  1.00  0.00     0.190 C 
HETATM    2  C7  UNL     1      16.899  21.649   7.666  1.00  0.00    -0.056 C 
HETATM    3  C8  UNL     1      16.927  23.005   6.911  1.00  0.00     0.046 C 
HETATM    4  C9  UNL     1      16.071  21.669   8.694  1.00  0.00    -0.022 C 
HETATM    5  C10 UNL     1      15.767  20.577   9.698  1.00  0.00     0.028 C 
HETATM    6  C11 UNL     1      17.052  19.978   9.958  1.00  0.00     0.009 C 
HETATM    7  C12 UNL     1      17.825  19.458  11.035  1.00  0.00    -0.003 C 
HETATM    8  C13 UNL     1      17.511  17.968  11.193  1.00  0.00    -0.012 C 
HETATM    9  C14 UNL     1      18.195  17.382  12.392  1.00  0.00     0.010 C 
HETATM   10  C15 UNL     1      17.706  17.179   9.946  1.00  0.00     0.037 C 
HETATM   11  C16 UNL     1      18.965  17.469   9.160  1.00  0.00     0.123 C 
HETATM   12  C17 UNL     1      19.665  18.697   9.439  1.00  0.00     0.031 C 
HETATM   13  C18 UNL     1      19.859  19.904   8.635  1.00  0.00     0.059 C 
HETATM   14  C19 UNL     1      19.202  20.437   7.491  1.00  0.00     0.159 C 
HETATM   15  C20 UNL     1      20.034  20.523  10.005  1.00  0.00     0.078 C 
HETATM   16  C21 UNL     1      19.882  21.972  10.196  1.00  0.00     0.047 C 
HETATM   17  C27 UNL     1      19.280  19.480  10.710  1.00  0.00     0.032 C 
ENDROOT
BRANCH   1  18
HETATM   18  O2  UNL     1      17.857  20.963   5.700  1.00  0.00    -0.305 OA
BRANCH  18  19
HETATM   19  C5  UNL     1      17.291  20.260   4.699  1.00  0.00     0.290 C 
HETATM   20  O1  UNL     1      18.001  19.459   4.042  1.00  0.00    -0.260 OA
BRANCH  19  21
HETATM   21  C4  UNL     1      15.856  20.423   4.375  1.00  0.00     0.020 C 
HETATM   22  C3  UNL     1      15.360  21.624   4.223  1.00  0.00     0.013 C 
BRANCH  22  23
HETATM   23  C2  UNL     1      14.020  22.014   3.912  1.00  0.00    -0.010 C 
HETATM   24  C1  UNL     1      13.665  22.292   2.677  1.00  0.00     0.011 C 
ENDBRANCH  22  23
BRANCH  21  25
HETATM   25  C28 UNL     1      14.992  19.235   4.224  1.00  0.00     0.016 C 
HETATM   26  C29 UNL     1      14.799  18.868   2.762  1.00  0.00     0.015 C 
HETATM   27  C30 UNL     1      15.706  18.083   4.907  1.00  0.00     0.015 C 
ENDBRANCH  21  25
ENDBRANCH  19  21
ENDBRANCH  18  19
ENDBRANCH   1  18
BRANCH  14  28
HETATM   28  O4  UNL     1      19.650  19.655   6.363  1.00  0.00    -0.392 OA
ATOM     29  H4  UNL     1      20.440  19.276   6.729  1.00  0.00     0.210 HD
ENDBRANCH  14  28
BRANCH  15  30
HETATM   30  O5  UNL     1      21.405  20.321  10.507  1.00  0.00    -0.310 OA
BRANCH  30  31
HETATM   31  C22 UNL     1      21.903  20.985  11.577  1.00  0.00     0.259 C 
HETATM   32  O6  UNL     1      22.418  22.096  11.453  1.00  0.00    -0.265 OA
BRANCH  31  33
HETATM   33  C23 UNL     1      21.830  20.370  12.931  1.00  0.00     0.115 C 
BRANCH  33  34
HETATM   34  C24 UNL     1      20.758  21.008  13.752  1.00  0.00    -0.013 C 
HETATM   35  C25 UNL     1      19.964  19.884  14.421  1.00  0.00     0.010 C 
HETATM   36  C26 UNL     1      21.385  21.841  14.846  1.00  0.00     0.010 C 
ENDBRANCH  33  34
ENDBRANCH  31  33
ENDBRANCH  30  31
ENDBRANCH  15  30
BRANCH  11  37
HETATM   37  O3  UNL     1      18.717  17.332   7.765  1.00  0.00    -0.395 OA
ATOM     38  H3  UNL     1      17.993  17.889   7.504  1.00  0.00     0.210 HD
ENDBRANCH  11  37
TORSDOF 11
ENDMDL
MODEL 3
REMARK VINA RESULT: -7.429705829      7.593     12.509
REMARK  11 active torsions:
REMARK  status: ('A' for Active; 'I' for Inactive)
REMARK    1  A    between atoms: C2_2  and  C3_3 
REMARK    2  A    between atoms: C4_4  and  C5_5 
REMARK    3  A    between atoms: C4_4  and  C28_36 
REMARK    4  A    between atoms: C5_5  and  O2_7 
REMARK    5  A    between atoms: O2_7  and  C6_8 
REMARK    6  A    between atoms: C16_18  and  O3_19 
REMARK    7  A    between atoms: C19_23  and  O4_24 
REMARK    8  A    between atoms: C20_26  and  O5_28 
REMARK    9  A    between atoms: O5_28  and  C22_29 
REMARK   10  A    between atoms: C22_29  and  C23_31 
REMARK   11  A    between atoms: C23_31  and  C24_32 
ROOT
HETATM    1  C6  UNL     1      17.725  20.605   6.811  1.00  0.00     0.190 C 
HETATM    2  C7  UNL     1      16.702  21.556   7.237  1.00  0.00    -0.056 C 
HETATM    3  C8  UNL     1      16.580  22.829   6.359  1.00  0.00     0.046 C 
HETATM    4  C9  UNL     1      15.851  21.564   8.247  1.00  0.00    -0.022 C 
HETATM    5  C10 UNL     1      15.660  20.538   9.344  1.00  0.00     0.028 C 
HETATM    6  C11 UNL     1      17.002  20.134   9.679  1.00  0.00     0.009 C 
HETATM    7  C12 UNL     1      17.805  19.817  10.811  1.00  0.00    -0.003 C 
HETATM    8  C13 UNL     1      17.676  18.320  11.104  1.00  0.00    -0.012 C 
HETATM    9  C14 UNL     1      18.395  17.938  12.363  1.00  0.00     0.010 C 
HETATM   10  C15 UNL     1      18.001  17.451   9.939  1.00  0.00     0.037 C 
HETATM   11  C16 UNL     1      19.234  17.826   9.148  1.00  0.00     0.123 C 
HETATM   12  C17 UNL     1      19.768  19.154   9.321  1.00  0.00     0.031 C 
HETATM   13  C18 UNL     1      19.830  20.297   8.410  1.00  0.00     0.059 C 
HETATM   14  C19 UNL     1      19.142  20.636   7.211  1.00  0.00     0.159 C 
HETATM   15  C20 UNL     1      19.890  21.056   9.719  1.00  0.00     0.078 C 
HETATM   16  C21 UNL     1      19.553  22.485   9.771  1.00  0.00     0.047 C 
HETATM   17  C27 UNL     1      19.253  19.994  10.508  1.00  0.00     0.032 C 
ENDROOT
BRANCH   1  18
HETATM   18  O2  UNL     1      17.791  20.821   5.360  1.00  0.00    -0.305 OA
BRANCH  18  19
HETATM   19  C5  UNL     1      17.394  19.940   4.419  1.00  0.00     0.290 C 
HETATM   20  O1  UNL     1      18.214  19.087   3.999  1.00  0.00    -0.260 OA
BRANCH  19  21
HETATM   21  C4  UNL     1      16.013  19.971   3.886  1.00  0.00     0.020 C 
HETATM   22  C3  UNL     1      15.691  20.853   2.976  1.00  0.00     0.013 C 
BRANCH  22  23
HETATM   23  C2  UNL     1      14.434  21.064   2.327  1.00  0.00    -0.010 C 
HETATM   24  C1  UNL     1      13.725  22.146   2.558  1.00  0.00     0.011 C 
ENDBRANCH  22  23
BRANCH  21  25
HETATM   25  C28 UNL     1      15.007  19.010   4.381  1.00  0.00     0.016 C 
HETATM   26  C29 UNL     1      15.655  17.719   4.852  1.00  0.00     0.015 C 
HETATM   27  C30 UNL     1      14.329  19.658   5.575  1.00  0.00     0.015 C 
ENDBRANCH  21  25
ENDBRANCH  19  21
ENDBRANCH  18  19
ENDBRANCH   1  18
BRANCH  14  28
HETATM   28  O4  UNL     1      19.715  19.817   6.169  1.00  0.00    -0.392 OA
ATOM     29  H4  UNL     1      20.371  20.416   5.832  1.00  0.00     0.210 HD
ENDBRANCH  14  28
BRANCH  15  30
HETATM   30  O5  UNL     1      21.261  21.076  10.258  1.00  0.00    -0.310 OA
BRANCH  30  31
HETATM   31  C22 UNL     1      21.698  22.020  11.126  1.00  0.00     0.259 C 
HETATM   32  O6  UNL     1      21.966  23.159  10.744  1.00  0.00    -0.265 OA
BRANCH  31  33
HETATM   33  C23 UNL     1      21.859  21.685  12.567  1.00  0.00     0.115 C 
BRANCH  33  34
HETATM   34  C24 UNL     1      22.716  22.694  13.259  1.00  0.00    -0.013 C 
HETATM   35  C25 UNL     1      22.169  22.862  14.679  1.00  0.00     0.010 C 
HETATM   36  C26 UNL     1      24.128  22.169  13.371  1.00  0.00     0.010 C 
ENDBRANCH  33  34
ENDBRANCH  31  33
ENDBRANCH  30  31
ENDBRANCH  15  30
BRANCH  11  37
HETATM   37  O3  UNL     1      19.043  17.532   7.769  1.00  0.00    -0.395 OA
ATOM     38  H3  UNL     1      19.631  16.837   7.497  1.00  0.00     0.210 HD
ENDBRANCH  11  37
TORSDOF 11
ENDMDL
MODEL 4
REMARK VINA RESULT: -7.326401836      9.201     13.344
REMARK  11 active torsions:
REMARK  status: ('A' for Active; 'I' for Inactive)
REMARK    1  A    between atoms: C2_2  and  C3_3 
REMARK    2  A    between atoms: C4_4  and  C5_5 
REMARK    3  A    between atoms: C4_4  and  C28_36 
REMARK    4  A    between atoms: C5_5  and  O2_7 
REMARK    5  A    between atoms: O2_7  and  C6_8 
REMARK    6  A    between atoms: C16_18  and  O3_19 
REMARK    7  A    between atoms: C19_23  and  O4_24 
REMARK    8  A    between atoms: C20_26  and  O5_28 
REMARK    9  A    between atoms: O5_28  and  C22_29 
REMARK   10  A    between atoms: C22_29  and  C23_31 
REMARK   11  A    between atoms: C23_31  and  C24_32 
ROOT
HETATM    1  C6  UNL     1      18.259  19.218   7.635  1.00  0.00     0.190 C 
HETATM    2  C7  UNL     1      17.268  20.292   7.618  1.00  0.00    -0.056 C 
HETATM    3  C8  UNL     1      17.267  21.165   6.335  1.00  0.00     0.046 C 
HETATM    4  C9  UNL     1      16.364  20.690   8.493  1.00  0.00    -0.022 C 
HETATM    5  C10 UNL     1      16.054  20.136   9.867  1.00  0.00     0.028 C 
HETATM    6  C11 UNL     1      17.351  19.837  10.421  1.00  0.00     0.009 C 
HETATM    7  C12 UNL     1      18.070  19.924  11.647  1.00  0.00    -0.003 C 
HETATM    8  C13 UNL     1      17.841  18.639  12.446  1.00  0.00    -0.012 C 
HETATM    9  C14 UNL     1      18.467  18.713  13.806  1.00  0.00     0.010 C 
HETATM   10  C15 UNL     1      18.183  17.399  11.696  1.00  0.00     0.037 C 
HETATM   11  C16 UNL     1      19.477  17.423  10.914  1.00  0.00     0.123 C 
HETATM   12  C17 UNL     1      20.073  18.706  10.639  1.00  0.00     0.031 C 
HETATM   13  C18 UNL     1      20.250  19.441   9.386  1.00  0.00     0.059 C 
HETATM   14  C19 UNL     1      19.651  19.346   8.099  1.00  0.00     0.159 C 
HETATM   15  C20 UNL     1      20.279  20.619  10.338  1.00  0.00     0.078 C 
HETATM   16  C21 UNL     1      20.020  21.981   9.850  1.00  0.00     0.047 C 
HETATM   17  C27 UNL     1      19.541  19.934  11.406  1.00  0.00     0.032 C 
ENDROOT
BRANCH   1  18
HETATM   18  O2  UNL     1      18.418  18.894   6.211  1.00  0.00    -0.305 OA
BRANCH  18  19
HETATM   19  C5  UNL     1      17.887  17.823   5.589  1.00  0.00     0.290 C 
HETATM   20  O1  UNL     1      18.077  16.681   6.075  1.00  0.00    -0.260 OA
BRANCH  19  21
HETATM   21  C4  UNL     1      17.088  17.983   4.353  1.00  0.00     0.020 C 
HETATM   22  C3  UNL     1      15.857  18.417   4.430  1.00  0.00     0.013 C 
BRANCH  22  23
HETATM   23  C2  UNL     1      14.913  18.646   3.380  1.00  0.00    -0.010 C 
HETATM   24  C1  UNL     1      14.620  19.865   2.986  1.00  0.00     0.011 C 
ENDBRANCH  22  23
BRANCH  21  25
HETATM   25  C28 UNL     1      17.682  17.653   3.041  1.00  0.00     0.016 C 
HETATM   26  C29 UNL     1      17.913  18.900   2.205  1.00  0.00     0.015 C 
HETATM   27  C30 UNL     1      19.031  17.015   3.317  1.00  0.00     0.015 C 
ENDBRANCH  21  25
ENDBRANCH  19  21
ENDBRANCH  18  19
ENDBRANCH   1  18
BRANCH  14  28
HETATM   28  O4  UNL     1      20.235  18.189   7.463  1.00  0.00    -0.392 OA
ATOM     29  H4  UNL     1      20.610  17.756   8.221  1.00  0.00     0.210 HD
ENDBRANCH  14  28
BRANCH  15  30
HETATM   30  O5  UNL     1      21.617  20.788  10.931  1.00  0.00    -0.310 OA
BRANCH  30  31
HETATM   31  C22 UNL     1      21.957  21.859  11.689  1.00  0.00     0.259 C 
HETATM   32  O6  UNL     1      22.325  22.913  11.170  1.00  0.00    -0.265 OA
BRANCH  31  33
HETATM   33  C23 UNL     1      21.886  21.770  13.173  1.00  0.00     0.115 C 
BRANCH  33  34
HETATM   34  C24 UNL     1      22.819  22.746  13.813  1.00  0.00    -0.013 C 
HETATM   35  C25 UNL     1      22.222  23.127  15.170  1.00  0.00     0.010 C 
HETATM   36  C26 UNL     1      24.151  22.081  14.068  1.00  0.00     0.010 C 
ENDBRANCH  33  34
ENDBRANCH  31  33
ENDBRANCH  30  31
ENDBRANCH  15  30
BRANCH  11  37
HETATM   37  O3  UNL     1      19.348  16.658   9.722  1.00  0.00    -0.395 OA
ATOM     38  H3  UNL     1      20.199  16.350   9.435  1.00  0.00     0.210 HD
ENDBRANCH  11  37
TORSDOF 11
ENDMDL
MODEL 5
REMARK VINA RESULT: -7.192715233      8.371     12.633
REMARK  11 active torsions:
REMARK  status: ('A' for Active; 'I' for Inactive)
REMARK    1  A    between atoms: C2_2  and  C3_3 
REMARK    2  A    between atoms: C4_4  and  C5_5 
REMARK    3  A    between atoms: C4_4  and  C28_36 
REMARK    4  A    between atoms: C5_5  and  O2_7 
REMARK    5  A    between atoms: O2_7  and  C6_8 
REMARK    6  A    between atoms: C16_18  and  O3_19 
REMARK    7  A    between atoms: C19_23  and  O4_24 
REMARK    8  A    between atoms: C20_26  and  O5_28 
REMARK    9  A    between atoms: O5_28  and  C22_29 
REMARK   10  A    between atoms: C22_29  and  C23_31 
REMARK   11  A    between atoms: C23_31  and  C24_32 
ROOT
HETATM    1  C6  UNL     1      17.674  20.882   7.159  1.00  0.00     0.190 C 
HETATM    2  C7  UNL     1      16.681  21.701   7.850  1.00  0.00    -0.056 C 
HETATM    3  C8  UNL     1      16.488  23.128   7.273  1.00  0.00     0.046 C 
HETATM    4  C9  UNL     1      15.908  21.477   8.897  1.00  0.00    -0.022 C 
HETATM    5  C10 UNL     1      15.804  20.239   9.761  1.00  0.00     0.028 C 
HETATM    6  C11 UNL     1      17.169  19.801   9.905  1.00  0.00     0.009 C 
HETATM    7  C12 UNL     1      18.056  19.267  10.883  1.00  0.00    -0.003 C 
HETATM    8  C13 UNL     1      17.956  17.740  10.860  1.00  0.00    -0.012 C 
HETATM    9  C14 UNL     1      18.769  17.114  11.953  1.00  0.00     0.010 C 
HETATM   10  C15 UNL     1      18.198  17.144   9.517  1.00  0.00     0.037 C 
HETATM   11  C16 UNL     1      19.366  17.703   8.737  1.00  0.00     0.123 C 
HETATM   12  C17 UNL     1      19.905  18.975   9.149  1.00  0.00     0.031 C 
HETATM   13  C18 UNL     1      19.894  20.286   8.500  1.00  0.00     0.059 C 
HETATM   14  C19 UNL     1      19.117  20.856   7.453  1.00  0.00     0.159 C 
HETATM   15  C20 UNL     1      20.048  20.751   9.932  1.00  0.00     0.078 C 
HETATM   16  C21 UNL     1      19.709  22.130  10.311  1.00  0.00     0.047 C 
HETATM   17  C27 UNL     1      19.477  19.534  10.521  1.00  0.00     0.032 C 
ENDROOT
BRANCH   1  18
HETATM   18  O2  UNL     1      17.630  21.402   5.785  1.00  0.00    -0.305 OA
BRANCH  18  19
HETATM   19  C5  UNL     1      16.733  21.048   4.844  1.00  0.00     0.290 C 
HETATM   20  O1  UNL     1      15.982  21.928   4.357  1.00  0.00    -0.260 OA
BRANCH  19  21
HETATM   21  C4  UNL     1      16.630  19.644   4.384  1.00  0.00     0.020 C 
HETATM   22  C3  UNL     1      17.685  19.045   3.894  1.00  0.00     0.013 C 
BRANCH  22  23
HETATM   23  C2  UNL     1      17.816  17.711   3.396  1.00  0.00    -0.010 C 
HETATM   24  C1  UNL     1      17.873  17.473   2.105  1.00  0.00     0.011 C 
ENDBRANCH  22  23
BRANCH  21  25
HETATM   25  C28 UNL     1      15.343  18.926   4.481  1.00  0.00     0.016 C 
HETATM   26  C29 UNL     1      14.423  19.568   5.504  1.00  0.00     0.015 C 
HETATM   27  C30 UNL     1      14.679  19.028   3.120  1.00  0.00     0.015 C 
ENDBRANCH  21  25
ENDBRANCH  19  21
ENDBRANCH  18  19
ENDBRANCH   1  18
BRANCH  14  28
HETATM   28  O4  UNL     1      19.614  20.289   6.222  1.00  0.00    -0.392 OA
ATOM     29  H4  UNL     1      19.992  19.483   6.553  1.00  0.00     0.210 HD
ENDBRANCH  14  28
BRANCH  15  30
HETATM   30  O5  UNL     1      21.456  20.685  10.363  1.00  0.00    -0.310 OA
BRANCH  30  31
HETATM   31  C22 UNL     1      21.905  21.260  11.504  1.00  0.00     0.259 C 
HETATM   32  O6  UNL     1      22.353  22.407  11.505  1.00  0.00    -0.265 OA
BRANCH  31  33
HETATM   33  C23 UNL     1      21.859  20.502  12.784  1.00  0.00     0.115 C 
BRANCH  33  34
HETATM   34  C24 UNL     1      20.769  21.011  13.670  1.00  0.00    -0.013 C 
HETATM   35  C25 UNL     1      20.012  19.795  14.209  1.00  0.00     0.010 C 
HETATM   36  C26 UNL     1      21.372  21.737  14.850  1.00  0.00     0.010 C 
ENDBRANCH  33  34
ENDBRANCH  31  33
ENDBRANCH  30  31
ENDBRANCH  15  30
BRANCH  11  37
HETATM   37  O3  UNL     1      19.074  17.704   7.344  1.00  0.00    -0.395 OA
ATOM     38  H3  UNL     1      19.878  17.741   6.839  1.00  0.00     0.210 HD
ENDBRANCH  11  37
TORSDOF 11
ENDMDL
