MODEL 1
REMARK VINA RESULT: -6.748854367      0.000      0.000
REMARK  8 active torsions:
REMARK  status: ('A' for Active; 'I' for Inactive)
REMARK    1  A    between atoms: C2_2  and  C3_3 
REMARK    2  A    between atoms: C3_3  and  C4_4 
REMARK    3  A    between atoms: C7_8  and  O2_9 
REMARK    4  A    between atoms: C13_17  and  C14_18 
REMARK    5  A    between atoms: C18_23  and  C19_24 
REMARK    6  A    between atoms: C19_24  and  C20_25 
REMARK    7  A    between atoms: C20_25  and  C21_26 
REMARK    8  A    between atoms: C21_26  and  O5_29 
ROOT
HETATM    1  C4  UNL     1      19.175  17.895   9.423  1.00  0.00     0.093 C 
HETATM    2  O1  UNL     1      20.255  18.353  10.183  1.00  0.00    -0.359 OA
HETATM    3  C5  UNL     1      20.241  19.002  11.315  1.00  0.00     0.117 C 
HETATM    4  C6  UNL     1      21.585  18.527  11.982  1.00  0.00     0.052 C 
HETATM    5  C7  UNL     1      20.497  20.509  11.303  1.00  0.00     0.155 C 
HETATM    6  C8  UNL     1      19.548  21.211  10.305  1.00  0.00     0.041 C 
HETATM    7  C9  UNL     1      19.345  20.229   9.282  1.00  0.00     0.011 C 
HETATM    8  C10 UNL     1      18.313  19.191   9.591  1.00  0.00     0.058 C 
HETATM    9  C11 UNL     1      17.582  19.358  10.842  1.00  0.00     0.126 C 
HETATM   10  C12 UNL     1      16.142  18.816  10.725  1.00  0.00     0.040 C 
HETATM   11  O3  UNL     1      18.029  19.137  12.036  1.00  0.00    -0.370 OA
HETATM   12  C13 UNL     1      19.250  18.783  12.398  1.00  0.00     0.227 C 
HETATM   13  C16 UNL     1      19.176  20.546   7.850  1.00  0.00    -0.005 C 
HETATM   14  C17 UNL     1      20.401  21.358   7.398  1.00  0.00     0.021 C 
HETATM   15  C18 UNL     1      17.893  21.204   7.511  1.00  0.00    -0.056 C 
HETATM   16  C24 UNL     1      17.260  20.439   6.615  1.00  0.00    -0.018 C 
HETATM   17  C25 UNL     1      18.029  19.224   6.267  1.00  0.00     0.038 C 
HETATM   18  C26 UNL     1      19.248  19.244   7.159  1.00  0.00     0.035 C 
HETATM   19  C27 UNL     1      19.345  17.921   7.978  1.00  0.00    -0.023 C 
HETATM   20  C28 UNL     1      19.417  16.929   7.142  1.00  0.00     0.024 C 
HETATM   21  C29 UNL     1      19.633  17.163   5.649  1.00  0.00     0.060 C 
HETATM   22  C30 UNL     1      19.170  15.555   7.317  1.00  0.00     0.095 C 
HETATM   23  N1  UNL     1      18.949  14.393   7.380  1.00  0.00    -0.192 NA
ENDROOT
BRANCH   1  24
HETATM   24  C3  UNL     1      18.540  16.761  10.056  1.00  0.00     0.043 C 
BRANCH  24  25
HETATM   25  C2  UNL     1      19.430  15.735  10.704  1.00  0.00    -0.001 C 
HETATM   26  C1  UNL     1      18.731  15.101  11.912  1.00  0.00     0.005 C 
ENDBRANCH  24  25
ENDBRANCH   1  24
BRANCH  15  27
HETATM   27  C19 UNL     1      17.281  22.402   8.052  1.00  0.00    -0.016 C 
BRANCH  27  28
HETATM   28  C20 UNL     1      16.577  23.396   7.276  1.00  0.00     0.064 C 
BRANCH  28  29
HETATM   29  C21 UNL     1      15.109  23.320   7.052  1.00  0.00     0.054 C 
HETATM   30  C22 UNL     1      14.294  22.307   7.729  1.00  0.00     0.045 C 
HETATM   31  C23 UNL     1      14.959  23.048   5.526  1.00  0.00     0.045 C 
BRANCH  29  32
HETATM   32  O5  UNL     1      14.515  24.589   7.287  1.00  0.00    -0.390 OA
ATOM     33  H5  UNL     1      13.823  24.746   6.655  1.00  0.00     0.210 HD
ENDBRANCH  29  32
ENDBRANCH  28  29
ENDBRANCH  27  28
ENDBRANCH  15  27
BRANCH   5  34
HETATM   34  O2  UNL     1      21.827  20.722  10.936  1.00  0.00    -0.392 OA
ATOM     35  H2  UNL     1      22.350  20.761  11.727  1.00  0.00     0.210 HD
ENDBRANCH   5  34
BRANCH  12  36
HETATM   36  C14 UNL     1      19.629  19.486  13.703  1.00  0.00     0.154 C 
HETATM   37  C15 UNL     1      19.869  18.644  14.889  1.00  0.00     0.094 C 
HETATM   38  O4  UNL     1      19.726  20.669  13.756  1.00  0.00    -0.295 OA
ENDBRANCH  12  36
TORSDOF 8
ENDMDL
MODEL 2
REMARK VINA RESULT: -6.626509150      1.971      6.075
REMARK  8 active torsions:
REMARK  status: ('A' for Active; 'I' for Inactive)
REMARK    1  A    between atoms: C2_2  and  C3_3 
REMARK    2  A    between atoms: C3_3  and  C4_4 
REMARK    3  A    between atoms: C7_8  and  O2_9 
REMARK    4  A    between atoms: C13_17  and  C14_18 
REMARK    5  A    between atoms: C18_23  and  C19_24 
REMARK    6  A    between atoms: C19_24  and  C20_25 
REMARK    7  A    between atoms: C20_25  and  C21_26 
REMARK    8  A    between atoms: C21_26  and  O5_29 
ROOT
HETATM    1  C4  UNL     1      18.401  19.097   7.045  1.00  0.00     0.093 C 
HETATM    2  O1  UNL     1      17.074  19.523   7.149  1.00  0.00    -0.359 OA
HETATM    3  C5  UNL     1      16.616  20.720   7.397  1.00  0.00     0.117 C 
HETATM    4  C6  UNL     1      15.243  20.711   6.630  1.00  0.00     0.052 C 
HETATM    5  C7  UNL     1      16.105  21.034   8.804  1.00  0.00     0.155 C 
HETATM    6  C8  UNL     1      17.172  20.670   9.861  1.00  0.00     0.041 C 
HETATM    7  C9  UNL     1      17.859  19.555   9.280  1.00  0.00     0.011 C 
HETATM    8  C10 UNL     1      18.916  19.909   8.281  1.00  0.00     0.058 C 
HETATM    9  C11 UNL     1      19.178  21.331   8.094  1.00  0.00     0.126 C 
HETATM   10  C12 UNL     1      20.656  21.585   7.732  1.00  0.00     0.040 C 
HETATM   11  O3  UNL     1      18.430  22.181   7.466  1.00  0.00    -0.370 OA
HETATM   12  C13 UNL     1      17.243  21.977   6.921  1.00  0.00     0.227 C 
HETATM   13  C16 UNL     1      18.404  18.421  10.052  1.00  0.00    -0.005 C 
HETATM   14  C17 UNL     1      17.253  17.810  10.868  1.00  0.00     0.021 C 
HETATM   15  C18 UNL     1      19.585  18.752  10.883  1.00  0.00    -0.056 C 
HETATM   16  C24 UNL     1      20.595  17.963  10.498  1.00  0.00    -0.018 C 
HETATM   17  C25 UNL     1      20.208  17.045   9.403  1.00  0.00     0.038 C 
HETATM   18  C26 UNL     1      18.790  17.419   9.040  1.00  0.00     0.035 C 
HETATM   19  C27 UNL     1      18.688  17.752   7.521  1.00  0.00    -0.023 C 
HETATM   20  C28 UNL     1      19.062  16.706   6.848  1.00  0.00     0.024 C 
HETATM   21  C29 UNL     1      19.281  15.359   7.532  1.00  0.00     0.060 C 
HETATM   22  C30 UNL     1      19.490  16.571   5.514  1.00  0.00     0.095 C 
HETATM   23  N1  UNL     1      19.889  16.385   4.414  1.00  0.00    -0.192 NA
ENDROOT
BRANCH   1  24
HETATM   24  C3  UNL     1      19.004  19.575   5.821  1.00  0.00     0.043 C 
BRANCH  24  25
HETATM   25  C2  UNL     1      18.084  19.952   4.691  1.00  0.00    -0.001 C 
HETATM   26  C1  UNL     1      17.410  18.704   4.108  1.00  0.00     0.005 C 
ENDBRANCH  24  25
ENDBRANCH   1  24
BRANCH  15  27
HETATM   27  C19 UNL     1      19.768  19.782  11.887  1.00  0.00    -0.016 C 
BRANCH  27  28
HETATM   28  C20 UNL     1      20.504  21.009  11.691  1.00  0.00     0.064 C 
BRANCH  28  29
HETATM   29  C21 UNL     1      21.755  21.300  12.441  1.00  0.00     0.054 C 
HETATM   30  C22 UNL     1      21.715  21.680  13.856  1.00  0.00     0.045 C 
HETATM   31  C23 UNL     1      22.392  22.505  11.686  1.00  0.00     0.045 C 
BRANCH  29  32
HETATM   32  O5  UNL     1      22.668  20.221  12.303  1.00  0.00    -0.390 OA
ATOM     33  H5  UNL     1      22.945  19.918  13.160  1.00  0.00     0.210 HD
ENDBRANCH  29  32
ENDBRANCH  28  29
ENDBRANCH  27  28
ENDBRANCH  15  27
BRANCH   5  34
HETATM   34  O2  UNL     1      14.940  20.296   9.019  1.00  0.00    -0.392 OA
ATOM     35  H2  UNL     1      15.159  19.548   9.562  1.00  0.00     0.210 HD
ENDBRANCH   5  34
BRANCH  12  36
HETATM   36  C14 UNL     1      16.356  23.204   7.134  1.00  0.00     0.154 C 
HETATM   37  C15 UNL     1      16.684  24.098   8.260  1.00  0.00     0.094 C 
HETATM   38  O4  UNL     1      15.436  23.427   6.417  1.00  0.00    -0.295 OA
ENDBRANCH  12  36
TORSDOF 8
ENDMDL
MODEL 3
REMARK VINA RESULT: -6.483050107      1.872      6.143
REMARK  8 active torsions:
REMARK  status: ('A' for Active; 'I' for Inactive)
REMARK    1  A    between atoms: C2_2  and  C3_3 
REMARK    2  A    between atoms: C3_3  and  C4_4 
REMARK    3  A    between atoms: C7_8  and  O2_9 
REMARK    4  A    between atoms: C13_17  and  C14_18 
REMARK    5  A    between atoms: C18_23  and  C19_24 
REMARK    6  A    between atoms: C19_24  and  C20_25 
REMARK    7  A    between atoms: C20_25  and  C21_26 
REMARK    8  A    between atoms: C21_26  and  O5_29 
ROOT
HETATM    1  C4  UNL     1      18.677  19.023   7.975  1.00  0.00     0.093 C 
HETATM    2  O1  UNL     1      17.404  19.514   7.669  1.00  0.00    -0.359 OA
HETATM    3  C5  UNL     1      16.944  20.729   7.795  1.00  0.00     0.117 C 
HETATM    4  C6  UNL     1      15.884  20.800   6.635  1.00  0.00     0.052 C 
HETATM    5  C7  UNL     1      16.029  21.049   8.978  1.00  0.00     0.155 C 
HETATM    6  C8  UNL     1      16.691  20.617  10.307  1.00  0.00     0.041 C 
HETATM    7  C9  UNL     1      17.478  19.477   9.939  1.00  0.00     0.011 C 
HETATM    8  C10 UNL     1      18.810  19.791   9.334  1.00  0.00     0.058 C 
HETATM    9  C11 UNL     1      19.179  21.201   9.280  1.00  0.00     0.126 C 
HETATM   10  C12 UNL     1      20.706  21.385   9.409  1.00  0.00     0.040 C 
HETATM   11  O3  UNL     1      18.705  22.096   8.474  1.00  0.00    -0.370 OA
HETATM   12  C13 UNL     1      17.743  21.959   7.577  1.00  0.00     0.227 C 
HETATM   13  C16 UNL     1      17.701  18.307  10.810  1.00  0.00    -0.005 C 
HETATM   14  C17 UNL     1      16.327  17.743  11.204  1.00  0.00     0.021 C 
HETATM   15  C18 UNL     1      18.573  18.565  11.979  1.00  0.00    -0.056 C 
HETATM   16  C24 UNL     1      19.617  17.732  11.909  1.00  0.00    -0.018 C 
HETATM   17  C25 UNL     1      19.557  16.850  10.722  1.00  0.00     0.038 C 
HETATM   18  C26 UNL     1      18.343  17.301   9.942  1.00  0.00     0.035 C 
HETATM   19  C27 UNL     1      18.740  17.659   8.478  1.00  0.00    -0.023 C 
HETATM   20  C28 UNL     1      19.261  16.605   7.927  1.00  0.00     0.024 C 
HETATM   21  C29 UNL     1      19.195  15.240   8.606  1.00  0.00     0.060 C 
HETATM   22  C30 UNL     1      20.082  16.467   6.792  1.00  0.00     0.095 C 
HETATM   23  N1  UNL     1      20.799  16.277   5.868  1.00  0.00    -0.192 NA
ENDROOT
BRANCH   1  24
HETATM   24  C3  UNL     1      19.655  19.487   7.018  1.00  0.00     0.043 C 
BRANCH  24  25
HETATM   25  C2  UNL     1      19.149  20.000   5.696  1.00  0.00    -0.001 C 
HETATM   26  C1  UNL     1      18.765  18.833   4.778  1.00  0.00     0.005 C 
ENDBRANCH  24  25
ENDBRANCH   1  24
BRANCH  15  27
HETATM   27  C19 UNL     1      18.474  19.571  13.019  1.00  0.00    -0.016 C 
BRANCH  27  28
HETATM   28  C20 UNL     1      19.292  19.615  14.209  1.00  0.00     0.064 C 
BRANCH  28  29
HETATM   29  C21 UNL     1      20.484  20.498  14.308  1.00  0.00     0.054 C 
HETATM   30  C22 UNL     1      21.099  21.073  13.109  1.00  0.00     0.045 C 
HETATM   31  C23 UNL     1      21.577  19.608  14.971  1.00  0.00     0.045 C 
BRANCH  29  32
HETATM   32  O5  UNL     1      20.231  21.557  15.221  1.00  0.00    -0.390 OA
ATOM     33  H5  UNL     1      20.738  22.323  14.979  1.00  0.00     0.210 HD
ENDBRANCH  29  32
ENDBRANCH  28  29
ENDBRANCH  27  28
ENDBRANCH  15  27
BRANCH   5  34
HETATM   34  O2  UNL     1      14.825  20.367   8.795  1.00  0.00    -0.392 OA
ATOM     35  H2  UNL     1      14.876  19.545   9.266  1.00  0.00     0.210 HD
ENDBRANCH   5  34
BRANCH  12  36
HETATM   36  C14 UNL     1      16.888  23.227   7.536  1.00  0.00     0.154 C 
HETATM   37  C15 UNL     1      16.380  23.668   6.225  1.00  0.00     0.094 C 
HETATM   38  O4  UNL     1      16.643  23.832   8.529  1.00  0.00    -0.295 OA
ENDBRANCH  12  36
TORSDOF 8
ENDMDL
MODEL 4
REMARK VINA RESULT: -6.008260241      3.458      6.271
REMARK  8 active torsions:
REMARK  status: ('A' for Active; 'I' for Inactive)
REMARK    1  A    between atoms: C2_2  and  C3_3 
REMARK    2  A    between atoms: C3_3  and  C4_4 
REMARK    3  A    between atoms: C7_8  and  O2_9 
REMARK    4  A    between atoms: C13_17  and  C14_18 
REMARK    5  A    between atoms: C18_23  and  C19_24 
REMARK    6  A    between atoms: C19_24  and  C20_25 
REMARK    7  A    between atoms: C20_25  and  C21_26 
REMARK    8  A    between atoms: C21_26  and  O5_29 
ROOT
HETATM    1  C4  UNL     1      19.250  15.608  11.435  1.00  0.00     0.093 C 
HETATM    2  O1  UNL     1      18.918  15.412  10.092  1.00  0.00    -0.359 OA
HETATM    3  C5  UNL     1      19.655  15.598   9.031  1.00  0.00     0.117 C 
HETATM    4  C6  UNL     1      19.076  14.526   8.037  1.00  0.00     0.052 C 
HETATM    5  C7  UNL     1      19.430  16.855   8.190  1.00  0.00     0.155 C 
HETATM    6  C8  UNL     1      19.490  18.119   9.078  1.00  0.00     0.041 C 
HETATM    7  C9  UNL     1      18.994  17.668  10.344  1.00  0.00     0.011 C 
HETATM    8  C10 UNL     1      19.995  16.967  11.208  1.00  0.00     0.058 C 
HETATM    9  C11 UNL     1      21.361  16.913  10.701  1.00  0.00     0.126 C 
HETATM   10  C12 UNL     1      22.386  16.926  11.853  1.00  0.00     0.040 C 
HETATM   11  O3  UNL     1      21.802  16.164   9.742  1.00  0.00    -0.370 OA
HETATM   12  C13 UNL     1      21.115  15.342   8.966  1.00  0.00     0.227 C 
HETATM   13  C16 UNL     1      18.185  18.496  11.260  1.00  0.00    -0.005 C 
HETATM   14  C17 UNL     1      16.949  18.985  10.489  1.00  0.00     0.021 C 
HETATM   15  C18 UNL     1      18.928  19.598  11.913  1.00  0.00    -0.056 C 
HETATM   16  C24 UNL     1      18.838  19.430  13.238  1.00  0.00    -0.018 C 
HETATM   17  C25 UNL     1      18.047  18.234  13.602  1.00  0.00     0.038 C 
HETATM   18  C26 UNL     1      17.701  17.561  12.294  1.00  0.00     0.035 C 
HETATM   19  C27 UNL     1      18.181  16.077  12.304  1.00  0.00    -0.023 C 
HETATM   20  C28 UNL     1      17.598  15.467  13.290  1.00  0.00     0.024 C 
HETATM   21  C29 UNL     1      16.458  16.122  14.067  1.00  0.00     0.060 C 
HETATM   22  C30 UNL     1      17.921  14.269  13.955  1.00  0.00     0.095 C 
HETATM   23  N1  UNL     1      18.148  13.289  14.580  1.00  0.00    -0.192 NA
ENDROOT
BRANCH   1  24
HETATM   24  C3  UNL     1      20.162  14.587  11.898  1.00  0.00     0.043 C 
BRANCH  24  25
HETATM   25  C2  UNL     1      19.921  13.175  11.435  1.00  0.00    -0.001 C 
HETATM   26  C1  UNL     1      21.252  12.443  11.225  1.00  0.00     0.005 C 
ENDBRANCH  24  25
ENDBRANCH   1  24
BRANCH  15  27
HETATM   27  C19 UNL     1      19.726  20.663  11.336  1.00  0.00    -0.016 C 
BRANCH  27  28
HETATM   28  C20 UNL     1      21.170  20.680  11.284  1.00  0.00     0.064 C 
BRANCH  28  29
HETATM   29  C21 UNL     1      21.978  21.520  12.208  1.00  0.00     0.054 C 
HETATM   30  C22 UNL     1      21.525  21.785  13.577  1.00  0.00     0.045 C 
HETATM   31  C23 UNL     1      22.063  22.907  11.504  1.00  0.00     0.045 C 
BRANCH  29  32
HETATM   32  O5  UNL     1      23.308  21.029  12.274  1.00  0.00    -0.390 OA
ATOM     33  H5  UNL     1      23.623  20.824  11.402  1.00  0.00     0.210 HD
ENDBRANCH  29  32
ENDBRANCH  28  29
ENDBRANCH  27  28
ENDBRANCH  15  27
BRANCH   5  34
HETATM   34  O2  UNL     1      18.178  16.752   7.581  1.00  0.00    -0.392 OA
ATOM     35  H2  UNL     1      17.967  15.831   7.490  1.00  0.00     0.210 HD
ENDBRANCH   5  34
BRANCH  12  36
HETATM   36  C14 UNL     1      21.666  15.394   7.540  1.00  0.00     0.154 C 
HETATM   37  C15 UNL     1      22.016  14.115   6.895  1.00  0.00     0.094 C 
HETATM   38  O4  UNL     1      21.806  16.429   6.974  1.00  0.00    -0.295 OA
ENDBRANCH  12  36
TORSDOF 8
ENDMDL
MODEL 5
REMARK VINA RESULT: -5.943874077      2.723      6.333
REMARK  8 active torsions:
REMARK  status: ('A' for Active; 'I' for Inactive)
REMARK    1  A    between atoms: C2_2  and  C3_3 
REMARK    2  A    between atoms: C3_3  and  C4_4 
REMARK    3  A    between atoms: C7_8  and  O2_9 
REMARK    4  A    between atoms: C13_17  and  C14_18 
REMARK    5  A    between atoms: C18_23  and  C19_24 
REMARK    6  A    between atoms: C19_24  and  C20_25 
REMARK    7  A    between atoms: C20_25  and  C21_26 
REMARK    8  A    between atoms: C21_26  and  O5_29 
ROOT
HETATM    1  C4  UNL     1      17.533  20.631   7.002  1.00  0.00     0.093 C 
HETATM    2  O1  UNL     1      17.394  19.895   8.182  1.00  0.00    -0.359 OA
HETATM    3  C5  UNL     1      18.311  19.552   9.045  1.00  0.00     0.117 C 
HETATM    4  C6  UNL     1      17.493  19.494  10.388  1.00  0.00     0.052 C 
HETATM    5  C7  UNL     1      18.842  18.118   9.024  1.00  0.00     0.155 C 
HETATM    6  C8  UNL     1      19.315  17.737   7.603  1.00  0.00     0.041 C 
HETATM    7  C9  UNL     1      18.450  18.489   6.744  1.00  0.00     0.011 C 
HETATM    8  C10 UNL     1      18.845  19.916   6.533  1.00  0.00     0.058 C 
HETATM    9  C11 UNL     1      20.100  20.337   7.146  1.00  0.00     0.126 C 
HETATM   10  C12 UNL     1      20.793  21.432   6.308  1.00  0.00     0.040 C 
HETATM   11  O3  UNL     1      20.312  20.560   8.403  1.00  0.00    -0.370 OA
HETATM   12  C13 UNL     1      19.476  20.393   9.414  1.00  0.00     0.227 C 
HETATM   13  C16 UNL     1      17.962  18.012   5.435  1.00  0.00    -0.005 C 
HETATM   14  C17 UNL     1      17.249  16.669   5.657  1.00  0.00     0.021 C 
HETATM   15  C18 UNL     1      18.998  17.945   4.378  1.00  0.00    -0.056 C 
HETATM   16  C24 UNL     1      18.606  18.725   3.364  1.00  0.00    -0.018 C 
HETATM   17  C25 UNL     1      17.303  19.376   3.624  1.00  0.00     0.038 C 
HETATM   18  C26 UNL     1      16.927  18.985   5.035  1.00  0.00     0.035 C 
HETATM   19  C27 UNL     1      16.662  20.256   5.899  1.00  0.00    -0.023 C 
HETATM   20  C28 UNL     1      15.698  20.929   5.348  1.00  0.00     0.024 C 
HETATM   21  C29 UNL     1      14.868  20.341   4.210  1.00  0.00     0.060 C 
HETATM   22  C30 UNL     1      15.311  22.274   5.495  1.00  0.00     0.095 C 
HETATM   23  N1  UNL     1      14.947  23.400   5.543  1.00  0.00    -0.192 NA
ENDROOT
BRANCH   1  24
HETATM   24  C3  UNL     1      17.776  22.027   7.289  1.00  0.00     0.043 C 
BRANCH  24  25
HETATM   25  C2  UNL     1      16.992  22.655   8.410  1.00  0.00    -0.001 C 
HETATM   26  C1  UNL     1      16.914  24.175   8.228  1.00  0.00     0.005 C 
ENDBRANCH  24  25
ENDBRANCH   1  24
BRANCH  15  27
HETATM   27  C19 UNL     1      20.284  17.275   4.366  1.00  0.00    -0.016 C 
BRANCH  27  28
HETATM   28  C20 UNL     1      20.491  15.886   4.030  1.00  0.00     0.064 C 
BRANCH  28  29
HETATM   29  C21 UNL     1      20.884  14.882   5.055  1.00  0.00     0.054 C 
HETATM   30  C22 UNL     1      19.873  14.191   5.860  1.00  0.00     0.045 C 
HETATM   31  C23 UNL     1      21.771  15.675   6.060  1.00  0.00     0.045 C 
BRANCH  29  32
HETATM   32  O5  UNL     1      21.728  13.898   4.474  1.00  0.00    -0.390 OA
ATOM     33  H5  UNL     1      22.626  14.037   4.750  1.00  0.00     0.210 HD
ENDBRANCH  29  32
ENDBRANCH  28  29
ENDBRANCH  27  28
ENDBRANCH  15  27
BRANCH   5  34
HETATM   34  O2  UNL     1      17.814  17.267   9.435  1.00  0.00    -0.392 OA
ATOM     35  H2  UNL     1      17.281  17.060   8.677  1.00  0.00     0.210 HD
ENDBRANCH   5  34
BRANCH  12  36
HETATM   36  C14 UNL     1      20.234  19.861  10.631  1.00  0.00     0.154 C 
HETATM   37  C15 UNL     1      20.046  20.561  11.914  1.00  0.00     0.094 C 
HETATM   38  O4  UNL     1      20.949  18.916  10.543  1.00  0.00    -0.295 OA
ENDBRANCH  12  36
TORSDOF 8
ENDMDL
