MODEL 1
REMARK VINA RESULT: -8.694874253      0.000      0.000
REMARK  8 active torsions:
REMARK  status: ('A' for Active; 'I' for Inactive)
REMARK    1  A    between atoms: O1_2  and  C2_3 
REMARK    2  A    between atoms: C3_4  and  O2_5 
REMARK    3  A    between atoms: O2_5  and  C4_6 
REMARK       I    between atoms: C4_6  and  N1_8 
REMARK    4  A    between atoms: N1_8  and  C5_10 
REMARK    5  A    between atoms: C5_10  and  C6_11 
REMARK    6  A    between atoms: C6_11  and  O4_12 
REMARK    7  A    between atoms: C18_25  and  O5_26 
REMARK    8  A    between atoms: O5_26  and  C19_27 
ROOT
HETATM    1  C2  UNL     1      13.868  23.258   5.981  1.00  0.00     0.159 C 
HETATM    2  C3  UNL     1      14.047  23.846   7.352  1.00  0.00     0.163 C 
HETATM    3  C7  UNL     1      13.580  25.262   7.338  1.00  0.00     0.036 C 
HETATM    4  C8  UNL     1      12.836  25.641   6.101  1.00  0.00     0.013 C 
HETATM    5  C9  UNL     1      11.760  24.623   5.749  1.00  0.00    -0.030 C 
HETATM    6  C10 UNL     1      10.904  24.533   6.990  1.00  0.00     0.016 C 
HETATM    7  C11 UNL     1      11.018  25.182   4.557  1.00  0.00    -0.001 C 
HETATM    8  C12 UNL     1      10.086  26.269   4.830  1.00  0.00     0.006 C 
HETATM    9  C13 UNL     1       8.629  26.017   4.679  1.00  0.00     0.007 C 
HETATM   10  C14 UNL     1       8.209  25.148   3.550  1.00  0.00     0.004 C 
HETATM   11  C15 UNL     1       7.140  25.737   2.662  1.00  0.00    -0.017 C 
HETATM   12  C16 UNL     1       5.987  24.763   2.408  1.00  0.00     0.018 C 
HETATM   13  C17 UNL     1       6.467  26.969   3.285  1.00  0.00     0.018 C 
HETATM   14  C18 UNL     1       7.639  26.186   1.321  1.00  0.00     0.140 C 
HETATM   15  C21 UNL     1       9.048  26.654   1.415  1.00  0.00     0.034 C 
HETATM   16  C22 UNL     1       9.966  25.503   1.795  1.00  0.00     0.012 C 
HETATM   17  C23 UNL     1       9.365  24.568   2.770  1.00  0.00    -0.035 C 
HETATM   18  C24 UNL     1       8.991  23.289   2.031  1.00  0.00     0.016 C 
HETATM   19  C25 UNL     1      10.365  24.071   3.830  1.00  0.00    -0.001 C 
HETATM   20  C26 UNL     1      11.428  23.306   3.122  1.00  0.00     0.007 C 
HETATM   21  C27 UNL     1      12.575  23.007   3.990  1.00  0.00     0.013 C 
HETATM   22  C28 UNL     1      12.454  23.330   5.455  1.00  0.00    -0.008 C 
HETATM   23  C29 UNL     1      11.698  22.204   6.126  1.00  0.00     0.019 C 
ENDROOT
BRANCH   2  24
HETATM   24  O2  UNL     1      15.440  23.820   7.618  1.00  0.00    -0.296 OA
BRANCH  24  25
HETATM   25  C4  UNL     1      16.059  22.777   8.341  1.00  0.00     0.364 C 
HETATM   26  O3  UNL     1      15.253  22.153   9.080  1.00  0.00    -0.238 OA
HETATM   27  N1  UNL     1      17.418  22.504   8.219  1.00  0.00    -0.314 N 
ATOM     28  H1  UNL     1      17.944  23.091   7.571  1.00  0.00     0.170 HD
BRANCH  27  29
HETATM   29  C5  UNL     1      18.147  21.504   8.894  1.00  0.00     0.092 C 
BRANCH  29  30
HETATM   30  C6  UNL     1      17.819  20.112   8.500  1.00  0.00     0.208 C 
BRANCH  30  31
HETATM   31  O4  UNL     1      16.826  19.524   9.207  1.00  0.00    -0.396 OA
ATOM     32  H4  UNL     1      16.075  19.239   8.699  1.00  0.00     0.209 HD
ENDBRANCH  30  31
ENDBRANCH  29  30
ENDBRANCH  27  29
ENDBRANCH  24  25
ENDBRANCH   2  24
BRANCH   1  33
HETATM   33  O1  UNL     1      14.826  23.728   5.103  1.00  0.00    -0.387 OA
HETATM   34  C1  UNL     1      15.746  22.764   4.708  1.00  0.00     0.202 C 
ENDBRANCH   1  33
BRANCH  14  35
HETATM   35  O5  UNL     1       6.839  27.281   0.844  1.00  0.00    -0.316 OA
BRANCH  35  36
HETATM   36  C19 UNL     1       6.569  27.483  -0.498  1.00  0.00     0.255 C 
HETATM   37  C20 UNL     1       7.573  27.858  -1.500  1.00  0.00     0.126 C 
HETATM   38  O6  UNL     1       5.377  27.334  -0.877  1.00  0.00    -0.266 OA
ENDBRANCH  35  36
ENDBRANCH  14  35
TORSDOF 8
ENDMDL
MODEL 2
REMARK VINA RESULT: -8.253097478      3.942      9.410
REMARK  8 active torsions:
REMARK  status: ('A' for Active; 'I' for Inactive)
REMARK    1  A    between atoms: O1_2  and  C2_3 
REMARK    2  A    between atoms: C3_4  and  O2_5 
REMARK    3  A    between atoms: O2_5  and  C4_6 
REMARK       I    between atoms: C4_6  and  N1_8 
REMARK    4  A    between atoms: N1_8  and  C5_10 
REMARK    5  A    between atoms: C5_10  and  C6_11 
REMARK    6  A    between atoms: C6_11  and  O4_12 
REMARK    7  A    between atoms: C18_25  and  O5_26 
REMARK    8  A    between atoms: O5_26  and  C19_27 
ROOT
HETATM    1  C2  UNL     1      10.853  25.462   6.317  1.00  0.00     0.159 C 
HETATM    2  C3  UNL     1      10.250  26.197   5.153  1.00  0.00     0.163 C 
HETATM    3  C7  UNL     1      11.280  26.343   4.085  1.00  0.00     0.036 C 
HETATM    4  C8  UNL     1      12.508  25.526   4.313  1.00  0.00     0.013 C 
HETATM    5  C9  UNL     1      12.175  24.083   4.669  1.00  0.00    -0.030 C 
HETATM    6  C10 UNL     1      11.308  23.603   3.530  1.00  0.00     0.016 C 
HETATM    7  C11 UNL     1      13.495  23.352   4.760  1.00  0.00    -0.001 C 
HETATM    8  C12 UNL     1      14.140  23.028   3.494  1.00  0.00     0.006 C 
HETATM    9  C13 UNL     1      14.227  21.604   3.079  1.00  0.00     0.007 C 
HETATM   10  C14 UNL     1      14.488  20.605   4.147  1.00  0.00     0.004 C 
HETATM   11  C15 UNL     1      15.642  19.672   3.873  1.00  0.00    -0.017 C 
HETATM   12  C16 UNL     1      15.277  18.204   4.105  1.00  0.00     0.018 C 
HETATM   13  C17 UNL     1      16.109  19.722   2.411  1.00  0.00     0.018 C 
HETATM   14  C18 UNL     1      16.865  19.955   4.695  1.00  0.00     0.140 C 
HETATM   15  C21 UNL     1      16.972  21.409   4.993  1.00  0.00     0.034 C 
HETATM   16  C22 UNL     1      15.813  21.858   5.869  1.00  0.00     0.012 C 
HETATM   17  C23 UNL     1      14.532  21.201   5.534  1.00  0.00    -0.035 C 
HETATM   18  C24 UNL     1      14.226  20.178   6.622  1.00  0.00     0.016 C 
HETATM   19  C25 UNL     1      13.324  22.152   5.609  1.00  0.00    -0.001 C 
HETATM   20  C26 UNL     1      13.199  22.610   7.021  1.00  0.00     0.007 C 
HETATM   21  C27 UNL     1      12.250  23.722   7.166  1.00  0.00     0.013 C 
HETATM   22  C28 UNL     1      11.429  24.110   5.966  1.00  0.00    -0.008 C 
HETATM   23  C29 UNL     1      10.251  23.163   5.874  1.00  0.00     0.019 C 
ENDROOT
BRANCH   2  24
HETATM   24  O2  UNL     1       9.896  27.483   5.633  1.00  0.00    -0.296 OA
BRANCH  24  25
HETATM   25  C4  UNL     1       8.566  27.958   5.633  1.00  0.00     0.364 C 
HETATM   26  O3  UNL     1       8.411  28.965   4.895  1.00  0.00    -0.238 OA
HETATM   27  N1  UNL     1       7.567  27.347   6.385  1.00  0.00    -0.314 N 
ATOM     28  H1  UNL     1       7.843  26.530   6.930  1.00  0.00     0.170 HD
BRANCH  27  29
HETATM   29  C5  UNL     1       6.215  27.735   6.475  1.00  0.00     0.092 C 
BRANCH  29  30
HETATM   30  C6  UNL     1       5.959  28.930   7.315  1.00  0.00     0.208 C 
BRANCH  30  31
HETATM   31  O4  UNL     1       6.010  30.119   6.670  1.00  0.00    -0.396 OA
ATOM     32  H4  UNL     1       6.174  30.877   7.219  1.00  0.00     0.209 HD
ENDBRANCH  30  31
ENDBRANCH  29  30
ENDBRANCH  27  29
ENDBRANCH  24  25
ENDBRANCH   2  24
BRANCH   1  33
HETATM   33  O1  UNL     1      11.709  26.275   7.036  1.00  0.00    -0.387 OA
HETATM   34  C1  UNL     1      11.284  26.525   8.335  1.00  0.00     0.202 C 
ENDBRANCH   1  33
BRANCH  14  35
HETATM   35  O5  UNL     1      18.042  19.563   3.970  1.00  0.00    -0.316 OA
BRANCH  35  36
HETATM   36  C19 UNL     1      18.806  18.463   4.317  1.00  0.00     0.255 C 
HETATM   37  C20 UNL     1      18.807  17.840   5.645  1.00  0.00     0.126 C 
HETATM   38  O6  UNL     1      19.547  17.968   3.427  1.00  0.00    -0.266 OA
ENDBRANCH  35  36
ENDBRANCH  14  35
TORSDOF 8
ENDMDL
MODEL 3
REMARK VINA RESULT: -8.153469745      3.194      9.484
REMARK  8 active torsions:
REMARK  status: ('A' for Active; 'I' for Inactive)
REMARK    1  A    between atoms: O1_2  and  C2_3 
REMARK    2  A    between atoms: C3_4  and  O2_5 
REMARK    3  A    between atoms: O2_5  and  C4_6 
REMARK       I    between atoms: C4_6  and  N1_8 
REMARK    4  A    between atoms: N1_8  and  C5_10 
REMARK    5  A    between atoms: C5_10  and  C6_11 
REMARK    6  A    between atoms: C6_11  and  O4_12 
REMARK    7  A    between atoms: C18_25  and  O5_26 
REMARK    8  A    between atoms: O5_26  and  C19_27 
ROOT
HETATM    1  C2  UNL     1       9.075  26.084   4.270  1.00  0.00     0.159 C 
HETATM    2  C3  UNL     1       8.592  26.331   2.869  1.00  0.00     0.163 C 
HETATM    3  C7  UNL     1       9.762  26.323   1.944  1.00  0.00     0.036 C 
HETATM    4  C8  UNL     1      11.023  25.826   2.568  1.00  0.00     0.013 C 
HETATM    5  C9  UNL     1      10.810  24.519   3.320  1.00  0.00    -0.030 C 
HETATM    6  C10 UNL     1      10.210  23.586   2.295  1.00  0.00     0.016 C 
HETATM    7  C11 UNL     1      12.174  24.076   3.799  1.00  0.00    -0.001 C 
HETATM    8  C12 UNL     1      13.056  23.504   2.790  1.00  0.00     0.006 C 
HETATM    9  C13 UNL     1      13.382  22.056   2.862  1.00  0.00     0.007 C 
HETATM   10  C14 UNL     1      13.578  21.475   4.215  1.00  0.00     0.004 C 
HETATM   11  C15 UNL     1      14.865  20.708   4.394  1.00  0.00    -0.017 C 
HETATM   12  C16 UNL     1      14.645  19.335   5.033  1.00  0.00     0.018 C 
HETATM   13  C17 UNL     1      15.560  20.400   3.061  1.00  0.00     0.018 C 
HETATM   14  C18 UNL     1      15.890  21.420   5.227  1.00  0.00     0.140 C 
HETATM   15  C21 UNL     1      15.770  22.894   5.060  1.00  0.00     0.034 C 
HETATM   16  C22 UNL     1      14.435  23.384   5.599  1.00  0.00     0.012 C 
HETATM   17  C23 UNL     1      13.317  22.454   5.336  1.00  0.00    -0.035 C 
HETATM   18  C24 UNL     1      12.958  21.762   6.646  1.00  0.00     0.016 C 
HETATM   19  C25 UNL     1      12.008  23.170   4.957  1.00  0.00    -0.001 C 
HETATM   20  C26 UNL     1      11.594  23.998   6.124  1.00  0.00     0.007 C 
HETATM   21  C27 UNL     1      10.508  24.929   5.792  1.00  0.00     0.013 C 
HETATM   22  C28 UNL     1       9.859  24.804   4.440  1.00  0.00    -0.008 C 
HETATM   23  C29 UNL     1       8.836  23.690   4.509  1.00  0.00     0.019 C 
ENDROOT
BRANCH   2  24
HETATM   24  O2  UNL     1       8.011  27.624   2.870  1.00  0.00    -0.296 OA
BRANCH  24  25
HETATM   25  C4  UNL     1       6.619  27.835   2.980  1.00  0.00     0.364 C 
HETATM   26  O3  UNL     1       6.090  28.169   1.888  1.00  0.00    -0.238 OA
HETATM   27  N1  UNL     1       5.945  27.678   4.188  1.00  0.00    -0.314 N 
ATOM     28  H1  UNL     1       6.508  27.393   4.990  1.00  0.00     0.170 HD
BRANCH  27  29
HETATM   29  C5  UNL     1       4.569  27.872   4.424  1.00  0.00     0.092 C 
BRANCH  29  30
HETATM   30  C6  UNL     1       4.014  27.112   5.570  1.00  0.00     0.208 C 
BRANCH  30  31
HETATM   31  O4  UNL     1       4.862  26.920   6.608  1.00  0.00    -0.396 OA
ATOM     32  H4  UNL     1       5.271  26.063   6.651  1.00  0.00     0.209 HD
ENDBRANCH  30  31
ENDBRANCH  29  30
ENDBRANCH  27  29
ENDBRANCH  24  25
ENDBRANCH   2  24
BRANCH   1  33
HETATM   33  O1  UNL     1       9.694  27.203   4.794  1.00  0.00    -0.387 OA
HETATM   34  C1  UNL     1       9.036  27.746   5.891  1.00  0.00     0.202 C 
ENDBRANCH   1  33
BRANCH  14  35
HETATM   35  O5  UNL     1      17.210  21.033   4.813  1.00  0.00    -0.316 OA
BRANCH  35  36
HETATM   36  C19 UNL     1      18.128  20.459   5.675  1.00  0.00     0.255 C 
HETATM   37  C20 UNL     1      18.023  20.487   7.138  1.00  0.00     0.126 C 
HETATM   38  O6  UNL     1      19.118  19.875   5.161  1.00  0.00    -0.266 OA
ENDBRANCH  35  36
ENDBRANCH  14  35
TORSDOF 8
ENDMDL
MODEL 4
REMARK VINA RESULT: -8.079729141      3.380     11.692
REMARK  8 active torsions:
REMARK  status: ('A' for Active; 'I' for Inactive)
REMARK    1  A    between atoms: O1_2  and  C2_3 
REMARK    2  A    between atoms: C3_4  and  O2_5 
REMARK    3  A    between atoms: O2_5  and  C4_6 
REMARK       I    between atoms: C4_6  and  N1_8 
REMARK    4  A    between atoms: N1_8  and  C5_10 
REMARK    5  A    between atoms: C5_10  and  C6_11 
REMARK    6  A    between atoms: C6_11  and  O4_12 
REMARK    7  A    between atoms: C18_25  and  O5_26 
REMARK    8  A    between atoms: O5_26  and  C19_27 
ROOT
HETATM    1  C2  UNL     1      14.665  22.309   4.626  1.00  0.00     0.159 C 
HETATM    2  C3  UNL     1      13.375  22.870   5.155  1.00  0.00     0.163 C 
HETATM    3  C7  UNL     1      12.948  22.072   6.339  1.00  0.00     0.036 C 
HETATM    4  C8  UNL     1      13.992  21.133   6.845  1.00  0.00     0.013 C 
HETATM    5  C9  UNL     1      15.343  21.817   7.006  1.00  0.00    -0.030 C 
HETATM    6  C10 UNL     1      15.068  22.992   7.912  1.00  0.00     0.016 C 
HETATM    7  C11 UNL     1      16.268  20.793   7.625  1.00  0.00    -0.001 C 
HETATM    8  C12 UNL     1      16.082  20.535   9.047  1.00  0.00     0.006 C 
HETATM    9  C13 UNL     1      17.139  20.971   9.997  1.00  0.00     0.007 C 
HETATM   10  C14 UNL     1      18.548  20.827   9.550  1.00  0.00     0.004 C 
HETATM   11  C15 UNL     1      19.446  20.090  10.513  1.00  0.00    -0.017 C 
HETATM   12  C16 UNL     1      20.756  20.836  10.781  1.00  0.00     0.018 C 
HETATM   13  C17 UNL     1      18.812  19.923  11.902  1.00  0.00     0.018 C 
HETATM   14  C18 UNL     1      19.813  18.705  10.069  1.00  0.00     0.140 C 
HETATM   15  C21 UNL     1      18.713  18.103   9.268  1.00  0.00     0.034 C 
HETATM   16  C22 UNL     1      18.512  18.876   7.974  1.00  0.00     0.012 C 
HETATM   17  C23 UNL     1      18.684  20.336   8.128  1.00  0.00    -0.035 C 
HETATM   18  C24 UNL     1      20.017  20.725   7.498  1.00  0.00     0.016 C 
HETATM   19  C25 UNL     1      17.668  21.156   7.313  1.00  0.00    -0.001 C 
HETATM   20  C26 UNL     1      17.902  20.859   5.873  1.00  0.00     0.007 C 
HETATM   21  C27 UNL     1      16.829  21.376   5.013  1.00  0.00     0.013 C 
HETATM   22  C28 UNL     1      15.781  22.254   5.642  1.00  0.00    -0.008 C 
HETATM   23  C29 UNL     1      16.336  23.660   5.733  1.00  0.00     0.019 C 
ENDROOT
BRANCH   2  24
HETATM   24  O2  UNL     1      12.419  22.713   4.121  1.00  0.00    -0.296 OA
BRANCH  24  25
HETATM   25  C4  UNL     1      11.440  23.689   3.832  1.00  0.00     0.364 C 
HETATM   26  O3  UNL     1      10.269  23.281   4.047  1.00  0.00    -0.238 OA
HETATM   27  N1  UNL     1      11.779  24.955   3.363  1.00  0.00    -0.314 N 
ATOM     28  H1  UNL     1      12.775  25.146   3.248  1.00  0.00     0.170 HD
BRANCH  27  29
HETATM   29  C5  UNL     1      10.896  26.002   3.031  1.00  0.00     0.092 C 
BRANCH  29  30
HETATM   30  C6  UNL     1      10.277  26.694   4.188  1.00  0.00     0.208 C 
BRANCH  30  31
HETATM   31  O4  UNL     1       9.509  27.766   3.884  1.00  0.00    -0.396 OA
ATOM     32  H4  UNL     1       8.781  27.929   4.473  1.00  0.00     0.209 HD
ENDBRANCH  30  31
ENDBRANCH  29  30
ENDBRANCH  27  29
ENDBRANCH  24  25
ENDBRANCH   2  24
BRANCH   1  33
HETATM   33  O1  UNL     1      14.457  21.123   3.947  1.00  0.00    -0.387 OA
HETATM   34  C1  UNL     1      14.549  21.245   2.566  1.00  0.00     0.202 C 
ENDBRANCH   1  33
BRANCH  14  35
HETATM   35  O5  UNL     1      20.037  17.868  11.215  1.00  0.00    -0.316 OA
BRANCH  35  36
HETATM   36  C19 UNL     1      21.177  17.099  11.370  1.00  0.00     0.255 C 
HETATM   37  C20 UNL     1      21.184  15.716  11.859  1.00  0.00     0.126 C 
HETATM   38  O6  UNL     1      22.278  17.630  11.070  1.00  0.00    -0.266 OA
ENDBRANCH  35  36
ENDBRANCH  14  35
TORSDOF 8
ENDMDL
MODEL 5
REMARK VINA RESULT: -8.022034243      2.884     10.881
REMARK  8 active torsions:
REMARK  status: ('A' for Active; 'I' for Inactive)
REMARK    1  A    between atoms: O1_2  and  C2_3 
REMARK    2  A    between atoms: C3_4  and  O2_5 
REMARK    3  A    between atoms: O2_5  and  C4_6 
REMARK       I    between atoms: C4_6  and  N1_8 
REMARK    4  A    between atoms: N1_8  and  C5_10 
REMARK    5  A    between atoms: C5_10  and  C6_11 
REMARK    6  A    between atoms: C6_11  and  O4_12 
REMARK    7  A    between atoms: C18_25  and  O5_26 
REMARK    8  A    between atoms: O5_26  and  C19_27 
ROOT
HETATM    1  C2  UNL     1      12.606  23.440   4.933  1.00  0.00     0.159 C 
HETATM    2  C3  UNL     1      12.475  22.862   3.552  1.00  0.00     0.163 C 
HETATM    3  C7  UNL     1      13.835  22.546   3.028  1.00  0.00     0.036 C 
HETATM    4  C8  UNL     1      14.913  22.623   4.057  1.00  0.00     0.013 C 
HETATM    5  C9  UNL     1      14.542  21.872   5.328  1.00  0.00    -0.030 C 
HETATM    6  C10 UNL     1      14.223  20.472   4.862  1.00  0.00     0.016 C 
HETATM    7  C11 UNL     1      15.755  21.936   6.229  1.00  0.00    -0.001 C 
HETATM    8  C12 UNL     1      16.864  21.059   5.878  1.00  0.00     0.006 C 
HETATM    9  C13 UNL     1      17.183  19.915   6.773  1.00  0.00     0.007 C 
HETATM   10  C14 UNL     1      17.052  20.146   8.234  1.00  0.00     0.004 C 
HETATM   11  C15 UNL     1      18.267  19.770   9.046  1.00  0.00    -0.017 C 
HETATM   12  C16 UNL     1      17.917  18.904  10.259  1.00  0.00     0.018 C 
HETATM   13  C17 UNL     1      19.271  18.923   8.250  1.00  0.00     0.018 C 
HETATM   14  C18 UNL     1      19.048  20.945   9.556  1.00  0.00     0.140 C 
HETATM   15  C21 UNL     1      18.952  22.090   8.611  1.00  0.00     0.034 C 
HETATM   16  C22 UNL     1      17.520  22.593   8.529  1.00  0.00     0.012 C 
HETATM   17  C23 UNL     1      16.512  21.513   8.585  1.00  0.00    -0.035 C 
HETATM   18  C24 UNL     1      15.855  21.549   9.960  1.00  0.00     0.016 C 
HETATM   19  C25 UNL     1      15.325  21.740   7.631  1.00  0.00    -0.001 C 
HETATM   20  C26 UNL     1      14.628  22.981   8.069  1.00  0.00     0.007 C 
HETATM   21  C27 UNL     1      13.642  23.446   7.084  1.00  0.00     0.013 C 
HETATM   22  C28 UNL     1      13.343  22.554   5.910  1.00  0.00    -0.008 C 
HETATM   23  C29 UNL     1      12.350  21.503   6.355  1.00  0.00     0.019 C 
ENDROOT
BRANCH   2  24
HETATM   24  O2  UNL     1      11.893  23.875   2.749  1.00  0.00    -0.296 OA
BRANCH  24  25
HETATM   25  C4  UNL     1      10.497  24.030   2.609  1.00  0.00     0.364 C 
HETATM   26  O3  UNL     1       9.869  22.954   2.789  1.00  0.00    -0.238 OA
HETATM   27  N1  UNL     1       9.920  25.259   2.305  1.00  0.00    -0.314 N 
ATOM     28  H1  UNL     1      10.558  26.047   2.197  1.00  0.00     0.170 HD
BRANCH  27  29
HETATM   29  C5  UNL     1       8.548  25.533   2.128  1.00  0.00     0.092 C 
BRANCH  29  30
HETATM   30  C6  UNL     1       7.782  25.738   3.382  1.00  0.00     0.208 C 
BRANCH  30  31
HETATM   31  O4  UNL     1       7.400  24.609   4.024  1.00  0.00    -0.396 OA
ATOM     32  H4  UNL     1       6.788  24.057   3.552  1.00  0.00     0.209 HD
ENDBRANCH  30  31
ENDBRANCH  29  30
ENDBRANCH  27  29
ENDBRANCH  24  25
ENDBRANCH   2  24
BRANCH   1  33
HETATM   33  O1  UNL     1      13.063  24.744   4.892  1.00  0.00    -0.387 OA
HETATM   34  C1  UNL     1      12.155  25.673   5.383  1.00  0.00     0.202 C 
ENDBRANCH   1  33
BRANCH  14  35
HETATM   35  O5  UNL     1      20.435  20.591   9.684  1.00  0.00    -0.316 OA
BRANCH  35  36
HETATM   36  C19 UNL     1      21.186  20.895  10.806  1.00  0.00     0.255 C 
HETATM   37  C20 UNL     1      21.644  22.243  11.158  1.00  0.00     0.126 C 
HETATM   38  O6  UNL     1      21.494  19.943  11.572  1.00  0.00    -0.266 OA
ENDBRANCH  35  36
ENDBRANCH  14  35
TORSDOF 8
ENDMDL
