MODEL 1
REMARK VINA RESULT: -7.502765844      0.000      0.000
REMARK  9 active torsions:
REMARK  status: ('A' for Active; 'I' for Inactive)
REMARK    1  A    between atoms: C13_13  and  O1_14 
REMARK    2  A    between atoms: O1_14  and  C14_15 
REMARK    3  A    between atoms: C14_15  and  C15_17 
REMARK    4  A    between atoms: C23_25  and  O3_26 
REMARK    5  A    between atoms: O3_26  and  C24_27 
REMARK    6  A    between atoms: C24_27  and  C25_28 
REMARK    7  A    between atoms: C25_28  and  C26_29 
REMARK    8  A    between atoms: C26_29  and  C27_30 
REMARK    9  A    between atoms: C29_34  and  O6_35 
ROOT
HETATM    1  C1  UNL     1       9.422  21.854   1.254  1.00  0.00     0.019 C 
HETATM    2  C2  UNL     1       9.471  22.943   2.094  1.00  0.00    -0.065 C 
HETATM    3  C3  UNL     1       8.219  23.454   2.537  1.00  0.00     0.013 C 
HETATM    4  C4  UNL     1       7.503  24.562   2.379  1.00  0.00    -0.061 C 
HETATM    5  C5  UNL     1       6.168  24.474   3.170  1.00  0.00     0.048 C 
HETATM    6  C6  UNL     1       7.689  25.764   1.608  1.00  0.00     0.013 C 
HETATM    7  C7  UNL     1       8.339  26.893   1.613  1.00  0.00    -0.062 C 
HETATM    8  C8  UNL     1       8.059  27.806   0.365  1.00  0.00     0.048 C 
HETATM    9  C9  UNL     1       9.263  27.495   2.551  1.00  0.00     0.003 C 
HETATM   10  C10 UNL     1       9.332  27.700   3.821  1.00  0.00    -0.019 C 
HETATM   11  C11 UNL     1       8.432  27.386   4.932  1.00  0.00     0.034 C 
HETATM   12  C12 UNL     1       7.725  28.674   5.297  1.00  0.00     0.017 C 
HETATM   13  C13 UNL     1       9.144  26.772   6.144  1.00  0.00     0.140 C 
HETATM   14  C19 UNL     1       9.467  25.321   5.971  1.00  0.00     0.043 C 
HETATM   15  C20 UNL     1      10.798  24.800   5.939  1.00  0.00     0.028 C 
HETATM   16  C21 UNL     1      12.037  25.484   5.665  1.00  0.00    -0.055 C 
HETATM   17  C22 UNL     1      12.731  26.613   5.634  1.00  0.00     0.017 C 
HETATM   18  C23 UNL     1      12.586  24.098   5.306  1.00  0.00     0.157 C 
HETATM   19  C28 UNL     1      11.176  23.775   4.881  1.00  0.00     0.056 C 
HETATM   20  C29 UNL     1      10.935  24.242   3.502  1.00  0.00     0.130 C 
HETATM   21  C30 UNL     1      10.891  23.321   2.376  1.00  0.00     0.070 C 
ENDROOT
BRANCH  13  22
HETATM   22  O1  UNL     1       8.243  27.005   7.217  1.00  0.00    -0.312 OA
BRANCH  22  23
HETATM   23  C14 UNL     1       8.367  27.869   8.233  1.00  0.00     0.283 C 
HETATM   24  O2  UNL     1       7.337  28.206   8.852  1.00  0.00    -0.260 OA
BRANCH  23  25
HETATM   25  C15 UNL     1       9.642  28.418   8.631  1.00  0.00     0.084 C 
HETATM   26  C16 UNL     1      10.555  27.659   9.199  1.00  0.00    -0.082 C 
HETATM   27  C17 UNL     1      11.872  28.285   9.596  1.00  0.00     0.043 C 
HETATM   28  C18 UNL     1      10.399  26.218   9.483  1.00  0.00     0.043 C 
ENDBRANCH  23  25
ENDBRANCH  22  23
ENDBRANCH  13  22
BRANCH  18  29
HETATM   29  O3  UNL     1      12.974  23.497   6.482  1.00  0.00    -0.381 OA
BRANCH  29  30
HETATM   30  C24 UNL     1      14.259  22.960   6.413  1.00  0.00     0.169 C 
BRANCH  30  31
HETATM   31  C25 UNL     1      14.773  22.947   4.991  1.00  0.00     0.037 C 
BRANCH  31  32
HETATM   32  C26 UNL     1      15.133  21.525   4.613  1.00  0.00     0.115 C 
BRANCH  32  33
HETATM   33  C27 UNL     1      14.686  21.235   3.231  1.00  0.00     0.172 C 
HETATM   34  O4  UNL     1      14.117  22.137   2.569  1.00  0.00    -0.648 OA
HETATM   35  O5  UNL     1      14.863  20.006   2.615  1.00  0.00    -0.648 OA
ENDBRANCH  32  33
ENDBRANCH  31  32
ENDBRANCH  30  31
ENDBRANCH  29  30
ENDBRANCH  18  29
BRANCH  20  36
HETATM   36  O6  UNL     1      11.936  25.193   3.104  1.00  0.00    -0.395 OA
ATOM     37  H6  UNL     1      12.315  24.952   2.267  1.00  0.00     0.210 HD
ENDBRANCH  20  36
TORSDOF 9
ENDMDL
MODEL 2
REMARK VINA RESULT: -7.384792613      1.145      1.439
REMARK  9 active torsions:
REMARK  status: ('A' for Active; 'I' for Inactive)
REMARK    1  A    between atoms: C13_13  and  O1_14 
REMARK    2  A    between atoms: O1_14  and  C14_15 
REMARK    3  A    between atoms: C14_15  and  C15_17 
REMARK    4  A    between atoms: C23_25  and  O3_26 
REMARK    5  A    between atoms: O3_26  and  C24_27 
REMARK    6  A    between atoms: C24_27  and  C25_28 
REMARK    7  A    between atoms: C25_28  and  C26_29 
REMARK    8  A    between atoms: C26_29  and  C27_30 
REMARK    9  A    between atoms: C29_34  and  O6_35 
ROOT
HETATM    1  C1  UNL     1       9.406  22.041   1.076  1.00  0.00     0.019 C 
HETATM    2  C2  UNL     1       9.462  23.080   1.978  1.00  0.00    -0.065 C 
HETATM    3  C3  UNL     1       8.213  23.607   2.411  1.00  0.00     0.013 C 
HETATM    4  C4  UNL     1       7.537  24.745   2.295  1.00  0.00    -0.061 C 
HETATM    5  C5  UNL     1       6.176  24.657   3.039  1.00  0.00     0.048 C 
HETATM    6  C6  UNL     1       7.786  25.981   1.598  1.00  0.00     0.013 C 
HETATM    7  C7  UNL     1       8.470  27.086   1.687  1.00  0.00    -0.062 C 
HETATM    8  C8  UNL     1       8.259  28.076   0.486  1.00  0.00     0.048 C 
HETATM    9  C9  UNL     1       9.382  27.603   2.686  1.00  0.00     0.003 C 
HETATM   10  C10 UNL     1       9.417  27.736   3.967  1.00  0.00    -0.019 C 
HETATM   11  C11 UNL     1       8.472  27.389   5.031  1.00  0.00     0.034 C 
HETATM   12  C12 UNL     1       7.795  28.678   5.446  1.00  0.00     0.017 C 
HETATM   13  C13 UNL     1       9.126  26.686   6.227  1.00  0.00     0.140 C 
HETATM   14  C19 UNL     1       9.408  25.237   5.982  1.00  0.00     0.043 C 
HETATM   15  C20 UNL     1      10.723  24.675   5.960  1.00  0.00     0.028 C 
HETATM   16  C21 UNL     1      11.991  25.332   5.763  1.00  0.00    -0.055 C 
HETATM   17  C22 UNL     1      12.721  26.437   5.817  1.00  0.00     0.017 C 
HETATM   18  C23 UNL     1      12.507  23.951   5.342  1.00  0.00     0.157 C 
HETATM   19  C28 UNL     1      11.103  23.699   4.857  1.00  0.00     0.056 C 
HETATM   20  C29 UNL     1      10.920  24.249   3.500  1.00  0.00     0.130 C 
HETATM   21  C30 UNL     1      10.883  23.395   2.323  1.00  0.00     0.070 C 
ENDROOT
BRANCH  13  22
HETATM   22  O1  UNL     1       8.198  26.889   7.283  1.00  0.00    -0.312 OA
BRANCH  22  23
HETATM   23  C14 UNL     1       8.443  27.296   8.536  1.00  0.00     0.283 C 
HETATM   24  O2  UNL     1       8.049  28.431   8.875  1.00  0.00    -0.260 OA
BRANCH  23  25
HETATM   25  C15 UNL     1       9.141  26.474   9.496  1.00  0.00     0.084 C 
HETATM   26  C16 UNL     1      10.437  26.606   9.679  1.00  0.00    -0.082 C 
HETATM   27  C17 UNL     1      11.118  25.719  10.696  1.00  0.00     0.043 C 
HETATM   28  C18 UNL     1      11.299  27.569   8.964  1.00  0.00     0.043 C 
ENDBRANCH  23  25
ENDBRANCH  22  23
ENDBRANCH  13  22
BRANCH  18  29
HETATM   29  O3  UNL     1      12.838  23.272   6.493  1.00  0.00    -0.381 OA
BRANCH  29  30
HETATM   30  C24 UNL     1      13.301  21.981   6.242  1.00  0.00     0.169 C 
BRANCH  30  31
HETATM   31  C25 UNL     1      14.007  21.901   4.907  1.00  0.00     0.037 C 
BRANCH  31  32
HETATM   32  C26 UNL     1      15.456  21.527   5.141  1.00  0.00     0.115 C 
BRANCH  32  33
HETATM   33  C27 UNL     1      16.229  22.717   5.565  1.00  0.00     0.172 C 
HETATM   34  O4  UNL     1      16.244  23.733   4.827  1.00  0.00    -0.648 OA
HETATM   35  O5  UNL     1      16.948  22.778   6.749  1.00  0.00    -0.648 OA
ENDBRANCH  32  33
ENDBRANCH  31  32
ENDBRANCH  30  31
ENDBRANCH  29  30
ENDBRANCH  18  29
BRANCH  20  36
HETATM   36  O6  UNL     1      11.963  25.187   3.188  1.00  0.00    -0.395 OA
ATOM     37  H6  UNL     1      12.818  24.793   3.311  1.00  0.00     0.210 HD
ENDBRANCH  20  36
TORSDOF 9
ENDMDL
MODEL 3
REMARK VINA RESULT: -6.994269940     10.148     13.168
REMARK  9 active torsions:
REMARK  status: ('A' for Active; 'I' for Inactive)
REMARK    1  A    between atoms: C13_13  and  O1_14 
REMARK    2  A    between atoms: O1_14  and  C14_15 
REMARK    3  A    between atoms: C14_15  and  C15_17 
REMARK    4  A    between atoms: C23_25  and  O3_26 
REMARK    5  A    between atoms: O3_26  and  C24_27 
REMARK    6  A    between atoms: C24_27  and  C25_28 
REMARK    7  A    between atoms: C25_28  and  C26_29 
REMARK    8  A    between atoms: C26_29  and  C27_30 
REMARK    9  A    between atoms: C29_34  and  O6_35 
ROOT
HETATM    1  C1  UNL     1      18.242  19.890   5.506  1.00  0.00     0.019 C 
HETATM    2  C2  UNL     1      18.447  19.411   6.780  1.00  0.00    -0.065 C 
HETATM    3  C3  UNL     1      17.671  20.010   7.812  1.00  0.00     0.013 C 
HETATM    4  C4  UNL     1      17.884  20.772   8.879  1.00  0.00    -0.061 C 
HETATM    5  C5  UNL     1      16.548  21.088   9.607  1.00  0.00     0.048 C 
HETATM    6  C6  UNL     1      19.059  21.383   9.446  1.00  0.00     0.013 C 
HETATM    7  C7  UNL     1      20.108  21.108  10.167  1.00  0.00    -0.062 C 
HETATM    8  C8  UNL     1      21.057  22.334  10.423  1.00  0.00     0.048 C 
HETATM    9  C9  UNL     1      20.577  19.894  10.804  1.00  0.00     0.003 C 
HETATM   10  C10 UNL     1      20.092  18.961  11.547  1.00  0.00    -0.019 C 
HETATM   11  C11 UNL     1      18.758  18.717  12.099  1.00  0.00     0.034 C 
HETATM   12  C12 UNL     1      18.811  19.122  13.557  1.00  0.00     0.017 C 
HETATM   13  C13 UNL     1      18.279  17.270  11.933  1.00  0.00     0.140 C 
HETATM   14  C19 UNL     1      17.784  16.962  10.555  1.00  0.00     0.043 C 
HETATM   15  C20 UNL     1      18.399  16.010   9.682  1.00  0.00     0.028 C 
HETATM   16  C21 UNL     1      19.736  15.474   9.717  1.00  0.00    -0.055 C 
HETATM   17  C22 UNL     1      20.833  15.195  10.408  1.00  0.00     0.017 C 
HETATM   18  C23 UNL     1      19.522  15.158   8.233  1.00  0.00     0.157 C 
HETATM   19  C28 UNL     1      18.624  16.369   8.222  1.00  0.00     0.056 C 
HETATM   20  C29 UNL     1      19.419  17.598   8.037  1.00  0.00     0.130 C 
HETATM   21  C30 UNL     1      19.455  18.305   6.766  1.00  0.00     0.070 C 
ENDROOT
BRANCH  13  22
HETATM   22  O1  UNL     1      17.265  17.136  12.918  1.00  0.00    -0.312 OA
BRANCH  22  23
HETATM   23  C14 UNL     1      16.786  16.014  13.471  1.00  0.00     0.283 C 
HETATM   24  O2  UNL     1      17.504  14.993  13.449  1.00  0.00    -0.260 OA
BRANCH  23  25
HETATM   25  C15 UNL     1      15.481  15.948  14.084  1.00  0.00     0.084 C 
HETATM   26  C16 UNL     1      14.390  15.953  13.348  1.00  0.00    -0.082 C 
HETATM   27  C17 UNL     1      13.049  15.883  14.040  1.00  0.00     0.043 C 
HETATM   28  C18 UNL     1      14.366  16.019  11.872  1.00  0.00     0.043 C 
ENDBRANCH  23  25
ENDBRANCH  22  23
ENDBRANCH  13  22
BRANCH  18  29
HETATM   29  O3  UNL     1      18.852  13.957   8.165  1.00  0.00    -0.381 OA
BRANCH  29  30
HETATM   30  C24 UNL     1      19.363  13.112   7.180  1.00  0.00     0.169 C 
BRANCH  30  31
HETATM   31  C25 UNL     1      19.586  13.855   5.881  1.00  0.00     0.037 C 
BRANCH  31  32
HETATM   32  C26 UNL     1      20.879  13.371   5.257  1.00  0.00     0.115 C 
BRANCH  32  33
HETATM   33  C27 UNL     1      21.791  14.513   5.019  1.00  0.00     0.172 C 
HETATM   34  O4  UNL     1      22.645  14.435   4.102  1.00  0.00    -0.648 OA
HETATM   35  O5  UNL     1      21.757  15.683   5.762  1.00  0.00    -0.648 OA
ENDBRANCH  32  33
ENDBRANCH  31  32
ENDBRANCH  30  31
ENDBRANCH  29  30
ENDBRANCH  18  29
BRANCH  20  36
HETATM   36  O6  UNL     1      20.808  17.351   8.310  1.00  0.00    -0.395 OA
ATOM     37  H6  UNL     1      21.204  18.098   8.742  1.00  0.00     0.210 HD
ENDBRANCH  20  36
TORSDOF 9
ENDMDL
MODEL 4
REMARK VINA RESULT: -6.802587061      7.188     13.616
REMARK  9 active torsions:
REMARK  status: ('A' for Active; 'I' for Inactive)
REMARK    1  A    between atoms: C13_13  and  O1_14 
REMARK    2  A    between atoms: O1_14  and  C14_15 
REMARK    3  A    between atoms: C14_15  and  C15_17 
REMARK    4  A    between atoms: C23_25  and  O3_26 
REMARK    5  A    between atoms: O3_26  and  C24_27 
REMARK    6  A    between atoms: C24_27  and  C25_28 
REMARK    7  A    between atoms: C25_28  and  C26_29 
REMARK    8  A    between atoms: C26_29  and  C27_30 
REMARK    9  A    between atoms: C29_34  and  O6_35 
ROOT
HETATM    1  C1  UNL     1      18.554  14.661  12.008  1.00  0.00     0.019 C 
HETATM    2  C2  UNL     1      18.909  15.164  10.776  1.00  0.00    -0.065 C 
HETATM    3  C3  UNL     1      18.792  14.273   9.674  1.00  0.00     0.013 C 
HETATM    4  C4  UNL     1      19.605  13.665   8.816  1.00  0.00    -0.061 C 
HETATM    5  C5  UNL     1      18.797  12.790   7.817  1.00  0.00     0.048 C 
HETATM    6  C6  UNL     1      21.036  13.619   8.665  1.00  0.00     0.013 C 
HETATM    7  C7  UNL     1      22.040  14.313   8.210  1.00  0.00    -0.062 C 
HETATM    8  C8  UNL     1      23.439  13.619   8.383  1.00  0.00     0.048 C 
HETATM    9  C9  UNL     1      22.131  15.601   7.553  1.00  0.00     0.003 C 
HETATM   10  C10 UNL     1      21.547  16.220   6.586  1.00  0.00    -0.019 C 
HETATM   11  C11 UNL     1      20.459  15.851   5.678  1.00  0.00     0.034 C 
HETATM   12  C12 UNL     1      21.102  15.491   4.355  1.00  0.00     0.017 C 
HETATM   13  C13 UNL     1      19.401  16.948   5.509  1.00  0.00     0.140 C 
HETATM   14  C19 UNL     1      18.442  17.029   6.654  1.00  0.00     0.043 C 
HETATM   15  C20 UNL     1      18.321  18.165   7.515  1.00  0.00     0.028 C 
HETATM   16  C21 UNL     1      19.263  19.229   7.753  1.00  0.00    -0.055 C 
HETATM   17  C22 UNL     1      20.298  19.949   7.340  1.00  0.00     0.017 C 
HETATM   18  C23 UNL     1      18.511  19.441   9.072  1.00  0.00     0.157 C 
HETATM   19  C28 UNL     1      18.233  17.960   9.019  1.00  0.00     0.056 C 
HETATM   20  C29 UNL     1      19.370  17.202   9.574  1.00  0.00     0.130 C 
HETATM   21  C30 UNL     1      19.318  16.598  10.897  1.00  0.00     0.070 C 
ENDROOT
BRANCH  13  22
HETATM   22  O1  UNL     1      18.762  16.614   4.286  1.00  0.00    -0.312 OA
BRANCH  22  23
HETATM   23  C14 UNL     1      18.326  17.438   3.324  1.00  0.00     0.283 C 
HETATM   24  O2  UNL     1      19.173  18.033   2.627  1.00  0.00    -0.260 OA
BRANCH  23  25
HETATM   25  C15 UNL     1      16.921  17.658   3.072  1.00  0.00     0.084 C 
HETATM   26  C16 UNL     1      16.293  18.683   3.608  1.00  0.00    -0.082 C 
HETATM   27  C17 UNL     1      14.823  18.866   3.312  1.00  0.00     0.043 C 
HETATM   28  C18 UNL     1      16.917  19.691   4.488  1.00  0.00     0.043 C 
ENDBRANCH  23  25
ENDBRANCH  22  23
ENDBRANCH  13  22
BRANCH  18  29
HETATM   29  O3  UNL     1      17.419  20.232   8.795  1.00  0.00    -0.381 OA
BRANCH  29  30
HETATM   30  C24 UNL     1      17.599  21.556   9.192  1.00  0.00     0.169 C 
BRANCH  30  31
HETATM   31  C25 UNL     1      16.690  22.488   8.422  1.00  0.00     0.037 C 
BRANCH  31  32
HETATM   32  C26 UNL     1      17.086  22.461   6.960  1.00  0.00     0.115 C 
BRANCH  32  33
HETATM   33  C27 UNL     1      16.045  23.118   6.137  1.00  0.00     0.172 C 
HETATM   34  O4  UNL     1      14.985  23.509   6.685  1.00  0.00    -0.648 OA
HETATM   35  O5  UNL     1      16.173  23.330   4.773  1.00  0.00    -0.648 OA
ENDBRANCH  32  33
ENDBRANCH  31  32
ENDBRANCH  30  31
ENDBRANCH  29  30
ENDBRANCH  18  29
BRANCH  20  36
HETATM   36  O6  UNL     1      20.546  18.026   9.640  1.00  0.00    -0.395 OA
ATOM     37  H6  UNL     1      21.294  17.521   9.936  1.00  0.00     0.210 HD
ENDBRANCH  20  36
TORSDOF 9
ENDMDL
MODEL 5
REMARK VINA RESULT: -6.645967294      9.837     13.278
REMARK  9 active torsions:
REMARK  status: ('A' for Active; 'I' for Inactive)
REMARK    1  A    between atoms: C13_13  and  O1_14 
REMARK    2  A    between atoms: O1_14  and  C14_15 
REMARK    3  A    between atoms: C14_15  and  C15_17 
REMARK    4  A    between atoms: C23_25  and  O3_26 
REMARK    5  A    between atoms: O3_26  and  C24_27 
REMARK    6  A    between atoms: C24_27  and  C25_28 
REMARK    7  A    between atoms: C25_28  and  C26_29 
REMARK    8  A    between atoms: C26_29  and  C27_30 
REMARK    9  A    between atoms: C29_34  and  O6_35 
ROOT
HETATM    1  C1  UNL     1      17.843  20.243   5.316  1.00  0.00     0.019 C 
HETATM    2  C2  UNL     1      18.152  19.726   6.554  1.00  0.00    -0.065 C 
HETATM    3  C3  UNL     1      17.430  20.259   7.658  1.00  0.00     0.013 C 
HETATM    4  C4  UNL     1      17.689  20.989   8.737  1.00  0.00    -0.061 C 
HETATM    5  C5  UNL     1      16.396  21.228   9.565  1.00  0.00     0.048 C 
HETATM    6  C6  UNL     1      18.879  21.622   9.246  1.00  0.00     0.013 C 
HETATM    7  C7  UNL     1      19.984  21.360   9.884  1.00  0.00    -0.062 C 
HETATM    8  C8  UNL     1      20.905  22.610  10.123  1.00  0.00     0.048 C 
HETATM    9  C9  UNL     1      20.537  20.143  10.441  1.00  0.00     0.003 C 
HETATM   10  C10 UNL     1      20.136  19.165  11.178  1.00  0.00    -0.019 C 
HETATM   11  C11 UNL     1      18.853  18.853  11.809  1.00  0.00     0.034 C 
HETATM   12  C12 UNL     1      18.993  19.206  13.275  1.00  0.00     0.017 C 
HETATM   13  C13 UNL     1      18.414  17.395  11.620  1.00  0.00     0.140 C 
HETATM   14  C19 UNL     1      17.837  17.120  10.268  1.00  0.00     0.043 C 
HETATM   15  C20 UNL     1      18.422  16.223   9.319  1.00  0.00     0.028 C 
HETATM   16  C21 UNL     1      19.776  15.736   9.243  1.00  0.00    -0.055 C 
HETATM   17  C22 UNL     1      20.927  15.473   9.847  1.00  0.00     0.017 C 
HETATM   18  C23 UNL     1      19.471  15.467   7.765  1.00  0.00     0.157 C 
HETATM   19  C28 UNL     1      18.533  16.643   7.862  1.00  0.00     0.056 C 
HETATM   20  C29 UNL     1      19.270  17.906   7.671  1.00  0.00     0.130 C 
HETATM   21  C30 UNL     1      19.194  18.660   6.429  1.00  0.00     0.070 C 
ENDROOT
BRANCH  13  22
HETATM   22  O1  UNL     1      17.475  17.189  12.666  1.00  0.00    -0.312 OA
BRANCH  22  23
HETATM   23  C14 UNL     1      17.055  16.029  13.188  1.00  0.00     0.283 C 
HETATM   24  O2  UNL     1      17.754  15.011  13.004  1.00  0.00    -0.260 OA
BRANCH  23  25
HETATM   25  C15 UNL     1      15.833  15.919  13.948  1.00  0.00     0.084 C 
HETATM   26  C16 UNL     1      14.661  15.981  13.351  1.00  0.00    -0.082 C 
HETATM   27  C17 UNL     1      13.412  15.862  14.193  1.00  0.00     0.043 C 
HETATM   28  C18 UNL     1      14.460  16.157  11.898  1.00  0.00     0.043 C 
ENDBRANCH  23  25
ENDBRANCH  22  23
ENDBRANCH  13  22
BRANCH  18  29
HETATM   29  O3  UNL     1      18.841  14.245   7.696  1.00  0.00    -0.381 OA
BRANCH  29  30
HETATM   30  C24 UNL     1      19.550  13.315   6.936  1.00  0.00     0.169 C 
BRANCH  30  31
HETATM   31  C25 UNL     1      19.953  12.118   7.770  1.00  0.00     0.037 C 
BRANCH  31  32
HETATM   32  C26 UNL     1      18.962  11.957   8.904  1.00  0.00     0.115 C 
BRANCH  32  33
HETATM   33  C27 UNL     1      19.671  11.963  10.205  1.00  0.00     0.172 C 
HETATM   34  O4  UNL     1      19.172  12.590  11.172  1.00  0.00    -0.648 OA
HETATM   35  O5  UNL     1      20.872  11.306  10.423  1.00  0.00    -0.648 OA
ENDBRANCH  32  33
ENDBRANCH  31  32
ENDBRANCH  30  31
ENDBRANCH  29  30
ENDBRANCH  18  29
BRANCH  20  36
HETATM   36  O6  UNL     1      20.683  17.701   7.840  1.00  0.00    -0.395 OA
ATOM     37  H6  UNL     1      21.082  17.424   7.024  1.00  0.00     0.210 HD
ENDBRANCH  20  36
TORSDOF 9
ENDMDL
