MODEL 1
REMARK VINA RESULT: -9.727212342      0.000      0.000
REMARK  8 active torsions:
REMARK  status: ('A' for Active; 'I' for Inactive)
REMARK    1  A    between atoms: C3_3  and  C4_4 
REMARK    2  A    between atoms: C5_6  and  C6_7 
REMARK    3  A    between atoms: C6_7  and  C7_8 
REMARK    4  A    between atoms: C7_8  and  O2_9 
REMARK    5  A    between atoms: C16_21  and  C18_23 
REMARK    6  A    between atoms: C18_23  and  O5_24 
REMARK    7  A    between atoms: C18_23  and  O6_26 
REMARK    8  A    between atoms: O6_26  and  C19_27 
ROOT
HETATM    1  C7  UNL     1      13.720  22.621   6.700  1.00  0.00     0.074 C 
HETATM    2  C8  UNL     1      13.273  21.634   5.706  1.00  0.00     0.066 C 
HETATM    3  C9  UNL     1      14.359  20.578   5.838  1.00  0.00    -0.020 C 
HETATM    4  C10 UNL     1      15.468  21.139   6.307  1.00  0.00    -0.068 C 
HETATM    5  C11 UNL     1      16.823  20.580   6.630  1.00  0.00     0.020 C 
HETATM    6  C12 UNL     1      17.777  20.680   5.483  1.00  0.00     0.013 C 
HETATM    7  C13 UNL     1      18.932  19.714   5.747  1.00  0.00     0.044 C 
HETATM    8  C14 UNL     1      19.057  19.452   7.220  1.00  0.00     0.120 A 
HETATM    9  O3  UNL     1      18.674  18.208   7.668  1.00  0.00    -0.342 OA
HETATM   10  C15 UNL     1      19.934  18.684   7.928  1.00  0.00     0.297 A 
HETATM   11  O4  UNL     1      20.175  19.275   9.163  1.00  0.00    -0.342 OA
HETATM   12  C16 UNL     1      19.188  20.222   9.405  1.00  0.00     0.117 C 
HETATM   13  C17 UNL     1      18.058  19.626  10.202  1.00  0.00     0.052 C 
HETATM   14  C21 UNL     1      18.804  20.693   8.048  1.00  0.00     0.069 C 
HETATM   15  C22 UNL     1      17.389  21.177   7.905  1.00  0.00     0.004 C 
HETATM   16  C23 UNL     1      17.384  22.677   7.771  1.00  0.00     0.007 C 
HETATM   17  C24 UNL     1      15.927  23.099   7.717  1.00  0.00     0.017 C 
HETATM   18  C25 UNL     1      15.231  22.589   6.502  1.00  0.00     0.011 C 
HETATM   19  C26 UNL     1      15.637  23.296   5.236  1.00  0.00     0.023 C 
ENDROOT
BRANCH   1  20
HETATM   20  C6  UNL     1      13.185  23.981   6.719  1.00  0.00     0.073 C 
BRANCH  20  21
HETATM   21  C5  UNL     1      12.612  24.576   5.477  1.00  0.00     0.149 C 
HETATM   22  O1  UNL     1      11.217  24.188   5.495  1.00  0.00    -0.371 OA
HETATM   23  C4  UNL     1      10.631  24.577   4.298  1.00  0.00     0.178 C 
HETATM   24  C28 UNL     1      10.801  26.060   4.043  1.00  0.00     0.083 C 
HETATM   25  O7  UNL     1      12.103  26.472   4.212  1.00  0.00    -0.376 OA
HETATM   26  C29 UNL     1      10.427  26.327   2.586  1.00  0.00     0.049 C 
HETATM   27  C30 UNL     1       9.882  26.841   4.933  1.00  0.00     0.049 C 
HETATM   28  C27 UNL     1      12.511  26.085   5.496  1.00  0.00     0.200 C 
BRANCH  23  29
HETATM   29  C3  UNL     1      11.163  23.793   3.154  1.00  0.00     0.003 C 
HETATM   30  C2  UNL     1      10.426  22.945   2.458  1.00  0.00    -0.032 C 
HETATM   31  C1  UNL     1       9.006  22.747   2.810  1.00  0.00     0.036 C 
ENDBRANCH  23  29
ENDBRANCH  20  21
ENDBRANCH   1  20
BRANCH   1  32
HETATM   32  O2  UNL     1      13.526  22.023   7.976  1.00  0.00    -0.388 OA
ATOM     33  H2  UNL     1      13.252  21.121   7.860  1.00  0.00     0.210 HD
ENDBRANCH   1  32
BRANCH  12  34
HETATM   34  C18 UNL     1      19.827  21.317  10.240  1.00  0.00     0.291 C 
BRANCH  34  35
HETATM   35  O5  UNL     1      20.958  21.840   9.598  1.00  0.00    -0.368 OA
ATOM     36  H5  UNL     1      21.738  21.708  10.125  1.00  0.00     0.212 HD
ENDBRANCH  34  35
BRANCH  34  37
HETATM   37  O6  UNL     1      20.128  20.877  11.503  1.00  0.00    -0.359 OA
BRANCH  37  38
HETATM   38  C19 UNL     1      21.381  21.242  11.940  1.00  0.00     0.166 C 
HETATM   39  C20 UNL     1      21.525  21.213  13.430  1.00  0.00     0.033 C 
ENDBRANCH  37  38
ENDBRANCH  34  37
ENDBRANCH  12  34
TORSDOF 8
ENDMDL
MODEL 2
REMARK VINA RESULT: -9.550781716      3.373     11.533
REMARK  8 active torsions:
REMARK  status: ('A' for Active; 'I' for Inactive)
REMARK    1  A    between atoms: C3_3  and  C4_4 
REMARK    2  A    between atoms: C5_6  and  C6_7 
REMARK    3  A    between atoms: C6_7  and  C7_8 
REMARK    4  A    between atoms: C7_8  and  O2_9 
REMARK    5  A    between atoms: C16_21  and  C18_23 
REMARK    6  A    between atoms: C18_23  and  O5_24 
REMARK    7  A    between atoms: C18_23  and  O6_26 
REMARK    8  A    between atoms: O6_26  and  C19_27 
ROOT
HETATM    1  C7  UNL     1      11.582  23.809   5.187  1.00  0.00     0.074 C 
HETATM    2  C8  UNL     1      11.591  24.067   6.634  1.00  0.00     0.066 C 
HETATM    3  C9  UNL     1      10.317  24.885   6.789  1.00  0.00    -0.020 C 
HETATM    4  C10 UNL     1      10.031  25.481   5.637  1.00  0.00    -0.068 C 
HETATM    5  C11 UNL     1       8.910  26.389   5.223  1.00  0.00     0.020 C 
HETATM    6  C12 UNL     1       9.248  27.836   5.387  1.00  0.00     0.013 C 
HETATM    7  C13 UNL     1       7.941  28.628   5.374  1.00  0.00     0.044 C 
HETATM    8  C14 UNL     1       6.878  27.856   4.646  1.00  0.00     0.120 A 
HETATM    9  O3  UNL     1       5.870  27.312   5.408  1.00  0.00    -0.342 OA
HETATM   10  C15 UNL     1       5.577  28.155   4.367  1.00  0.00     0.297 A 
HETATM   11  O4  UNL     1       5.227  27.598   3.143  1.00  0.00    -0.342 OA
HETATM   12  C16 UNL     1       6.172  26.639   2.802  1.00  0.00     0.117 C 
HETATM   13  C17 UNL     1       5.735  25.272   3.256  1.00  0.00     0.052 C 
HETATM   14  C21 UNL     1       7.424  27.129   3.436  1.00  0.00     0.069 C 
HETATM   15  C22 UNL     1       8.413  26.068   3.825  1.00  0.00     0.004 C 
HETATM   16  C23 UNL     1       9.587  26.108   2.883  1.00  0.00     0.007 C 
HETATM   17  C24 UNL     1      10.498  24.961   3.281  1.00  0.00     0.017 C 
HETATM   18  C25 UNL     1      11.076  25.139   4.643  1.00  0.00     0.011 C 
HETATM   19  C26 UNL     1      12.140  26.204   4.710  1.00  0.00     0.023 C 
ENDROOT
BRANCH   1  20
HETATM   20  C6  UNL     1      12.776  23.335   4.489  1.00  0.00     0.073 C 
BRANCH  20  21
HETATM   21  C5  UNL     1      14.067  23.201   5.225  1.00  0.00     0.149 C 
HETATM   22  O1  UNL     1      13.978  21.919   5.891  1.00  0.00    -0.371 OA
HETATM   23  C4  UNL     1      15.082  21.771   6.721  1.00  0.00     0.178 C 
HETATM   24  C28 UNL     1      16.382  21.923   5.961  1.00  0.00     0.083 C 
HETATM   25  O7  UNL     1      16.397  23.051   5.174  1.00  0.00    -0.376 OA
HETATM   26  C29 UNL     1      17.504  22.072   6.988  1.00  0.00     0.049 C 
HETATM   27  C30 UNL     1      16.638  20.699   5.134  1.00  0.00     0.049 C 
HETATM   28  C27 UNL     1      15.275  23.002   4.335  1.00  0.00     0.200 C 
BRANCH  23  29
HETATM   29  C3  UNL     1      15.034  22.724   7.860  1.00  0.00     0.003 C 
HETATM   30  C2  UNL     1      15.017  22.335   9.123  1.00  0.00    -0.032 C 
HETATM   31  C1  UNL     1      15.045  20.895   9.447  1.00  0.00     0.036 C 
ENDBRANCH  23  29
ENDBRANCH  20  21
ENDBRANCH   1  20
BRANCH   1  32
HETATM   32  O2  UNL     1      10.510  22.906   4.946  1.00  0.00    -0.388 OA
ATOM     33  H2  UNL     1      10.305  22.905   4.018  1.00  0.00     0.210 HD
ENDBRANCH   1  32
BRANCH  12  34
HETATM   34  C18 UNL     1       6.256  26.627   1.285  1.00  0.00     0.291 C 
BRANCH  34  35
HETATM   35  O5  UNL     1       6.870  25.454   0.828  1.00  0.00    -0.368 OA
ATOM     36  H5  UNL     1       6.275  24.716   0.884  1.00  0.00     0.212 HD
ENDBRANCH  34  35
BRANCH  34  37
HETATM   37  O6  UNL     1       6.894  27.743   0.808  1.00  0.00    -0.359 OA
BRANCH  37  38
HETATM   38  C19 UNL     1       7.872  27.475  -0.122  1.00  0.00     0.166 C 
HETATM   39  C20 UNL     1       7.522  27.927  -1.505  1.00  0.00     0.033 C 
ENDBRANCH  37  38
ENDBRANCH  34  37
ENDBRANCH  12  34
TORSDOF 8
ENDMDL
MODEL 3
REMARK VINA RESULT: -9.424183050      2.036      3.188
REMARK  8 active torsions:
REMARK  status: ('A' for Active; 'I' for Inactive)
REMARK    1  A    between atoms: C3_3  and  C4_4 
REMARK    2  A    between atoms: C5_6  and  C6_7 
REMARK    3  A    between atoms: C6_7  and  C7_8 
REMARK    4  A    between atoms: C7_8  and  O2_9 
REMARK    5  A    between atoms: C16_21  and  C18_23 
REMARK    6  A    between atoms: C18_23  and  O5_24 
REMARK    7  A    between atoms: C18_23  and  O6_26 
REMARK    8  A    between atoms: O6_26  and  C19_27 
ROOT
HETATM    1  C7  UNL     1      14.799  21.561   6.660  1.00  0.00     0.074 C 
HETATM    2  C8  UNL     1      15.708  22.117   5.646  1.00  0.00     0.066 C 
HETATM    3  C9  UNL     1      17.050  21.612   6.153  1.00  0.00    -0.020 C 
HETATM    4  C10 UNL     1      16.975  21.391   7.462  1.00  0.00    -0.068 C 
HETATM    5  C11 UNL     1      17.979  20.895   8.460  1.00  0.00     0.020 C 
HETATM    6  C12 UNL     1      18.724  22.005   9.130  1.00  0.00     0.013 C 
HETATM    7  C13 UNL     1      19.983  21.412   9.761  1.00  0.00     0.044 C 
HETATM    8  C14 UNL     1      19.785  19.947  10.026  1.00  0.00     0.120 A 
HETATM    9  O3  UNL     1      20.473  19.069   9.219  1.00  0.00    -0.342 OA
HETATM   10  C15 UNL     1      20.607  19.012  10.582  1.00  0.00     0.297 A 
HETATM   11  O4  UNL     1      19.845  18.085  11.284  1.00  0.00    -0.342 OA
HETATM   12  C16 UNL     1      18.520  18.202  10.884  1.00  0.00     0.117 C 
HETATM   13  C17 UNL     1      18.207  17.233   9.775  1.00  0.00     0.052 C 
HETATM   14  C21 UNL     1      18.385  19.634  10.508  1.00  0.00     0.069 C 
HETATM   15  C22 UNL     1      17.356  19.935   9.456  1.00  0.00     0.004 C 
HETATM   16  C23 UNL     1      16.173  20.614  10.094  1.00  0.00     0.007 C 
HETATM   17  C24 UNL     1      15.144  20.810   8.995  1.00  0.00     0.017 C 
HETATM   18  C25 UNL     1      15.615  21.744   7.934  1.00  0.00     0.011 C 
HETATM   19  C26 UNL     1      15.640  23.186   8.371  1.00  0.00     0.023 C 
ENDROOT
BRANCH   1  20
HETATM   20  C6  UNL     1      13.425  22.042   6.799  1.00  0.00     0.073 C 
BRANCH  20  21
HETATM   21  C5  UNL     1      12.941  23.174   5.957  1.00  0.00     0.149 C 
HETATM   22  O1  UNL     1      11.525  22.925   5.788  1.00  0.00    -0.371 OA
HETATM   23  C4  UNL     1      11.013  23.856   4.893  1.00  0.00     0.178 C 
HETATM   24  C28 UNL     1      11.289  25.277   5.339  1.00  0.00     0.083 C 
HETATM   25  O7  UNL     1      12.607  25.469   5.684  1.00  0.00    -0.376 OA
HETATM   26  C29 UNL     1      10.991  26.199   4.158  1.00  0.00     0.049 C 
HETATM   27  C30 UNL     1      10.386  25.639   6.480  1.00  0.00     0.049 C 
HETATM   28  C27 UNL     1      12.937  24.515   6.657  1.00  0.00     0.200 C 
BRANCH  23  29
HETATM   29  C3  UNL     1      11.540  23.635   3.521  1.00  0.00     0.003 C 
HETATM   30  C2  UNL     1      10.805  23.141   2.540  1.00  0.00    -0.032 C 
HETATM   31  C1  UNL     1       9.394  22.784   2.789  1.00  0.00     0.036 C 
ENDBRANCH  23  29
ENDBRANCH  20  21
ENDBRANCH   1  20
BRANCH   1  32
HETATM   32  O2  UNL     1      14.785  20.153   6.458  1.00  0.00    -0.388 OA
ATOM     33  H2  UNL     1      15.667  19.854   6.273  1.00  0.00     0.210 HD
ENDBRANCH   1  32
BRANCH  12  34
HETATM   34  C18 UNL     1      17.666  17.836  12.085  1.00  0.00     0.291 C 
BRANCH  34  35
HETATM   35  O5  UNL     1      18.139  18.463  13.246  1.00  0.00    -0.368 OA
ATOM     36  H5  UNL     1      18.482  17.824  13.860  1.00  0.00     0.212 HD
ENDBRANCH  34  35
BRANCH  34  37
HETATM   37  O6  UNL     1      17.584  16.477  12.249  1.00  0.00    -0.359 OA
BRANCH  37  38
HETATM   38  C19 UNL     1      16.406  16.052  12.820  1.00  0.00     0.166 C 
HETATM   39  C20 UNL     1      15.192  16.403  12.018  1.00  0.00     0.033 C 
ENDBRANCH  37  38
ENDBRANCH  34  37
ENDBRANCH  12  34
TORSDOF 8
ENDMDL
MODEL 4
REMARK VINA RESULT: -9.418011982      2.712      5.797
REMARK  8 active torsions:
REMARK  status: ('A' for Active; 'I' for Inactive)
REMARK    1  A    between atoms: C3_3  and  C4_4 
REMARK    2  A    between atoms: C5_6  and  C6_7 
REMARK    3  A    between atoms: C6_7  and  C7_8 
REMARK    4  A    between atoms: C7_8  and  O2_9 
REMARK    5  A    between atoms: C16_21  and  C18_23 
REMARK    6  A    between atoms: C18_23  and  O5_24 
REMARK    7  A    between atoms: C18_23  and  O6_26 
REMARK    8  A    between atoms: O6_26  and  C19_27 
ROOT
HETATM    1  C7  UNL     1       9.241  24.840   4.310  1.00  0.00     0.074 C 
HETATM    2  C8  UNL     1       8.683  23.922   3.306  1.00  0.00     0.066 C 
HETATM    3  C9  UNL     1       9.762  22.852   3.262  1.00  0.00    -0.020 C 
HETATM    4  C10 UNL     1      10.920  23.373   3.651  1.00  0.00    -0.068 C 
HETATM    5  C11 UNL     1      12.292  22.785   3.800  1.00  0.00     0.020 C 
HETATM    6  C12 UNL     1      13.128  22.951   2.572  1.00  0.00     0.013 C 
HETATM    7  C13 UNL     1      14.290  21.961   2.657  1.00  0.00     0.044 C 
HETATM    8  C14 UNL     1      14.559  21.605   4.091  1.00  0.00     0.120 A 
HETATM    9  O3  UNL     1      14.205  20.338   4.496  1.00  0.00    -0.342 OA
HETATM   10  C15 UNL     1      15.491  20.786   4.657  1.00  0.00     0.297 A 
HETATM   11  O4  UNL     1      15.863  21.296   5.896  1.00  0.00    -0.342 OA
HETATM   12  C16 UNL     1      14.918  22.233   6.295  1.00  0.00     0.117 C 
HETATM   13  C17 UNL     1      13.866  21.596   7.163  1.00  0.00     0.052 C 
HETATM   14  C21 UNL     1      14.407  22.793   5.016  1.00  0.00     0.069 C 
HETATM   15  C22 UNL     1      12.991  23.295   5.047  1.00  0.00     0.004 C 
HETATM   16  C23 UNL     1      12.994  24.800   5.008  1.00  0.00     0.007 C 
HETATM   17  C24 UNL     1      11.545  25.237   5.127  1.00  0.00     0.017 C 
HETATM   18  C25 UNL     1      10.723  24.810   3.960  1.00  0.00     0.011 C 
HETATM   19  C26 UNL     1      11.011  25.593   2.705  1.00  0.00     0.023 C 
ENDROOT
BRANCH   1  20
HETATM   20  C6  UNL     1       8.729  26.201   4.468  1.00  0.00     0.073 C 
BRANCH  20  21
HETATM   21  C5  UNL     1       8.339  26.699   5.819  1.00  0.00     0.149 C 
HETATM   22  O1  UNL     1       9.450  27.526   6.240  1.00  0.00    -0.371 OA
HETATM   23  C4  UNL     1       9.238  27.921   7.555  1.00  0.00     0.178 C 
HETATM   24  C28 UNL     1       7.911  28.630   7.724  1.00  0.00     0.083 C 
HETATM   25  O7  UNL     1       6.871  27.932   7.154  1.00  0.00    -0.376 OA
HETATM   26  C29 UNL     1       7.624  28.726   9.221  1.00  0.00     0.049 C 
HETATM   27  C30 UNL     1       7.993  30.013   7.153  1.00  0.00     0.049 C 
HETATM   28  C27 UNL     1       7.199  27.695   5.812  1.00  0.00     0.200 C 
BRANCH  23  29
HETATM   29  C3  UNL     1       9.329  26.767   8.488  1.00  0.00     0.003 C 
HETATM   30  C2  UNL     1      10.397  26.523   9.226  1.00  0.00    -0.032 C 
HETATM   31  C1  UNL     1      11.568  27.418   9.142  1.00  0.00     0.036 C 
ENDBRANCH  23  29
ENDBRANCH  20  21
ENDBRANCH   1  20
BRANCH   1  32
HETATM   32  O2  UNL     1       9.167  24.164   5.559  1.00  0.00    -0.388 OA
ATOM     33  H2  UNL     1       8.435  23.558   5.544  1.00  0.00     0.210 HD
ENDBRANCH   1  32
BRANCH  12  34
HETATM   34  C18 UNL     1      15.653  23.269   7.128  1.00  0.00     0.291 C 
BRANCH  34  35
HETATM   35  O5  UNL     1      16.629  23.924   6.365  1.00  0.00    -0.368 OA
ATOM     36  H5  UNL     1      16.996  24.658   6.843  1.00  0.00     0.212 HD
ENDBRANCH  34  35
BRANCH  34  37
HETATM   37  O6  UNL     1      16.193  22.714   8.260  1.00  0.00    -0.359 OA
BRANCH  37  38
HETATM   38  C19 UNL     1      17.569  22.706   8.278  1.00  0.00     0.166 C 
HETATM   39  C20 UNL     1      18.151  21.467   8.882  1.00  0.00     0.033 C 
ENDBRANCH  37  38
ENDBRANCH  34  37
ENDBRANCH  12  34
TORSDOF 8
ENDMDL
MODEL 5
REMARK VINA RESULT: -9.336833062      3.180      5.878
REMARK  8 active torsions:
REMARK  status: ('A' for Active; 'I' for Inactive)
REMARK    1  A    between atoms: C3_3  and  C4_4 
REMARK    2  A    between atoms: C5_6  and  C6_7 
REMARK    3  A    between atoms: C6_7  and  C7_8 
REMARK    4  A    between atoms: C7_8  and  O2_9 
REMARK    5  A    between atoms: C16_21  and  C18_23 
REMARK    6  A    between atoms: C18_23  and  O5_24 
REMARK    7  A    between atoms: C18_23  and  O6_26 
REMARK    8  A    between atoms: O6_26  and  C19_27 
ROOT
HETATM    1  C7  UNL     1       9.339  25.138   3.804  1.00  0.00     0.074 C 
HETATM    2  C8  UNL     1       8.775  24.140   2.884  1.00  0.00     0.066 C 
HETATM    3  C9  UNL     1       9.778  23.006   3.038  1.00  0.00    -0.020 C 
HETATM    4  C10 UNL     1      10.947  23.499   3.435  1.00  0.00    -0.068 C 
HETATM    5  C11 UNL     1      12.264  22.850   3.741  1.00  0.00     0.020 C 
HETATM    6  C12 UNL     1      13.176  22.809   2.557  1.00  0.00     0.013 C 
HETATM    7  C13 UNL     1      14.260  21.767   2.835  1.00  0.00     0.044 C 
HETATM    8  C14 UNL     1      14.423  21.576   4.316  1.00  0.00     0.120 A 
HETATM    9  O3  UNL     1      13.959  20.393   4.846  1.00  0.00    -0.342 OA
HETATM   10  C15 UNL     1      15.262  20.777   5.035  1.00  0.00     0.297 A 
HETATM   11  O4  UNL     1      15.599  21.413   6.225  1.00  0.00    -0.342 OA
HETATM   12  C16 UNL     1      14.701  22.448   6.447  1.00  0.00     0.117 C 
HETATM   13  C17 UNL     1      13.560  21.991   7.316  1.00  0.00     0.052 C 
HETATM   14  C21 UNL     1      14.302  22.877   5.080  1.00  0.00     0.069 C 
HETATM   15  C22 UNL     1      12.926  23.466   4.960  1.00  0.00     0.004 C 
HETATM   16  C23 UNL     1      13.036  24.952   4.741  1.00  0.00     0.007 C 
HETATM   17  C24 UNL     1      11.616  25.489   4.713  1.00  0.00     0.017 C 
HETATM   18  C25 UNL     1      10.833  24.973   3.555  1.00  0.00     0.011 C 
HETATM   19  C26 UNL     1      11.244  25.574   2.237  1.00  0.00     0.023 C 
ENDROOT
BRANCH   1  20
HETATM   20  C6  UNL     1       8.916  26.537   3.765  1.00  0.00     0.073 C 
BRANCH  20  21
HETATM   21  C5  UNL     1       7.540  26.888   3.307  1.00  0.00     0.149 C 
HETATM   22  O1  UNL     1       6.662  26.275   4.281  1.00  0.00    -0.371 OA
HETATM   23  C4  UNL     1       5.348  26.428   3.854  1.00  0.00     0.178 C 
HETATM   24  C28 UNL     1       5.000  27.882   3.616  1.00  0.00     0.083 C 
HETATM   25  O7  UNL     1       5.939  28.523   2.841  1.00  0.00    -0.376 OA
HETATM   26  C29 UNL     1       3.678  27.922   2.851  1.00  0.00     0.049 C 
HETATM   27  C30 UNL     1       4.826  28.588   4.926  1.00  0.00     0.049 C 
HETATM   28  C27 UNL     1       7.188  28.352   3.453  1.00  0.00     0.200 C 
BRANCH  23  29
HETATM   29  C3  UNL     1       5.078  25.625   2.633  1.00  0.00     0.003 C 
HETATM   30  C2  UNL     1       4.503  24.437   2.667  1.00  0.00    -0.032 C 
HETATM   31  C1  UNL     1       4.099  23.854   3.962  1.00  0.00     0.036 C 
ENDBRANCH  23  29
ENDBRANCH  20  21
ENDBRANCH   1  20
BRANCH   1  32
HETATM   32  O2  UNL     1       9.148  24.628   5.118  1.00  0.00    -0.388 OA
ATOM     33  H2  UNL     1       9.043  23.685   5.075  1.00  0.00     0.210 HD
ENDBRANCH   1  32
BRANCH  12  34
HETATM   34  C18 UNL     1      15.459  23.532   7.195  1.00  0.00     0.291 C 
BRANCH  34  35
HETATM   35  O5  UNL     1      16.460  24.090   6.389  1.00  0.00    -0.368 OA
ATOM     36  H5  UNL     1      16.773  24.908   6.756  1.00  0.00     0.212 HD
ENDBRANCH  34  35
BRANCH  34  37
HETATM   37  O6  UNL     1      15.972  23.063   8.377  1.00  0.00    -0.359 OA
BRANCH  37  38
HETATM   38  C19 UNL     1      17.339  23.178   8.479  1.00  0.00     0.166 C 
HETATM   39  C20 UNL     1      18.041  21.863   8.612  1.00  0.00     0.033 C 
ENDBRANCH  37  38
ENDBRANCH  34  37
ENDBRANCH  12  34
TORSDOF 8
ENDMDL
