MODEL 1
REMARK VINA RESULT: -9.349818508      0.000      0.000
REMARK  18 active torsions:
REMARK  status: ('A' for Active; 'I' for Inactive)
REMARK    1  A    between atoms: C2_2  and  C3_3 
REMARK    2  A    between atoms: C7_7  and  C9_9 
REMARK       I    between atoms: C9_9  and  N1_11 
REMARK    3  A    between atoms: N1_11  and  C10_13 
REMARK    4  A    between atoms: C10_13  and  C13_16 
REMARK       I    between atoms: C13_16  and  N2_18 
REMARK    5  A    between atoms: N2_18  and  C14_20 
REMARK    6  A    between atoms: C14_20  and  C15_21 
REMARK    7  A    between atoms: C15_21  and  C16_22 
REMARK    8  A    between atoms: C16_22  and  N3_23 
REMARK    9  A    between atoms: N3_23  and  C17_26 
REMARK   10  A    between atoms: C17_26  and  C18_27 
REMARK   11  A    between atoms: C18_27  and  C19_28 
REMARK   12  A    between atoms: C19_28  and  C20_29 
REMARK   13  A    between atoms: C20_29  and  N4_30 
REMARK   14  A    between atoms: N4_30  and  C21_32 
REMARK   15  A    between atoms: C21_32  and  C22_33 
REMARK   16  A    between atoms: C22_33  and  C23_34 
REMARK   17  A    between atoms: C23_34  and  C24_35 
REMARK   18  A    between atoms: C26_37  and  C27_38 
ROOT
HETATM    1  C14 UNL     1     -11.093  15.090  25.613  1.00  0.00     0.065 C 
ENDROOT
BRANCH   1   2
HETATM    2  N2  UNL     1     -10.126  15.332  24.645  1.00  0.00    -0.339 N 
HETATM    3  C13 UNL     1     -10.270  15.678  23.257  1.00  0.00     0.248 C 
HETATM    4  O2  UNL     1     -11.420  15.812  22.801  1.00  0.00    -0.270 OA
ATOM      5  H2  UNL     1      -9.163  15.251  24.969  1.00  0.00     0.167 HD
BRANCH   3   6
HETATM    6  C10 UNL     1      -9.095  15.871  22.409  1.00  0.00     0.106 C 
HETATM    7  C11 UNL     1      -9.643  16.219  21.003  1.00  0.00     0.048 C 
HETATM    8  C12 UNL     1      -8.364  14.541  22.180  1.00  0.00     0.048 C 
BRANCH   6   9
HETATM    9  N1  UNL     1      -8.138  16.849  22.759  1.00  0.00    -0.341 N 
HETATM   10  C9  UNL     1      -7.285  16.779  23.887  1.00  0.00     0.253 C 
HETATM   11  O1  UNL     1      -7.394  15.803  24.661  1.00  0.00    -0.270 OA
ATOM     12  H1  UNL     1      -8.056  17.666  22.154  1.00  0.00     0.163 HD
BRANCH  10  13
HETATM   13  C7  UNL     1      -6.235  17.798  24.223  1.00  0.00     0.139 C 
HETATM   14  C6  UNL     1      -4.907  17.159  24.286  1.00  0.00     0.054 C 
HETATM   15  C5  UNL     1      -4.049  17.465  25.485  1.00  0.00     0.007 C 
HETATM   16  C3  UNL     1      -4.822  18.024  26.627  1.00  0.00     0.008 C 
HETATM   17  C38 UNL     1      -3.015  18.477  25.098  1.00  0.00    -0.013 C 
HETATM   18  C4  UNL     1      -5.752  17.005  27.260  1.00  0.00     0.023 C 
HETATM   19  C34 UNL     1      -5.653  19.160  26.048  1.00  0.00     0.070 C 
HETATM   20  O3  UNL     1      -6.612  18.570  25.276  1.00  0.00    -0.359 OA
HETATM   21  C35 UNL     1      -6.417  19.745  27.250  1.00  0.00     0.047 C 
HETATM   22  C36 UNL     1      -4.848  20.210  25.405  1.00  0.00     0.039 C 
HETATM   23  C37 UNL     1      -3.466  19.876  24.998  1.00  0.00     0.007 C 
HETATM   24  C39 UNL     1      -2.428  17.999  23.750  1.00  0.00     0.010 C 
HETATM   25  C8  UNL     1      -6.276  18.723  22.980  1.00  0.00     0.056 C 
BRANCH  16  26
HETATM   26  C2  UNL     1      -4.024  18.578  27.747  1.00  0.00    -0.024 C 
HETATM   27  C1  UNL     1      -3.651  17.933  28.814  1.00  0.00     0.008 C 
ENDBRANCH  16  26
ENDBRANCH  10  13
ENDBRANCH   6   9
ENDBRANCH   3   6
ENDBRANCH   1   2
BRANCH   1  28
HETATM   28  C15 UNL     1     -11.080  15.887  26.886  1.00  0.00     0.072 C 
BRANCH  28  29
HETATM   29  C16 UNL     1     -11.792  15.042  27.985  1.00  0.00     0.237 C 
BRANCH  29  30
HETATM   30  N3  UNL     1     -13.079  15.609  28.220  1.00  0.00    -0.075 N 
ATOM     31  H32 UNL     1     -13.102  16.123  29.101  1.00  0.00     0.277 HD
ATOM     32  H31 UNL     1     -13.266  16.381  27.580  1.00  0.00     0.277 HD
BRANCH  30  33
HETATM   33  C17 UNL     1     -14.125  14.618  28.164  1.00  0.00     0.232 C 
BRANCH  33  34
HETATM   34  C18 UNL     1     -13.506  13.257  27.904  1.00  0.00     0.029 C 
BRANCH  34  35
HETATM   35  C19 UNL     1     -13.834  12.263  28.943  1.00  0.00     0.021 C 
BRANCH  35  36
HETATM   36  C20 UNL     1     -12.622  11.813  29.729  1.00  0.00     0.113 C 
BRANCH  36  37
HETATM   37  N4  UNL     1     -12.322  12.718  30.776  1.00  0.00    -0.421 N 
ATOM     38  H4  UNL     1     -11.363  13.023  30.944  1.00  0.00     0.153 HD
BRANCH  37  39
HETATM   39  C21 UNL     1     -13.388  13.193  31.585  1.00  0.00     0.114 C 
BRANCH  39  40
HETATM   40  C22 UNL     1     -12.924  13.581  32.975  1.00  0.00     0.025 C 
BRANCH  40  41
HETATM   41  C23 UNL     1     -12.711  15.044  33.085  1.00  0.00     0.058 C 
BRANCH  41  42
HETATM   42  C24 UNL     1     -11.358  15.558  32.918  1.00  0.00     0.009 A 
HETATM   43  C25 UNL     1     -10.694  15.857  31.773  1.00  0.00     0.033 A 
HETATM   44  C26 UNL     1      -9.380  16.291  31.741  1.00  0.00    -0.047 A 
HETATM   45  C31 UNL     1      -8.727  16.419  32.961  1.00  0.00     0.032 A 
HETATM   46  C32 UNL     1      -9.389  16.120  34.121  1.00  0.00     0.006 A 
HETATM   47  C33 UNL     1      -8.678  16.254  35.429  1.00  0.00     0.068 C 
HETATM   48  N5  UNL     1     -10.656  15.707  34.091  1.00  0.00    -0.363 N 
ATOM     49  H5  UNL     1     -11.123  15.492  34.972  1.00  0.00     0.165 HD
BRANCH  44  50
HETATM   50  C27 UNL     1      -8.704  16.605  30.464  1.00  0.00    -0.024 C 
HETATM   51  C28 UNL     1      -9.577  17.568  29.689  1.00  0.00     0.019 C 
HETATM   52  C29 UNL     1      -8.459  15.324  29.694  1.00  0.00     0.019 C 
HETATM   53  C30 UNL     1      -7.389  17.339  30.697  1.00  0.00     0.019 C 
ENDBRANCH  44  50
ENDBRANCH  41  42
ENDBRANCH  40  41
ENDBRANCH  39  40
ENDBRANCH  37  39
ENDBRANCH  36  37
ENDBRANCH  35  36
ENDBRANCH  34  35
ENDBRANCH  33  34
ENDBRANCH  30  33
ENDBRANCH  29  30
ENDBRANCH  28  29
ENDBRANCH   1  28
TORSDOF 18
ENDMDL
MODEL 2
REMARK VINA RESULT: -8.554796641      2.573     10.444
REMARK  18 active torsions:
REMARK  status: ('A' for Active; 'I' for Inactive)
REMARK    1  A    between atoms: C2_2  and  C3_3 
REMARK    2  A    between atoms: C7_7  and  C9_9 
REMARK       I    between atoms: C9_9  and  N1_11 
REMARK    3  A    between atoms: N1_11  and  C10_13 
REMARK    4  A    between atoms: C10_13  and  C13_16 
REMARK       I    between atoms: C13_16  and  N2_18 
REMARK    5  A    between atoms: N2_18  and  C14_20 
REMARK    6  A    between atoms: C14_20  and  C15_21 
REMARK    7  A    between atoms: C15_21  and  C16_22 
REMARK    8  A    between atoms: C16_22  and  N3_23 
REMARK    9  A    between atoms: N3_23  and  C17_26 
REMARK   10  A    between atoms: C17_26  and  C18_27 
REMARK   11  A    between atoms: C18_27  and  C19_28 
REMARK   12  A    between atoms: C19_28  and  C20_29 
REMARK   13  A    between atoms: C20_29  and  N4_30 
REMARK   14  A    between atoms: N4_30  and  C21_32 
REMARK   15  A    between atoms: C21_32  and  C22_33 
REMARK   16  A    between atoms: C22_33  and  C23_34 
REMARK   17  A    between atoms: C23_34  and  C24_35 
REMARK   18  A    between atoms: C26_37  and  C27_38 
ROOT
HETATM    1  C14 UNL     1      -7.039  17.107  30.290  1.00  0.00     0.065 C 
ENDROOT
BRANCH   1   2
HETATM    2  N2  UNL     1      -7.852  16.192  30.948  1.00  0.00    -0.339 N 
HETATM    3  C13 UNL     1      -8.566  16.311  32.189  1.00  0.00     0.248 C 
HETATM    4  O2  UNL     1      -8.494  17.388  32.808  1.00  0.00    -0.270 OA
ATOM      5  H2  UNL     1      -7.959  15.295  30.476  1.00  0.00     0.167 HD
BRANCH   3   6
HETATM    6  C10 UNL     1      -9.358  15.197  32.706  1.00  0.00     0.106 C 
HETATM    7  C11 UNL     1     -10.271  15.800  33.802  1.00  0.00     0.048 C 
HETATM    8  C12 UNL     1      -8.474  14.216  33.490  1.00  0.00     0.048 C 
BRANCH   6   9
HETATM    9  N1  UNL     1     -10.170  14.452  31.823  1.00  0.00    -0.341 N 
HETATM   10  C9  UNL     1     -10.819  14.980  30.680  1.00  0.00     0.253 C 
HETATM   11  O1  UNL     1     -10.704  16.200  30.437  1.00  0.00    -0.270 OA
ATOM     12  H1  UNL     1     -10.298  13.460  32.023  1.00  0.00     0.163 HD
BRANCH  10  13
HETATM   13  C7  UNL     1     -11.639  14.170  29.719  1.00  0.00     0.139 C 
HETATM   14  C6  UNL     1     -12.964  14.790  29.532  1.00  0.00     0.054 C 
HETATM   15  C5  UNL     1     -14.169  13.893  29.636  1.00  0.00     0.007 C 
HETATM   16  C3  UNL     1     -13.878  12.606  30.324  1.00  0.00     0.008 C 
HETATM   17  C38 UNL     1     -14.656  13.571  28.257  1.00  0.00    -0.013 C 
HETATM   18  C4  UNL     1     -13.593  12.785  31.804  1.00  0.00     0.023 C 
HETATM   19  C34 UNL     1     -12.638  12.044  29.645  1.00  0.00     0.070 C 
HETATM   20  O3  UNL     1     -11.602  12.847  30.027  1.00  0.00    -0.359 OA
HETATM   21  C35 UNL     1     -12.376  10.699  30.348  1.00  0.00     0.047 C 
HETATM   22  C36 UNL     1     -12.804  11.830  28.199  1.00  0.00     0.039 C 
HETATM   23  C37 UNL     1     -13.896  12.552  27.510  1.00  0.00     0.007 C 
HETATM   24  C39 UNL     1     -14.674  14.908  27.482  1.00  0.00     0.010 C 
HETATM   25  C8  UNL     1     -10.836  14.323  28.402  1.00  0.00     0.056 C 
BRANCH  16  26
HETATM   26  C2  UNL     1     -14.939  11.572  30.249  1.00  0.00    -0.024 C 
HETATM   27  C1  UNL     1     -15.466  10.942  31.258  1.00  0.00     0.008 C 
ENDBRANCH  16  26
ENDBRANCH  10  13
ENDBRANCH   6   9
ENDBRANCH   3   6
ENDBRANCH   1   2
BRANCH   1  28
HETATM   28  C15 UNL     1      -7.627  17.988  29.227  1.00  0.00     0.072 C 
BRANCH  28  29
HETATM   29  C16 UNL     1      -6.925  17.643  27.879  1.00  0.00     0.237 C 
BRANCH  29  30
HETATM   30  N3  UNL     1      -6.806  18.843  27.117  1.00  0.00    -0.075 N 
ATOM     31  H32 UNL     1      -7.150  18.713  26.166  1.00  0.00     0.277 HD
ATOM     32  H31 UNL     1      -7.471  19.549  27.433  1.00  0.00     0.277 HD
BRANCH  30  33
HETATM   33  C17 UNL     1      -5.458  19.355  27.122  1.00  0.00     0.232 C 
BRANCH  33  34
HETATM   34  C18 UNL     1      -4.493  18.210  27.366  1.00  0.00     0.029 C 
BRANCH  34  35
HETATM   35  C19 UNL     1      -3.350  18.208  26.435  1.00  0.00     0.021 C 
BRANCH  35  36
HETATM   36  C20 UNL     1      -3.378  17.040  25.472  1.00  0.00     0.113 C 
BRANCH  36  37
HETATM   37  N4  UNL     1      -4.234  17.299  24.374  1.00  0.00    -0.421 N 
ATOM     38  H4  UNL     1      -4.895  16.593  24.050  1.00  0.00     0.153 HD
BRANCH  37  39
HETATM   39  C21 UNL     1      -4.152  18.564  23.736  1.00  0.00     0.114 C 
BRANCH  39  40
HETATM   40  C22 UNL     1      -5.519  19.154  23.452  1.00  0.00     0.025 C 
BRANCH  40  41
HETATM   41  C23 UNL     1      -6.146  18.521  22.268  1.00  0.00     0.058 C 
BRANCH  41  42
HETATM   42  C24 UNL     1      -7.310  17.670  22.478  1.00  0.00     0.009 A 
HETATM   43  C25 UNL     1      -7.901  17.304  23.644  1.00  0.00     0.033 A 
HETATM   44  C26 UNL     1      -8.979  16.438  23.718  1.00  0.00    -0.047 A 
HETATM   45  C31 UNL     1      -9.464  15.930  22.519  1.00  0.00     0.032 A 
HETATM   46  C32 UNL     1      -8.875  16.294  21.338  1.00  0.00     0.006 A 
HETATM   47  C33 UNL     1      -9.399  15.738  20.054  1.00  0.00     0.068 C 
HETATM   48  N5  UNL     1      -7.839  17.133  21.328  1.00  0.00    -0.363 N 
ATOM     49  H5  UNL     1      -7.422  17.386  20.432  1.00  0.00     0.165 HD
BRANCH  44  50
HETATM   50  C27 UNL     1      -9.586  16.074  25.016  1.00  0.00    -0.024 C 
HETATM   51  C28 UNL     1      -8.568  15.288  25.813  1.00  0.00     0.019 C 
HETATM   52  C29 UNL     1     -10.851  15.275  24.776  1.00  0.00     0.019 C 
HETATM   53  C30 UNL     1      -9.895  17.311  25.851  1.00  0.00     0.019 C 
ENDBRANCH  44  50
ENDBRANCH  41  42
ENDBRANCH  40  41
ENDBRANCH  39  40
ENDBRANCH  37  39
ENDBRANCH  36  37
ENDBRANCH  35  36
ENDBRANCH  34  35
ENDBRANCH  33  34
ENDBRANCH  30  33
ENDBRANCH  29  30
ENDBRANCH  28  29
ENDBRANCH   1  28
TORSDOF 18
ENDMDL
MODEL 3
REMARK VINA RESULT: -8.451966357      2.321      4.696
REMARK  18 active torsions:
REMARK  status: ('A' for Active; 'I' for Inactive)
REMARK    1  A    between atoms: C2_2  and  C3_3 
REMARK    2  A    between atoms: C7_7  and  C9_9 
REMARK       I    between atoms: C9_9  and  N1_11 
REMARK    3  A    between atoms: N1_11  and  C10_13 
REMARK    4  A    between atoms: C10_13  and  C13_16 
REMARK       I    between atoms: C13_16  and  N2_18 
REMARK    5  A    between atoms: N2_18  and  C14_20 
REMARK    6  A    between atoms: C14_20  and  C15_21 
REMARK    7  A    between atoms: C15_21  and  C16_22 
REMARK    8  A    between atoms: C16_22  and  N3_23 
REMARK    9  A    between atoms: N3_23  and  C17_26 
REMARK   10  A    between atoms: C17_26  and  C18_27 
REMARK   11  A    between atoms: C18_27  and  C19_28 
REMARK   12  A    between atoms: C19_28  and  C20_29 
REMARK   13  A    between atoms: C20_29  and  N4_30 
REMARK   14  A    between atoms: N4_30  and  C21_32 
REMARK   15  A    between atoms: C21_32  and  C22_33 
REMARK   16  A    between atoms: C22_33  and  C23_34 
REMARK   17  A    between atoms: C23_34  and  C24_35 
REMARK   18  A    between atoms: C26_37  and  C27_38 
ROOT
HETATM    1  C14 UNL     1      -7.915  16.530  26.279  1.00  0.00     0.065 C 
ENDROOT
BRANCH   1   2
HETATM    2  N2  UNL     1      -6.736  17.267  26.296  1.00  0.00    -0.339 N 
HETATM    3  C13 UNL     1      -5.661  17.272  27.249  1.00  0.00     0.248 C 
HETATM    4  O2  UNL     1      -5.736  16.505  28.226  1.00  0.00    -0.270 OA
ATOM      5  H2  UNL     1      -6.615  17.903  25.508  1.00  0.00     0.167 HD
BRANCH   3   6
HETATM    6  C10 UNL     1      -4.509  18.155  27.072  1.00  0.00     0.106 C 
HETATM    7  C11 UNL     1      -3.934  18.388  28.490  1.00  0.00     0.048 C 
HETATM    8  C12 UNL     1      -4.958  19.559  26.643  1.00  0.00     0.048 C 
BRANCH   6   9
HETATM    9  N1  UNL     1      -3.449  17.753  26.230  1.00  0.00    -0.341 N 
HETATM   10  C9  UNL     1      -3.577  17.456  24.851  1.00  0.00     0.253 C 
HETATM   11  O1  UNL     1      -4.711  17.516  24.329  1.00  0.00    -0.270 OA
ATOM     12  H1  UNL     1      -2.521  17.671  26.647  1.00  0.00     0.163 HD
BRANCH  10  13
HETATM   13  C7  UNL     1      -2.435  17.078  23.954  1.00  0.00     0.139 C 
HETATM   14  C6  UNL     1      -1.305  18.005  24.150  1.00  0.00     0.054 C 
HETATM   15  C5  UNL     1      -0.667  18.589  22.917  1.00  0.00     0.007 C 
HETATM   16  C3  UNL     1      -1.528  18.480  21.709  1.00  0.00     0.008 C 
HETATM   17  C38 UNL     1       0.607  17.855  22.635  1.00  0.00    -0.013 C 
HETATM   18  C4  UNL     1      -2.754  19.373  21.781  1.00  0.00     0.023 C 
HETATM   19  C34 UNL     1      -1.976  17.027  21.649  1.00  0.00     0.070 C 
HETATM   20  O3  UNL     1      -2.856  16.861  22.680  1.00  0.00    -0.359 OA
HETATM   21  C35 UNL     1      -2.836  16.930  20.375  1.00  0.00     0.047 C 
HETATM   22  C36 UNL     1      -0.862  16.070  21.577  1.00  0.00     0.039 C 
HETATM   23  C37 UNL     1       0.478  16.529  22.004  1.00  0.00     0.007 C 
HETATM   24  C39 UNL     1       1.349  17.742  23.986  1.00  0.00     0.010 C 
HETATM   25  C8  UNL     1      -2.033  15.689  24.512  1.00  0.00     0.056 C 
BRANCH  16  26
HETATM   26  C2  UNL     1      -0.881  18.805  20.415  1.00  0.00    -0.024 C 
HETATM   27  C1  UNL     1      -0.821  19.981  19.862  1.00  0.00     0.008 C 
ENDBRANCH  16  26
ENDBRANCH  10  13
ENDBRANCH   6   9
ENDBRANCH   3   6
ENDBRANCH   1   2
BRANCH   1  28
HETATM   28  C15 UNL     1      -9.233  17.246  26.213  1.00  0.00     0.072 C 
BRANCH  28  29
HETATM   29  C16 UNL     1     -10.216  16.362  25.388  1.00  0.00     0.237 C 
BRANCH  29  30
HETATM   30  N3  UNL     1     -11.416  16.205  26.142  1.00  0.00    -0.075 N 
ATOM     31  H32 UNL     1     -11.611  17.033  26.704  1.00  0.00     0.277 HD
ATOM     32  H31 UNL     1     -12.237  16.224  25.538  1.00  0.00     0.277 HD
BRANCH  30  33
HETATM   33  C17 UNL     1     -11.392  15.013  26.954  1.00  0.00     0.232 C 
BRANCH  33  34
HETATM   34  C18 UNL     1     -12.368  15.176  28.104  1.00  0.00     0.029 C 
BRANCH  34  35
HETATM   35  C19 UNL     1     -13.664  14.517  27.861  1.00  0.00     0.021 C 
BRANCH  35  36
HETATM   36  C20 UNL     1     -14.330  14.040  29.133  1.00  0.00     0.113 C 
BRANCH  36  37
HETATM   37  N4  UNL     1     -13.898  14.793  30.253  1.00  0.00    -0.421 N 
ATOM     38  H4  UNL     1     -13.506  15.727  30.134  1.00  0.00     0.153 HD
BRANCH  37  39
HETATM   39  C21 UNL     1     -14.022  14.216  31.544  1.00  0.00     0.114 C 
BRANCH  39  40
HETATM   40  C22 UNL     1     -13.768  15.223  32.649  1.00  0.00     0.025 C 
BRANCH  40  41
HETATM   41  C23 UNL     1     -12.634  14.807  33.509  1.00  0.00     0.058 C 
BRANCH  41  42
HETATM   42  C24 UNL     1     -11.328  15.403  33.261  1.00  0.00     0.009 A 
HETATM   43  C25 UNL     1     -10.755  15.742  32.078  1.00  0.00     0.033 A 
HETATM   44  C26 UNL     1      -9.474  16.256  31.968  1.00  0.00    -0.047 A 
HETATM   45  C31 UNL     1      -8.756  16.423  33.145  1.00  0.00     0.032 A 
HETATM   46  C32 UNL     1      -9.327  16.083  34.343  1.00  0.00     0.006 A 
HETATM   47  C33 UNL     1      -8.545  16.261  35.605  1.00  0.00     0.068 C 
HETATM   48  N5  UNL     1     -10.565  15.594  34.389  1.00  0.00    -0.363 N 
ATOM     49  H5  UNL     1     -10.963  15.351  35.296  1.00  0.00     0.165 HD
BRANCH  44  50
HETATM   50  C27 UNL     1      -8.899  16.612  30.652  1.00  0.00    -0.024 C 
HETATM   51  C28 UNL     1      -8.562  15.332  29.920  1.00  0.00     0.019 C 
HETATM   52  C29 UNL     1      -7.675  17.482  30.855  1.00  0.00     0.019 C 
HETATM   53  C30 UNL     1      -9.917  17.331  29.777  1.00  0.00     0.019 C 
ENDBRANCH  44  50
ENDBRANCH  41  42
ENDBRANCH  40  41
ENDBRANCH  39  40
ENDBRANCH  37  39
ENDBRANCH  36  37
ENDBRANCH  35  36
ENDBRANCH  34  35
ENDBRANCH  33  34
ENDBRANCH  30  33
ENDBRANCH  29  30
ENDBRANCH  28  29
ENDBRANCH   1  28
TORSDOF 18
ENDMDL
MODEL 4
REMARK VINA RESULT: -8.443678419      2.582     10.522
REMARK  18 active torsions:
REMARK  status: ('A' for Active; 'I' for Inactive)
REMARK    1  A    between atoms: C2_2  and  C3_3 
REMARK    2  A    between atoms: C7_7  and  C9_9 
REMARK       I    between atoms: C9_9  and  N1_11 
REMARK    3  A    between atoms: N1_11  and  C10_13 
REMARK    4  A    between atoms: C10_13  and  C13_16 
REMARK       I    between atoms: C13_16  and  N2_18 
REMARK    5  A    between atoms: N2_18  and  C14_20 
REMARK    6  A    between atoms: C14_20  and  C15_21 
REMARK    7  A    between atoms: C15_21  and  C16_22 
REMARK    8  A    between atoms: C16_22  and  N3_23 
REMARK    9  A    between atoms: N3_23  and  C17_26 
REMARK   10  A    between atoms: C17_26  and  C18_27 
REMARK   11  A    between atoms: C18_27  and  C19_28 
REMARK   12  A    between atoms: C19_28  and  C20_29 
REMARK   13  A    between atoms: C20_29  and  N4_30 
REMARK   14  A    between atoms: N4_30  and  C21_32 
REMARK   15  A    between atoms: C21_32  and  C22_33 
REMARK   16  A    between atoms: C22_33  and  C23_34 
REMARK   17  A    between atoms: C23_34  and  C24_35 
REMARK   18  A    between atoms: C26_37  and  C27_38 
ROOT
HETATM    1  C14 UNL     1      -7.434  17.580  30.662  1.00  0.00     0.065 C 
ENDROOT
BRANCH   1   2
HETATM    2  N2  UNL     1      -8.097  16.623  31.422  1.00  0.00    -0.339 N 
HETATM    3  C13 UNL     1      -8.559  16.677  32.782  1.00  0.00     0.248 C 
HETATM    4  O2  UNL     1      -8.378  17.728  33.423  1.00  0.00    -0.270 OA
ATOM      5  H2  UNL     1      -8.285  15.746  30.939  1.00  0.00     0.167 HD
BRANCH   3   6
HETATM    6  C10 UNL     1      -9.226  15.528  33.391  1.00  0.00     0.106 C 
HETATM    7  C11 UNL     1      -9.296  15.835  34.906  1.00  0.00     0.048 C 
HETATM    8  C12 UNL     1      -8.331  14.282  33.329  1.00  0.00     0.048 C 
BRANCH   6   9
HETATM    9  N1  UNL     1     -10.520  15.165  32.958  1.00  0.00    -0.341 N 
HETATM   10  C9  UNL     1     -10.840  14.707  31.656  1.00  0.00     0.253 C 
HETATM   11  O1  UNL     1      -9.928  14.644  30.803  1.00  0.00    -0.270 OA
ATOM     12  H1  UNL     1     -11.281  15.239  33.633  1.00  0.00     0.163 HD
BRANCH  10  13
HETATM   13  C7  UNL     1     -12.209  14.277  31.219  1.00  0.00     0.139 C 
HETATM   14  C6  UNL     1     -12.278  12.806  31.137  1.00  0.00     0.054 C 
HETATM   15  C5  UNL     1     -12.872  12.210  29.887  1.00  0.00     0.007 C 
HETATM   16  C3  UNL     1     -12.914  13.169  28.749  1.00  0.00     0.008 C 
HETATM   17  C38 UNL     1     -14.278  11.782  30.173  1.00  0.00    -0.013 C 
HETATM   18  C4  UNL     1     -11.534  13.504  28.214  1.00  0.00     0.023 C 
HETATM   19  C34 UNL     1     -13.554  14.435  29.298  1.00  0.00     0.070 C 
HETATM   20  O3  UNL     1     -12.633  14.988  30.142  1.00  0.00    -0.359 OA
HETATM   21  C35 UNL     1     -13.619  15.398  28.098  1.00  0.00     0.047 C 
HETATM   22  C36 UNL     1     -14.903  14.224  29.847  1.00  0.00     0.039 C 
HETATM   23  C37 UNL     1     -15.297  12.846  30.213  1.00  0.00     0.007 C 
HETATM   24  C39 UNL     1     -14.233  11.024  31.520  1.00  0.00     0.010 C 
HETATM   25  C8  UNL     1     -13.087  14.742  32.409  1.00  0.00     0.056 C 
BRANCH  16  26
HETATM   26  C2  UNL     1     -13.702  12.743  27.567  1.00  0.00    -0.024 C 
HETATM   27  C1  UNL     1     -13.409  11.763  26.763  1.00  0.00     0.008 C 
ENDBRANCH  16  26
ENDBRANCH  10  13
ENDBRANCH   6   9
ENDBRANCH   3   6
ENDBRANCH   1   2
BRANCH   1  28
HETATM   28  C15 UNL     1      -8.007  18.000  29.339  1.00  0.00     0.072 C 
BRANCH  28  29
HETATM   29  C16 UNL     1      -6.846  18.013  28.299  1.00  0.00     0.237 C 
BRANCH  29  30
HETATM   30  N3  UNL     1      -7.067  19.096  27.398  1.00  0.00    -0.075 N 
ATOM     31  H32 UNL     1      -7.811  18.880  26.735  1.00  0.00     0.277 HD
ATOM     32  H31 UNL     1      -7.499  19.889  27.871  1.00  0.00     0.277 HD
BRANCH  30  33
HETATM   33  C17 UNL     1      -5.856  19.488  26.719  1.00  0.00     0.232 C 
BRANCH  33  34
HETATM   34  C18 UNL     1      -4.788  18.438  26.962  1.00  0.00     0.029 C 
BRANCH  34  35
HETATM   35  C19 UNL     1      -3.702  18.476  25.965  1.00  0.00     0.021 C 
BRANCH  35  36
HETATM   36  C20 UNL     1      -3.283  17.098  25.499  1.00  0.00     0.113 C 
BRANCH  36  37
HETATM   37  N4  UNL     1      -3.545  16.920  24.119  1.00  0.00    -0.421 N 
ATOM     38  H4  UNL     1      -3.730  15.992  23.738  1.00  0.00     0.153 HD
BRANCH  37  39
HETATM   39  C21 UNL     1      -3.544  18.063  23.278  1.00  0.00     0.114 C 
BRANCH  39  40
HETATM   40  C22 UNL     1      -4.718  18.072  22.319  1.00  0.00     0.025 C 
BRANCH  40  41
HETATM   41  C23 UNL     1      -5.930  18.641  22.955  1.00  0.00     0.058 C 
BRANCH  41  42
HETATM   42  C24 UNL     1      -7.107  17.791  23.076  1.00  0.00     0.009 A 
HETATM   43  C25 UNL     1      -7.736  17.359  24.199  1.00  0.00     0.033 A 
HETATM   44  C26 UNL     1      -8.824  16.503  24.186  1.00  0.00    -0.047 A 
HETATM   45  C31 UNL     1      -9.277  16.075  22.944  1.00  0.00     0.032 A 
HETATM   46  C32 UNL     1      -8.648  16.506  21.806  1.00  0.00     0.006 A 
HETATM   47  C33 UNL     1      -9.138  16.037  20.474  1.00  0.00     0.068 C 
HETATM   48  N5  UNL     1      -7.605  17.333  21.879  1.00  0.00    -0.363 N 
ATOM     49  H5  UNL     1      -7.159  17.637  21.014  1.00  0.00     0.165 HD
BRANCH  44  50
HETATM   50  C27 UNL     1      -9.473  16.064  25.440  1.00  0.00    -0.024 C 
HETATM   51  C28 UNL     1      -9.953  17.293  26.180  1.00  0.00     0.019 C 
HETATM   52  C29 UNL     1      -8.489  15.260  26.264  1.00  0.00     0.019 C 
HETATM   53  C30 UNL     1     -10.722  15.239  25.159  1.00  0.00     0.019 C 
ENDBRANCH  44  50
ENDBRANCH  41  42
ENDBRANCH  40  41
ENDBRANCH  39  40
ENDBRANCH  37  39
ENDBRANCH  36  37
ENDBRANCH  35  36
ENDBRANCH  34  35
ENDBRANCH  33  34
ENDBRANCH  30  33
ENDBRANCH  29  30
ENDBRANCH  28  29
ENDBRANCH   1  28
TORSDOF 18
ENDMDL
MODEL 5
REMARK VINA RESULT: -8.433424685      4.247     11.790
REMARK  18 active torsions:
REMARK  status: ('A' for Active; 'I' for Inactive)
REMARK    1  A    between atoms: C2_2  and  C3_3 
REMARK    2  A    between atoms: C7_7  and  C9_9 
REMARK       I    between atoms: C9_9  and  N1_11 
REMARK    3  A    between atoms: N1_11  and  C10_13 
REMARK    4  A    between atoms: C10_13  and  C13_16 
REMARK       I    between atoms: C13_16  and  N2_18 
REMARK    5  A    between atoms: N2_18  and  C14_20 
REMARK    6  A    between atoms: C14_20  and  C15_21 
REMARK    7  A    between atoms: C15_21  and  C16_22 
REMARK    8  A    between atoms: C16_22  and  N3_23 
REMARK    9  A    between atoms: N3_23  and  C17_26 
REMARK   10  A    between atoms: C17_26  and  C18_27 
REMARK   11  A    between atoms: C18_27  and  C19_28 
REMARK   12  A    between atoms: C19_28  and  C20_29 
REMARK   13  A    between atoms: C20_29  and  N4_30 
REMARK   14  A    between atoms: N4_30  and  C21_32 
REMARK   15  A    between atoms: C21_32  and  C22_33 
REMARK   16  A    between atoms: C22_33  and  C23_34 
REMARK   17  A    between atoms: C23_34  and  C24_35 
REMARK   18  A    between atoms: C26_37  and  C27_38 
ROOT
HETATM    1  C14 UNL     1      -9.763  15.153  33.760  1.00  0.00     0.065 C 
ENDROOT
BRANCH   1   2
HETATM    2  N2  UNL     1     -10.641  14.548  32.868  1.00  0.00    -0.339 N 
HETATM    3  C13 UNL     1     -12.039  14.788  32.637  1.00  0.00     0.248 C 
HETATM    4  O2  UNL     1     -12.600  15.678  33.300  1.00  0.00    -0.270 OA
ATOM      5  H2  UNL     1     -10.228  13.819  32.286  1.00  0.00     0.167 HD
BRANCH   3   6
HETATM    6  C10 UNL     1     -12.777  14.008  31.645  1.00  0.00     0.106 C 
HETATM    7  C11 UNL     1     -12.009  14.185  30.312  1.00  0.00     0.048 C 
HETATM    8  C12 UNL     1     -14.140  14.650  31.350  1.00  0.00     0.048 C 
BRANCH   6   9
HETATM    9  N1  UNL     1     -12.975  12.626  31.855  1.00  0.00    -0.341 N 
HETATM   10  C9  UNL     1     -13.505  12.054  33.038  1.00  0.00     0.253 C 
HETATM   11  O1  UNL     1     -13.793  12.810  33.991  1.00  0.00    -0.270 OA
ATOM     12  H1  UNL     1     -12.718  11.992  31.098  1.00  0.00     0.163 HD
BRANCH  10  13
HETATM   13  C7  UNL     1     -13.759  10.588  33.233  1.00  0.00     0.139 C 
HETATM   14  C6  UNL     1     -13.404   9.843  32.010  1.00  0.00     0.054 C 
HETATM   15  C5  UNL     1     -14.407   8.846  31.492  1.00  0.00     0.007 C 
HETATM   16  C3  UNL     1     -15.775   9.059  32.039  1.00  0.00     0.008 C 
HETATM   17  C38 UNL     1     -13.971   7.468  31.883  1.00  0.00    -0.013 C 
HETATM   18  C4  UNL     1     -16.422  10.330  31.522  1.00  0.00     0.023 C 
HETATM   19  C34 UNL     1     -15.605   9.168  33.548  1.00  0.00     0.070 C 
HETATM   20  O3  UNL     1     -14.986  10.364  33.772  1.00  0.00    -0.359 OA
HETATM   21  C35 UNL     1     -17.033   9.352  34.095  1.00  0.00     0.047 C 
HETATM   22  C36 UNL     1     -14.983   7.982  34.158  1.00  0.00     0.039 C 
HETATM   23  C37 UNL     1     -14.217   7.069  33.280  1.00  0.00     0.007 C 
HETATM   24  C39 UNL     1     -12.462   7.384  31.554  1.00  0.00     0.010 C 
HETATM   25  C8  UNL     1     -12.735  10.229  34.340  1.00  0.00     0.056 C 
BRANCH  16  26
HETATM   26  C2  UNL     1     -16.758   7.981  31.775  1.00  0.00    -0.024 C 
HETATM   27  C1  UNL     1     -17.576   7.921  30.764  1.00  0.00     0.008 C 
ENDBRANCH  16  26
ENDBRANCH  10  13
ENDBRANCH   6   9
ENDBRANCH   3   6
ENDBRANCH   1   2
BRANCH   1  28
HETATM   28  C15 UNL     1      -8.467  15.718  33.253  1.00  0.00     0.072 C 
BRANCH  28  29
HETATM   29  C16 UNL     1      -8.719  16.278  31.821  1.00  0.00     0.237 C 
BRANCH  29  30
HETATM   30  N3  UNL     1      -7.766  17.309  31.571  1.00  0.00    -0.075 N 
ATOM     31  H32 UNL     1      -7.897  18.096  32.206  1.00  0.00     0.277 HD
ATOM     32  H31 UNL     1      -6.830  17.026  31.858  1.00  0.00     0.277 HD
BRANCH  30  33
HETATM   33  C17 UNL     1      -7.783  17.739  30.194  1.00  0.00     0.232 C 
BRANCH  33  34
HETATM   34  C18 UNL     1      -6.671  17.034  29.440  1.00  0.00     0.029 C 
BRANCH  34  35
HETATM   35  C19 UNL     1      -5.896  17.940  28.572  1.00  0.00     0.021 C 
BRANCH  35  36
HETATM   36  C20 UNL     1      -4.405  17.692  28.644  1.00  0.00     0.113 C 
BRANCH  36  37
HETATM   37  N4  UNL     1      -3.885  17.313  27.383  1.00  0.00    -0.421 N 
ATOM     38  H4  UNL     1      -3.306  16.479  27.285  1.00  0.00     0.153 HD
BRANCH  37  39
HETATM   39  C21 UNL     1      -4.189  18.121  26.256  1.00  0.00     0.114 C 
BRANCH  39  40
HETATM   40  C22 UNL     1      -4.691  17.304  25.082  1.00  0.00     0.025 C 
BRANCH  40  41
HETATM   41  C23 UNL     1      -5.975  17.835  24.563  1.00  0.00     0.058 C 
BRANCH  41  42
HETATM   42  C24 UNL     1      -7.153  16.983  24.640  1.00  0.00     0.009 A 
HETATM   43  C25 UNL     1      -7.955  16.728  25.706  1.00  0.00     0.033 A 
HETATM   44  C26 UNL     1      -9.023  15.849  25.667  1.00  0.00    -0.047 A 
HETATM   45  C31 UNL     1      -9.269  15.205  24.460  1.00  0.00     0.032 A 
HETATM   46  C32 UNL     1      -8.466  15.457  23.380  1.00  0.00     0.006 A 
HETATM   47  C33 UNL     1      -8.734  14.755  22.088  1.00  0.00     0.068 C 
HETATM   48  N5  UNL     1      -7.451  16.315  23.475  1.00  0.00    -0.363 N 
ATOM     49  H5  UNL     1      -6.871  16.482  22.653  1.00  0.00     0.165 HD
BRANCH  44  50
HETATM   50  C27 UNL     1      -9.866  15.609  26.859  1.00  0.00    -0.024 C 
HETATM   51  C28 UNL     1      -9.058  14.812  27.859  1.00  0.00     0.019 C 
HETATM   52  C29 UNL     1     -11.128  14.880  26.446  1.00  0.00     0.019 C 
HETATM   53  C30 UNL     1     -10.218  16.915  27.561  1.00  0.00     0.019 C 
ENDBRANCH  44  50
ENDBRANCH  41  42
ENDBRANCH  40  41
ENDBRANCH  39  40
ENDBRANCH  37  39
ENDBRANCH  36  37
ENDBRANCH  35  36
ENDBRANCH  34  35
ENDBRANCH  33  34
ENDBRANCH  30  33
ENDBRANCH  29  30
ENDBRANCH  28  29
ENDBRANCH   1  28
TORSDOF 18
ENDMDL
