MODEL 1
REMARK VINA RESULT: -9.365940610      0.000      0.000
REMARK  18 active torsions:
REMARK  status: ('A' for Active; 'I' for Inactive)
REMARK    1  A    between atoms: C2_2  and  C3_3 
REMARK    2  A    between atoms: C3_3  and  C4_4 
REMARK    3  A    between atoms: C4_4  and  C5_5 
REMARK    4  A    between atoms: C5_5  and  C6_6 
REMARK    5  A    between atoms: C6_6  and  C7_7 
REMARK    6  A    between atoms: C7_7  and  C8_8 
REMARK    7  A    between atoms: C7_7  and  C11_11 
REMARK    8  A    between atoms: C8_8  and  C9_9 
REMARK    9  A    between atoms: C11_11  and  O1_12 
REMARK   10  A    between atoms: C11_11  and  C12_14 
REMARK   11  A    between atoms: C12_14  and  O2_15 
REMARK   12  A    between atoms: C12_14  and  C13_17 
REMARK   13  A    between atoms: C14_18  and  C15_19 
REMARK   14  A    between atoms: C16_20  and  C17_21 
REMARK   15  A    between atoms: C17_21  and  C19_23 
REMARK   16  A    between atoms: C20_24  and  C21_25 
REMARK   17  A    between atoms: C28_39  and  C29_40 
REMARK   18  A    between atoms: C29_40  and  C30_41 
ROOT
HETATM    1  C15 UNL     1      -9.789  15.155  32.059  1.00  0.00     0.018 C 
HETATM    2  C16 UNL     1      -9.016  14.758  33.277  1.00  0.00     0.001 C 
HETATM    3  C26 UNL     1      -7.778  15.557  33.077  1.00  0.00     0.006 C 
HETATM    4  C27 UNL     1      -8.276  16.901  32.681  1.00  0.00     0.007 C 
HETATM    5  C28 UNL     1      -9.352  16.609  31.727  1.00  0.00     0.009 C 
ENDROOT
BRANCH   1   6
HETATM    6  C14 UNL     1     -11.237  15.083  32.072  1.00  0.00    -0.023 C 
HETATM    7  C13 UNL     1     -11.993  14.413  31.206  1.00  0.00     0.003 C 
BRANCH   7   8
HETATM    8  C12 UNL     1     -13.475  14.356  31.241  1.00  0.00     0.169 C 
BRANCH   8   9
HETATM    9  C11 UNL     1     -14.036  14.445  29.845  1.00  0.00     0.154 C 
BRANCH   9  10
HETATM   10  C7  UNL     1     -13.188  13.831  28.789  1.00  0.00     0.017 C 
BRANCH  10  11
HETATM   11  C6  UNL     1     -12.782  14.728  27.676  1.00  0.00     0.007 C 
BRANCH  11  12
HETATM   12  C5  UNL     1     -11.471  14.458  27.036  1.00  0.00     0.000 C 
BRANCH  12  13
HETATM   13  C4  UNL     1     -11.239  15.517  25.971  1.00  0.00     0.000 C 
BRANCH  13  14
HETATM   14  C3  UNL     1      -9.834  15.573  25.465  1.00  0.00    -0.000 C 
BRANCH  14  15
HETATM   15  C2  UNL     1      -9.370  16.986  25.188  1.00  0.00    -0.005 C 
HETATM   16  C1  UNL     1      -8.148  16.919  24.299  1.00  0.00     0.005 C 
ENDBRANCH  14  15
ENDBRANCH  13  14
ENDBRANCH  12  13
ENDBRANCH  11  12
ENDBRANCH  10  11
BRANCH  10  17
HETATM   17  C8  UNL     1     -13.728  12.492  28.310  1.00  0.00     0.007 C 
BRANCH  17  18
HETATM   18  C9  UNL     1     -12.692  11.408  28.502  1.00  0.00    -0.004 C 
HETATM   19  C10 UNL     1     -12.752  10.973  29.964  1.00  0.00     0.005 C 
ENDBRANCH  17  18
ENDBRANCH  10  17
ENDBRANCH   9  10
BRANCH   9  20
HETATM   20  O1  UNL     1     -15.359  13.990  29.834  1.00  0.00    -0.392 OA
ATOM     21  H1  UNL     1     -15.935  14.484  30.406  1.00  0.00     0.210 HD
ENDBRANCH   9  20
ENDBRANCH   8   9
BRANCH   8  22
HETATM   22  O2  UNL     1     -13.979  15.417  32.023  1.00  0.00    -0.389 OA
ATOM     23  H2  UNL     1     -13.296  15.742  32.598  1.00  0.00     0.210 HD
ENDBRANCH   8  22
ENDBRANCH   7   8
ENDBRANCH   1   6
BRANCH   2  24
HETATM   24  C17 UNL     1      -9.739  14.849  34.515  1.00  0.00     0.008 C 
HETATM   25  C18 UNL     1     -10.141  16.272  34.838  1.00  0.00     0.014 C 
BRANCH  24  26
HETATM   26  C19 UNL     1     -10.901  14.026  34.816  1.00  0.00    -0.024 C 
HETATM   27  C20 UNL     1     -11.056  12.839  35.294  1.00  0.00    -0.002 C 
BRANCH  27  28
HETATM   28  C21 UNL     1     -12.381  12.179  35.527  1.00  0.00     0.136 C 
HETATM   29  C22 UNL     1     -13.043  12.926  36.685  1.00  0.00     0.040 C 
HETATM   30  C23 UNL     1     -13.271  12.254  34.377  1.00  0.00     0.247 C 
HETATM   31  O3  UNL     1     -13.889  13.309  34.109  1.00  0.00    -0.271 OA
HETATM   32  N1  UNL     1     -13.461  11.129  33.532  1.00  0.00    -0.278 N 
HETATM   33  C24 UNL     1     -12.990   9.860  33.905  1.00  0.00     0.329 C 
ATOM     34  H1  UNL     1     -13.945  11.244  32.642  1.00  0.00     0.173 HD
HETATM   35  O4  UNL     1     -13.142   8.825  33.172  1.00  0.00    -0.247 OA
HETATM   36  N2  UNL     1     -12.315   9.675  35.138  1.00  0.00    -0.278 N 
HETATM   37  C25 UNL     1     -12.130  10.800  35.973  1.00  0.00     0.247 C 
ATOM     38  H2  UNL     1     -11.972   8.756  35.414  1.00  0.00     0.173 HD
HETATM   39  O5  UNL     1     -11.732  10.619  37.151  1.00  0.00    -0.271 OA
ENDBRANCH  27  28
ENDBRANCH  24  26
ENDBRANCH   2  24
BRANCH   5  40
HETATM   40  C29 UNL     1      -9.155  16.851  30.285  1.00  0.00     0.018 C 
HETATM   41  C31 UNL     1      -8.994  15.700  29.381  1.00  0.00     0.017 C 
HETATM   42  C32 UNL     1      -7.517  15.549  28.988  1.00  0.00     0.007 C 
HETATM   43  C33 UNL     1      -7.220  16.640  28.013  1.00  0.00    -0.002 A 
HETATM   44  C34 UNL     1      -7.561  17.946  28.679  1.00  0.00    -0.001 A 
HETATM   45  C36 UNL     1      -6.200  17.675  28.181  1.00  0.00    -0.040 A 
HETATM   46  C35 UNL     1      -7.955  17.790  30.111  1.00  0.00     0.022 C 
HETATM   47  C37 UNL     1      -5.037  17.405  29.061  1.00  0.00     0.015 C 
HETATM   48  C38 UNL     1      -5.822  18.403  26.878  1.00  0.00     0.015 C 
BRANCH  40  49
HETATM   49  C30 UNL     1     -10.304  17.679  29.735  1.00  0.00     0.241 C 
HETATM   50  O6  UNL     1     -10.735  17.494  28.612  1.00  0.00    -0.306 OA
ENDBRANCH  40  49
ENDBRANCH   5  40
TORSDOF 18
ENDMDL
MODEL 2
REMARK VINA RESULT: -9.244763489      1.058      1.644
REMARK  18 active torsions:
REMARK  status: ('A' for Active; 'I' for Inactive)
REMARK    1  A    between atoms: C2_2  and  C3_3 
REMARK    2  A    between atoms: C3_3  and  C4_4 
REMARK    3  A    between atoms: C4_4  and  C5_5 
REMARK    4  A    between atoms: C5_5  and  C6_6 
REMARK    5  A    between atoms: C6_6  and  C7_7 
REMARK    6  A    between atoms: C7_7  and  C8_8 
REMARK    7  A    between atoms: C7_7  and  C11_11 
REMARK    8  A    between atoms: C8_8  and  C9_9 
REMARK    9  A    between atoms: C11_11  and  O1_12 
REMARK   10  A    between atoms: C11_11  and  C12_14 
REMARK   11  A    between atoms: C12_14  and  O2_15 
REMARK   12  A    between atoms: C12_14  and  C13_17 
REMARK   13  A    between atoms: C14_18  and  C15_19 
REMARK   14  A    between atoms: C16_20  and  C17_21 
REMARK   15  A    between atoms: C17_21  and  C19_23 
REMARK   16  A    between atoms: C20_24  and  C21_25 
REMARK   17  A    between atoms: C28_39  and  C29_40 
REMARK   18  A    between atoms: C29_40  and  C30_41 
ROOT
HETATM    1  C15 UNL     1      -9.871  15.182  32.042  1.00  0.00     0.018 C 
HETATM    2  C16 UNL     1      -9.115  14.759  33.262  1.00  0.00     0.001 C 
HETATM    3  C26 UNL     1      -7.853  15.520  33.066  1.00  0.00     0.006 C 
HETATM    4  C27 UNL     1      -8.307  16.879  32.670  1.00  0.00     0.007 C 
HETATM    5  C28 UNL     1      -9.390  16.621  31.713  1.00  0.00     0.009 C 
ENDROOT
BRANCH   1   6
HETATM    6  C14 UNL     1     -11.322  15.154  32.050  1.00  0.00    -0.023 C 
HETATM    7  C13 UNL     1     -12.089  14.288  31.395  1.00  0.00     0.003 C 
BRANCH   7   8
HETATM    8  C12 UNL     1     -13.573  14.282  31.419  1.00  0.00     0.169 C 
BRANCH   8   9
HETATM    9  C11 UNL     1     -14.121  14.388  30.020  1.00  0.00     0.154 C 
BRANCH   9  10
HETATM   10  C7  UNL     1     -13.399  13.580  29.001  1.00  0.00     0.017 C 
BRANCH  10  11
HETATM   11  C6  UNL     1     -13.314  14.173  27.640  1.00  0.00     0.007 C 
BRANCH  11  12
HETATM   12  C5  UNL     1     -12.168  15.075  27.368  1.00  0.00     0.000 C 
BRANCH  12  13
HETATM   13  C4  UNL     1     -11.051  14.246  26.757  1.00  0.00     0.000 C 
BRANCH  13  14
HETATM   14  C3  UNL     1     -10.052  15.046  25.986  1.00  0.00    -0.000 C 
BRANCH  14  15
HETATM   15  C2  UNL     1     -10.697  15.977  24.984  1.00  0.00    -0.005 C 
HETATM   16  C1  UNL     1     -10.448  15.428  23.597  1.00  0.00     0.005 C 
ENDBRANCH  14  15
ENDBRANCH  13  14
ENDBRANCH  12  13
ENDBRANCH  11  12
ENDBRANCH  10  11
BRANCH  10  17
HETATM   17  C8  UNL     1     -13.835  12.124  28.992  1.00  0.00     0.007 C 
BRANCH  17  18
HETATM   18  C9  UNL     1     -12.682  11.228  29.384  1.00  0.00    -0.004 C 
HETATM   19  C10 UNL     1     -13.053  10.559  30.706  1.00  0.00     0.005 C 
ENDBRANCH  17  18
ENDBRANCH  10  17
ENDBRANCH   9  10
BRANCH   9  20
HETATM   20  O1  UNL     1     -15.503  14.166  30.032  1.00  0.00    -0.392 OA
ATOM     21  H1  UNL     1     -15.839  13.820  29.213  1.00  0.00     0.210 HD
ENDBRANCH   9  20
ENDBRANCH   8   9
BRANCH   8  22
HETATM   22  O2  UNL     1     -14.045  15.361  32.196  1.00  0.00    -0.389 OA
ATOM     23  H2  UNL     1     -14.912  15.159  32.529  1.00  0.00     0.210 HD
ENDBRANCH   8  22
ENDBRANCH   7   8
ENDBRANCH   1   6
BRANCH   2  24
HETATM   24  C17 UNL     1      -9.839  14.871  34.498  1.00  0.00     0.008 C 
HETATM   25  C18 UNL     1     -10.318  16.284  34.753  1.00  0.00     0.014 C 
BRANCH  24  26
HETATM   26  C19 UNL     1     -10.953  14.001  34.845  1.00  0.00    -0.024 C 
HETATM   27  C20 UNL     1     -11.053  12.895  35.500  1.00  0.00    -0.002 C 
BRANCH  27  28
HETATM   28  C21 UNL     1     -12.336  12.160  35.741  1.00  0.00     0.136 C 
HETATM   29  C22 UNL     1     -13.384  12.799  34.830  1.00  0.00     0.040 C 
HETATM   30  C23 UNL     1     -12.259  10.744  35.412  1.00  0.00     0.247 C 
HETATM   31  O3  UNL     1     -12.307  10.356  34.222  1.00  0.00    -0.271 OA
HETATM   32  N1  UNL     1     -12.127   9.768  36.434  1.00  0.00    -0.278 N 
HETATM   33  C24 UNL     1     -12.303  10.109  37.784  1.00  0.00     0.329 C 
ATOM     34  H1  UNL     1     -11.902   8.804  36.184  1.00  0.00     0.173 HD
HETATM   35  O4  UNL     1     -12.194   9.259  38.731  1.00  0.00    -0.247 OA
HETATM   36  N2  UNL     1     -12.618  11.441  38.155  1.00  0.00    -0.278 N 
HETATM   37  C25 UNL     1     -12.746  12.407  37.132  1.00  0.00     0.247 C 
ATOM     38  H2  UNL     1     -12.748  11.695  39.134  1.00  0.00     0.173 HD
HETATM   39  O5  UNL     1     -13.233  13.530  37.419  1.00  0.00    -0.271 OA
ENDBRANCH  27  28
ENDBRANCH  24  26
ENDBRANCH   2  24
BRANCH   5  40
HETATM   40  C29 UNL     1      -9.180  16.859  30.272  1.00  0.00     0.018 C 
HETATM   41  C31 UNL     1      -9.023  15.705  29.371  1.00  0.00     0.017 C 
HETATM   42  C32 UNL     1      -7.544  15.541  28.989  1.00  0.00     0.007 C 
HETATM   43  C33 UNL     1      -7.232  16.627  28.013  1.00  0.00    -0.002 A 
HETATM   44  C34 UNL     1      -7.567  17.937  28.675  1.00  0.00    -0.001 A 
HETATM   45  C36 UNL     1      -6.205  17.654  28.187  1.00  0.00    -0.040 A 
HETATM   46  C35 UNL     1      -7.972  17.788  30.104  1.00  0.00     0.022 C 
HETATM   47  C37 UNL     1      -5.050  17.377  29.074  1.00  0.00     0.015 C 
HETATM   48  C38 UNL     1      -5.813  18.377  26.884  1.00  0.00     0.015 C 
BRANCH  40  49
HETATM   49  C30 UNL     1     -10.319  17.695  29.712  1.00  0.00     0.241 C 
HETATM   50  O6  UNL     1     -10.638  17.625  28.540  1.00  0.00    -0.306 OA
ENDBRANCH  40  49
ENDBRANCH   5  40
TORSDOF 18
ENDMDL
MODEL 3
REMARK VINA RESULT: -9.160268813      6.046     12.318
REMARK  18 active torsions:
REMARK  status: ('A' for Active; 'I' for Inactive)
REMARK    1  A    between atoms: C2_2  and  C3_3 
REMARK    2  A    between atoms: C3_3  and  C4_4 
REMARK    3  A    between atoms: C4_4  and  C5_5 
REMARK    4  A    between atoms: C5_5  and  C6_6 
REMARK    5  A    between atoms: C6_6  and  C7_7 
REMARK    6  A    between atoms: C7_7  and  C8_8 
REMARK    7  A    between atoms: C7_7  and  C11_11 
REMARK    8  A    between atoms: C8_8  and  C9_9 
REMARK    9  A    between atoms: C11_11  and  O1_12 
REMARK   10  A    between atoms: C11_11  and  C12_14 
REMARK   11  A    between atoms: C12_14  and  O2_15 
REMARK   12  A    between atoms: C12_14  and  C13_17 
REMARK   13  A    between atoms: C14_18  and  C15_19 
REMARK   14  A    between atoms: C16_20  and  C17_21 
REMARK   15  A    between atoms: C17_21  and  C19_23 
REMARK   16  A    between atoms: C20_24  and  C21_25 
REMARK   17  A    between atoms: C28_39  and  C29_40 
REMARK   18  A    between atoms: C29_40  and  C30_41 
ROOT
HETATM    1  C15 UNL     1      -8.066  16.087  23.408  1.00  0.00     0.018 C 
HETATM    2  C16 UNL     1      -8.184  15.138  22.256  1.00  0.00     0.001 C 
HETATM    3  C26 UNL     1      -9.381  14.362  22.675  1.00  0.00     0.006 C 
HETATM    4  C27 UNL     1     -10.342  15.400  23.136  1.00  0.00     0.007 C 
HETATM    5  C28 UNL     1      -9.512  16.318  23.925  1.00  0.00     0.009 C 
ENDROOT
BRANCH   1   6
HETATM    6  C14 UNL     1      -7.416  17.369  23.219  1.00  0.00    -0.023 C 
HETATM    7  C13 UNL     1      -6.304  17.777  23.825  1.00  0.00     0.003 C 
BRANCH   7   8
HETATM    8  C12 UNL     1      -5.659  19.097  23.614  1.00  0.00     0.169 C 
BRANCH   8   9
HETATM    9  C11 UNL     1      -5.161  19.652  24.923  1.00  0.00     0.154 C 
BRANCH   9  10
HETATM   10  C7  UNL     1      -4.873  18.632  25.967  1.00  0.00     0.017 C 
BRANCH  10  11
HETATM   11  C6  UNL     1      -5.468  18.885  27.305  1.00  0.00     0.007 C 
BRANCH  11  12
HETATM   12  C5  UNL     1      -5.049  17.987  28.410  1.00  0.00     0.000 C 
BRANCH  12  13
HETATM   13  C4  UNL     1      -6.216  17.072  28.741  1.00  0.00     0.000 C 
BRANCH  13  14
HETATM   14  C3  UNL     1      -7.086  17.572  29.848  1.00  0.00    -0.000 C 
BRANCH  14  15
HETATM   15  C2  UNL     1      -8.153  16.577  30.247  1.00  0.00    -0.005 C 
HETATM   16  C1  UNL     1      -9.490  17.283  30.233  1.00  0.00     0.005 C 
ENDBRANCH  14  15
ENDBRANCH  13  14
ENDBRANCH  12  13
ENDBRANCH  11  12
ENDBRANCH  10  11
BRANCH  10  17
HETATM   17  C8  UNL     1      -3.401  18.258  26.029  1.00  0.00     0.007 C 
BRANCH  17  18
HETATM   18  C9  UNL     1      -3.196  16.846  25.529  1.00  0.00    -0.004 C 
HETATM   19  C10 UNL     1      -2.473  16.938  24.187  1.00  0.00     0.005 C 
ENDBRANCH  17  18
ENDBRANCH  10  17
ENDBRANCH   9  10
BRANCH   9  20
HETATM   20  O1  UNL     1      -4.097  20.531  24.693  1.00  0.00    -0.392 OA
ATOM     21  H1  UNL     1      -4.368  21.373  24.346  1.00  0.00     0.210 HD
ENDBRANCH   9  20
ENDBRANCH   8   9
BRANCH   8  22
HETATM   22  O2  UNL     1      -6.581  19.997  23.038  1.00  0.00    -0.389 OA
ATOM     23  H2  UNL     1      -6.217  20.359  22.238  1.00  0.00     0.210 HD
ENDBRANCH   8  22
ENDBRANCH   7   8
ENDBRANCH   1   6
BRANCH   2  24
HETATM   24  C17 UNL     1      -8.141  15.749  20.956  1.00  0.00     0.008 C 
HETATM   25  C18 UNL     1      -9.234  16.779  20.773  1.00  0.00     0.014 C 
BRANCH  24  26
HETATM   26  C19 UNL     1      -6.934  16.341  20.399  1.00  0.00    -0.024 C 
HETATM   27  C20 UNL     1      -5.896  15.861  19.804  1.00  0.00    -0.002 C 
BRANCH  27  28
HETATM   28  C21 UNL     1      -4.746  16.681  19.300  1.00  0.00     0.136 C 
HETATM   29  C22 UNL     1      -5.337  17.998  18.796  1.00  0.00     0.040 C 
HETATM   30  C23 UNL     1      -3.767  16.994  20.331  1.00  0.00     0.247 C 
HETATM   31  O3  UNL     1      -3.986  17.892  21.175  1.00  0.00    -0.271 OA
HETATM   32  N1  UNL     1      -2.539  16.286  20.403  1.00  0.00    -0.278 N 
HETATM   33  C24 UNL     1      -2.132  15.440  19.359  1.00  0.00     0.329 C 
ATOM     34  H1  UNL     1      -1.943  16.393  21.224  1.00  0.00     0.173 HD
HETATM   35  O4  UNL     1      -1.034  14.789  19.387  1.00  0.00    -0.247 OA
HETATM   36  N2  UNL     1      -2.942  15.276  18.207  1.00  0.00    -0.278 N 
HETATM   37  C25 UNL     1      -4.163  15.983  18.143  1.00  0.00     0.247 C 
ATOM     38  H2  UNL     1      -2.651  14.664  17.445  1.00  0.00     0.173 HD
HETATM   39  O5  UNL     1      -4.784  16.021  17.051  1.00  0.00    -0.271 OA
ENDBRANCH  27  28
ENDBRANCH  24  26
ENDBRANCH   2  24
BRANCH   5  40
HETATM   40  C29 UNL     1      -9.617  16.337  25.397  1.00  0.00     0.018 C 
HETATM   41  C31 UNL     1      -8.587  15.652  26.197  1.00  0.00     0.017 C 
HETATM   42  C32 UNL     1      -9.142  14.324  26.732  1.00  0.00     0.007 C 
HETATM   43  C33 UNL     1     -10.087  14.670  27.836  1.00  0.00    -0.002 A 
HETATM   44  C34 UNL     1     -11.125  15.599  27.267  1.00  0.00    -0.001 A 
HETATM   45  C36 UNL     1     -11.505  14.315  27.882  1.00  0.00    -0.040 A 
HETATM   46  C35 UNL     1     -10.995  15.794  25.792  1.00  0.00     0.022 C 
HETATM   47  C37 UNL     1     -11.980  13.138  27.114  1.00  0.00     0.015 C 
HETATM   48  C38 UNL     1     -12.134  14.420  29.284  1.00  0.00     0.015 C 
BRANCH  40  49
HETATM   49  C30 UNL     1      -9.672  17.771  25.896  1.00  0.00     0.241 C 
HETATM   50  O6  UNL     1      -8.980  18.145  26.824  1.00  0.00    -0.306 OA
ENDBRANCH  40  49
ENDBRANCH   5  40
TORSDOF 18
ENDMDL
MODEL 4
REMARK VINA RESULT: -8.966415733      1.340      2.094
REMARK  18 active torsions:
REMARK  status: ('A' for Active; 'I' for Inactive)
REMARK    1  A    between atoms: C2_2  and  C3_3 
REMARK    2  A    between atoms: C3_3  and  C4_4 
REMARK    3  A    between atoms: C4_4  and  C5_5 
REMARK    4  A    between atoms: C5_5  and  C6_6 
REMARK    5  A    between atoms: C6_6  and  C7_7 
REMARK    6  A    between atoms: C7_7  and  C8_8 
REMARK    7  A    between atoms: C7_7  and  C11_11 
REMARK    8  A    between atoms: C8_8  and  C9_9 
REMARK    9  A    between atoms: C11_11  and  O1_12 
REMARK   10  A    between atoms: C11_11  and  C12_14 
REMARK   11  A    between atoms: C12_14  and  O2_15 
REMARK   12  A    between atoms: C12_14  and  C13_17 
REMARK   13  A    between atoms: C14_18  and  C15_19 
REMARK   14  A    between atoms: C16_20  and  C17_21 
REMARK   15  A    between atoms: C17_21  and  C19_23 
REMARK   16  A    between atoms: C20_24  and  C21_25 
REMARK   17  A    between atoms: C28_39  and  C29_40 
REMARK   18  A    between atoms: C29_40  and  C30_41 
ROOT
HETATM    1  C15 UNL     1     -10.014  15.123  32.062  1.00  0.00     0.018 C 
HETATM    2  C16 UNL     1      -9.308  14.669  33.301  1.00  0.00     0.001 C 
HETATM    3  C26 UNL     1      -8.038  15.431  33.176  1.00  0.00     0.006 C 
HETATM    4  C27 UNL     1      -8.474  16.801  32.795  1.00  0.00     0.007 C 
HETATM    5  C28 UNL     1      -9.517  16.568  31.788  1.00  0.00     0.009 C 
ENDROOT
BRANCH   1   6
HETATM    6  C14 UNL     1     -11.463  15.099  32.010  1.00  0.00    -0.023 C 
HETATM    7  C13 UNL     1     -12.211  14.098  31.552  1.00  0.00     0.003 C 
BRANCH   7   8
HETATM    8  C12 UNL     1     -13.695  14.099  31.510  1.00  0.00     0.169 C 
BRANCH   8   9
HETATM    9  C11 UNL     1     -14.179  14.335  30.102  1.00  0.00     0.154 C 
BRANCH   9  10
HETATM   10  C7  UNL     1     -13.473  13.547  29.057  1.00  0.00     0.017 C 
BRANCH  10  11
HETATM   11  C6  UNL     1     -13.440  14.150  27.698  1.00  0.00     0.007 C 
BRANCH  11  12
HETATM   12  C5  UNL     1     -12.294  15.038  27.384  1.00  0.00     0.000 C 
BRANCH  12  13
HETATM   13  C4  UNL     1     -11.106  14.163  27.018  1.00  0.00     0.000 C 
BRANCH  13  14
HETATM   14  C3  UNL     1     -10.117  14.827  26.115  1.00  0.00    -0.000 C 
BRANCH  14  15
HETATM   15  C2  UNL     1     -10.742  15.899  25.251  1.00  0.00    -0.005 C 
HETATM   16  C1  UNL     1     -10.446  15.576  23.804  1.00  0.00     0.005 C 
ENDBRANCH  14  15
ENDBRANCH  13  14
ENDBRANCH  12  13
ENDBRANCH  11  12
ENDBRANCH  10  11
BRANCH  10  17
HETATM   17  C8  UNL     1     -13.885  12.083  29.050  1.00  0.00     0.007 C 
BRANCH  17  18
HETATM   18  C9  UNL     1     -12.687  11.199  29.314  1.00  0.00    -0.004 C 
HETATM   19  C10 UNL     1     -12.929  10.487  30.642  1.00  0.00     0.005 C 
ENDBRANCH  17  18
ENDBRANCH  10  17
ENDBRANCH   9  10
BRANCH   9  20
HETATM   20  O1  UNL     1     -15.571  14.211  30.051  1.00  0.00    -0.392 OA
ATOM     21  H1  UNL     1     -15.889  13.831  29.240  1.00  0.00     0.210 HD
ENDBRANCH   9  20
ENDBRANCH   8   9
BRANCH   8  22
HETATM   22  O2  UNL     1     -14.199  15.107  32.359  1.00  0.00    -0.389 OA
ATOM     23  H2  UNL     1     -13.649  15.880  32.299  1.00  0.00     0.210 HD
ENDBRANCH   8  22
ENDBRANCH   7   8
ENDBRANCH   1   6
BRANCH   2  24
HETATM   24  C17 UNL     1     -10.082  14.752  34.509  1.00  0.00     0.008 C 
HETATM   25  C18 UNL     1     -11.044  15.921  34.491  1.00  0.00     0.014 C 
BRANCH  24  26
HETATM   26  C19 UNL     1     -10.829  13.627  35.051  1.00  0.00    -0.024 C 
HETATM   27  C20 UNL     1     -11.938  13.520  35.700  1.00  0.00    -0.002 C 
BRANCH  27  28
HETATM   28  C21 UNL     1     -12.531  12.226  36.167  1.00  0.00     0.136 C 
HETATM   29  C22 UNL     1     -11.683  11.110  35.555  1.00  0.00     0.040 C 
HETATM   30  C23 UNL     1     -12.502  12.068  37.614  1.00  0.00     0.247 C 
HETATM   31  O3  UNL     1     -11.445  11.752  38.206  1.00  0.00    -0.271 OA
HETATM   32  N1  UNL     1     -13.675  12.271  38.389  1.00  0.00    -0.278 N 
HETATM   33  C24 UNL     1     -14.932  12.394  37.776  1.00  0.00     0.329 C 
ATOM     34  H1  UNL     1     -13.603  12.328  39.405  1.00  0.00     0.173 HD
HETATM   35  O4  UNL     1     -16.008  12.575  38.439  1.00  0.00    -0.247 OA
HETATM   36  N2  UNL     1     -15.056  12.317  36.366  1.00  0.00    -0.278 N 
HETATM   37  C25 UNL     1     -13.885  12.116  35.602  1.00  0.00     0.247 C 
ATOM     38  H2  UNL     1     -15.967  12.404  35.915  1.00  0.00     0.173 HD
HETATM   39  O5  UNL     1     -13.999  11.831  34.383  1.00  0.00    -0.271 OA
ENDBRANCH  27  28
ENDBRANCH  24  26
ENDBRANCH   2  24
BRANCH   5  40
HETATM   40  C29 UNL     1      -9.248  16.841  30.363  1.00  0.00     0.018 C 
HETATM   41  C31 UNL     1      -9.031  15.709  29.446  1.00  0.00     0.017 C 
HETATM   42  C32 UNL     1      -7.535  15.577  29.126  1.00  0.00     0.007 C 
HETATM   43  C33 UNL     1      -7.199  16.689  28.188  1.00  0.00    -0.002 A 
HETATM   44  C34 UNL     1      -7.585  17.979  28.861  1.00  0.00    -0.001 A 
HETATM   45  C36 UNL     1      -6.199  17.729  28.428  1.00  0.00    -0.040 A 
HETATM   46  C35 UNL     1      -8.050  17.793  30.268  1.00  0.00     0.022 C 
HETATM   47  C37 UNL     1      -5.079  17.452  29.361  1.00  0.00     0.015 C 
HETATM   48  C38 UNL     1      -5.761  18.485  27.160  1.00  0.00     0.015 C 
BRANCH  40  49
HETATM   49  C30 UNL     1     -10.375  17.670  29.771  1.00  0.00     0.241 C 
HETATM   50  O6  UNL     1     -10.672  17.584  28.594  1.00  0.00    -0.306 OA
ENDBRANCH  40  49
ENDBRANCH   5  40
TORSDOF 18
ENDMDL
MODEL 5
REMARK VINA RESULT: -8.826649857      1.527      3.769
REMARK  18 active torsions:
REMARK  status: ('A' for Active; 'I' for Inactive)
REMARK    1  A    between atoms: C2_2  and  C3_3 
REMARK    2  A    between atoms: C3_3  and  C4_4 
REMARK    3  A    between atoms: C4_4  and  C5_5 
REMARK    4  A    between atoms: C5_5  and  C6_6 
REMARK    5  A    between atoms: C6_6  and  C7_7 
REMARK    6  A    between atoms: C7_7  and  C8_8 
REMARK    7  A    between atoms: C7_7  and  C11_11 
REMARK    8  A    between atoms: C8_8  and  C9_9 
REMARK    9  A    between atoms: C11_11  and  O1_12 
REMARK   10  A    between atoms: C11_11  and  C12_14 
REMARK   11  A    between atoms: C12_14  and  O2_15 
REMARK   12  A    between atoms: C12_14  and  C13_17 
REMARK   13  A    between atoms: C14_18  and  C15_19 
REMARK   14  A    between atoms: C16_20  and  C17_21 
REMARK   15  A    between atoms: C17_21  and  C19_23 
REMARK   16  A    between atoms: C20_24  and  C21_25 
REMARK   17  A    between atoms: C28_39  and  C29_40 
REMARK   18  A    between atoms: C29_40  and  C30_41 
ROOT
HETATM    1  C15 UNL     1      -9.997  15.044  32.158  1.00  0.00     0.018 C 
HETATM    2  C16 UNL     1      -9.248  14.618  33.381  1.00  0.00     0.001 C 
HETATM    3  C26 UNL     1      -7.998  15.404  33.212  1.00  0.00     0.006 C 
HETATM    4  C27 UNL     1      -8.473  16.761  32.830  1.00  0.00     0.007 C 
HETATM    5  C28 UNL     1      -9.538  16.496  31.856  1.00  0.00     0.009 C 
ENDROOT
BRANCH   1   6
HETATM    6  C14 UNL     1     -11.446  14.990  32.147  1.00  0.00    -0.023 C 
HETATM    7  C13 UNL     1     -12.186  13.942  31.794  1.00  0.00     0.003 C 
BRANCH   7   8
HETATM    8  C12 UNL     1     -13.669  13.913  31.791  1.00  0.00     0.169 C 
BRANCH   8   9
HETATM    9  C11 UNL     1     -14.204  14.545  30.532  1.00  0.00     0.154 C 
BRANCH   9  10
HETATM   10  C7  UNL     1     -14.616  13.584  29.474  1.00  0.00     0.017 C 
BRANCH  10  11
HETATM   11  C6  UNL     1     -14.401  12.146  29.782  1.00  0.00     0.007 C 
BRANCH  11  12
HETATM   12  C5  UNL     1     -13.209  11.499  29.181  1.00  0.00     0.000 C 
BRANCH  12  13
HETATM   13  C4  UNL     1     -12.634  10.531  30.202  1.00  0.00     0.000 C 
BRANCH  13  14
HETATM   14  C3  UNL     1     -13.559  10.221  31.335  1.00  0.00    -0.000 C 
BRANCH  14  15
HETATM   15  C2  UNL     1     -13.035   9.121  32.232  1.00  0.00    -0.005 C 
HETATM   16  C1  UNL     1     -12.445   8.036  31.358  1.00  0.00     0.005 C 
ENDBRANCH  14  15
ENDBRANCH  13  14
ENDBRANCH  12  13
ENDBRANCH  11  12
ENDBRANCH  10  11
BRANCH  10  17
HETATM   17  C8  UNL     1     -14.114  13.980  28.095  1.00  0.00     0.007 C 
BRANCH  17  18
HETATM   18  C9  UNL     1     -12.963  14.953  28.214  1.00  0.00    -0.004 C 
HETATM   19  C10 UNL     1     -11.834  14.436  27.326  1.00  0.00     0.005 C 
ENDBRANCH  17  18
ENDBRANCH  10  17
ENDBRANCH   9  10
BRANCH   9  20
HETATM   20  O1  UNL     1     -15.193  15.481  30.853  1.00  0.00    -0.392 OA
ATOM     21  H1  UNL     1     -15.068  15.891  31.701  1.00  0.00     0.210 HD
ENDBRANCH   9  20
ENDBRANCH   8   9
BRANCH   8  22
HETATM   22  O2  UNL     1     -14.166  14.604  32.916  1.00  0.00    -0.389 OA
ATOM     23  H2  UNL     1     -13.556  14.515  33.640  1.00  0.00     0.210 HD
ENDBRANCH   8  22
ENDBRANCH   7   8
ENDBRANCH   1   6
BRANCH   2  24
HETATM   24  C17 UNL     1      -9.989  14.698  34.609  1.00  0.00     0.008 C 
HETATM   25  C18 UNL     1     -10.915  15.896  34.640  1.00  0.00     0.014 C 
BRANCH  24  26
HETATM   26  C19 UNL     1     -10.757  13.585  35.146  1.00  0.00    -0.024 C 
HETATM   27  C20 UNL     1     -11.918  13.483  35.698  1.00  0.00    -0.002 C 
BRANCH  27  28
HETATM   28  C21 UNL     1     -12.522  12.201  36.184  1.00  0.00     0.136 C 
HETATM   29  C22 UNL     1     -11.723  11.069  35.537  1.00  0.00     0.040 C 
HETATM   30  C23 UNL     1     -12.442  12.038  37.629  1.00  0.00     0.247 C 
HETATM   31  O3  UNL     1     -11.371  11.696  38.179  1.00  0.00    -0.271 OA
HETATM   32  N1  UNL     1     -13.580  12.264  38.448  1.00  0.00    -0.278 N 
HETATM   33  C24 UNL     1     -14.856  12.417  37.883  1.00  0.00     0.329 C 
ATOM     34  H1  UNL     1     -13.468  12.315  39.461  1.00  0.00     0.173 HD
HETATM   35  O4  UNL     1     -15.902  12.620  38.587  1.00  0.00    -0.247 OA
HETATM   36  N2  UNL     1     -15.035  12.349  36.479  1.00  0.00    -0.278 N 
HETATM   37  C25 UNL     1     -13.898  12.124  35.670  1.00  0.00     0.247 C 
ATOM     38  H2  UNL     1     -15.960  12.458  36.063  1.00  0.00     0.173 HD
HETATM   39  O5  UNL     1     -14.065  11.847  34.456  1.00  0.00    -0.271 OA
ENDBRANCH  27  28
ENDBRANCH  24  26
ENDBRANCH   2  24
BRANCH   5  40
HETATM   40  C29 UNL     1      -9.315  16.759  30.420  1.00  0.00     0.018 C 
HETATM   41  C31 UNL     1      -9.103  15.622  29.509  1.00  0.00     0.017 C 
HETATM   42  C32 UNL     1      -7.615  15.514  29.148  1.00  0.00     0.007 C 
HETATM   43  C33 UNL     1      -7.326  16.623  28.190  1.00  0.00    -0.002 A 
HETATM   44  C34 UNL     1      -7.716  17.912  28.861  1.00  0.00    -0.001 A 
HETATM   45  C36 UNL     1      -6.338  17.682  28.392  1.00  0.00    -0.040 A 
HETATM   46  C35 UNL     1      -8.137  17.732  30.283  1.00  0.00     0.022 C 
HETATM   47  C37 UNL     1      -5.187  17.435  29.294  1.00  0.00     0.015 C 
HETATM   48  C38 UNL     1      -5.951  18.434  27.104  1.00  0.00     0.015 C 
BRANCH  40  49
HETATM   49  C30 UNL     1     -10.473  17.562  29.853  1.00  0.00     0.241 C 
HETATM   50  O6  UNL     1     -10.750  17.521  28.669  1.00  0.00    -0.306 OA
ENDBRANCH  40  49
ENDBRANCH   5  40
TORSDOF 18
ENDMDL
