MODEL 1
REMARK VINA RESULT: -8.332748551      0.000      0.000
REMARK  12 active torsions:
REMARK  status: ('A' for Active; 'I' for Inactive)
REMARK    1  A    between atoms: O1_2  and  C2_3 
REMARK    2  A    between atoms: C4_5  and  C5_6 
REMARK    3  A    between atoms: C5_6  and  N1_7 
REMARK    4  A    between atoms: C11_13  and  N2_14 
REMARK    5  A    between atoms: N2_14  and  C12_15 
REMARK    6  A    between atoms: C16_25  and  N6_26 
REMARK    7  A    between atoms: C17_28  and  C18_29 
REMARK    8  A    between atoms: C18_29  and  N7_30 
REMARK    9  A    between atoms: N7_30  and  C19_33 
REMARK   10  A    between atoms: C19_33  and  C20_34 
REMARK   11  A    between atoms: C20_34  and  C21_35 
REMARK   12  A    between atoms: C21_35  and  N8_36 
ROOT
HETATM    1  C12 UNL     1      11.593  14.087   6.982  1.00  0.00     0.193 A 
HETATM    2  N3  UNL     1      12.492  13.252   7.642  1.00  0.00    -0.327 N 
ATOM      3  H3  UNL     1      13.210  12.772   7.101  1.00  0.00     0.169 HD
HETATM    4  C13 UNL     1      12.441  13.065   8.954  1.00  0.00     0.183 A 
HETATM    5  N4  UNL     1      11.515  13.666   9.736  1.00  0.00    -0.350 N 
ATOM      6  H4  UNL     1      11.503  13.503  10.743  1.00  0.00     0.166 HD
HETATM    7  C14 UNL     1      10.607  14.486   9.161  1.00  0.00     0.064 A 
HETATM    8  C15 UNL     1       9.621  15.065   9.908  1.00  0.00     0.120 A 
HETATM    9  N5  UNL     1       8.652  15.849   9.368  1.00  0.00    -0.350 N 
ATOM     10  H5  UNL     1       7.936  16.257   9.969  1.00  0.00     0.166 HD
HETATM   11  C16 UNL     1       8.632  16.092   8.032  1.00  0.00     0.105 A 
HETATM   12  C26 UNL     1       9.654  15.497   7.275  1.00  0.00     0.067 A 
HETATM   13  C27 UNL     1      10.642  14.697   7.802  1.00  0.00     0.054 A 
ENDROOT
BRANCH  11  14
HETATM   14  N6  UNL     1       7.666  16.674   7.493  1.00  0.00    -0.354 N 
HETATM   15  C17 UNL     1       6.495  17.316   7.736  1.00  0.00     0.089 C 
ATOM     16  H6  UNL     1       7.814  16.661   6.484  1.00  0.00     0.166 HD
BRANCH  15  17
HETATM   17  C18 UNL     1       6.319  18.438   8.693  1.00  0.00     0.276 C 
BRANCH  17  18
HETATM   18  N7  UNL     1       5.784  17.863   9.965  1.00  0.00    -0.071 N 
ATOM     19  H72 UNL     1       4.764  17.873   9.961  1.00  0.00     0.277 HD
ATOM     20  H71 UNL     1       5.947  16.857  10.000  1.00  0.00     0.277 HD
BRANCH  18  21
HETATM   21  C19 UNL     1       6.281  18.487  11.133  1.00  0.00     0.234 C 
BRANCH  21  22
HETATM   22  C20 UNL     1       6.753  17.484  12.191  1.00  0.00     0.047 C 
BRANCH  22  23
HETATM   23  C21 UNL     1       7.386  18.219  13.346  1.00  0.00     0.127 C 
BRANCH  23  24
HETATM   24  N8  UNL     1       8.492  17.470  13.880  1.00  0.00    -0.352 N 
HETATM   25  C22 UNL     1       9.432  16.593  13.215  1.00  0.00     0.126 C 
HETATM   26  C23 UNL     1      10.529  16.246  14.196  1.00  0.00     0.029 C 
HETATM   27  C24 UNL     1       9.792  16.359  15.542  1.00  0.00     0.104 C 
HETATM   28  C25 UNL     1       8.869  17.487  15.275  1.00  0.00     0.219 C 
HETATM   29  O2  UNL     1       8.506  18.296  16.162  1.00  0.00    -0.273 OA
ENDBRANCH  23  24
ENDBRANCH  22  23
ENDBRANCH  21  22
ENDBRANCH  18  21
ENDBRANCH  17  18
ENDBRANCH  15  17
ENDBRANCH  11  14
BRANCH   1  30
HETATM   30  N2  UNL     1      11.712  14.216   5.816  1.00  0.00    -0.384 NA
BRANCH  30  31
HETATM   31  C11 UNL     1      11.860  14.357   4.507  1.00  0.00     0.143 A 
HETATM   32  C2  UNL     1      12.968  13.897   3.780  1.00  0.00     0.109 A 
HETATM   33  C3  UNL     1      13.044  14.173   2.452  1.00  0.00     0.053 A 
HETATM   34  C4  UNL     1      12.066  14.893   1.795  1.00  0.00    -0.012 A 
HETATM   35  C8  UNL     1      10.946  15.363   2.486  1.00  0.00    -0.047 A 
HETATM   36  C9  UNL     1       9.895  16.107   1.772  1.00  0.00     0.049 C 
HETATM   37  C10 UNL     1      10.870  15.087   3.801  1.00  0.00     0.055 A 
BRANCH  32  38
HETATM   38  O1  UNL     1      13.930  13.168   4.502  1.00  0.00    -0.352 OA
HETATM   39  C1  UNL     1      14.056  11.792   4.315  1.00  0.00     0.210 C 
ENDBRANCH  32  38
BRANCH  34  40
HETATM   40  C5  UNL     1      12.204  15.251   0.370  1.00  0.00     0.096 C 
BRANCH  40  41
HETATM   41  N1  UNL     1      12.420  14.258  -0.578  1.00  0.00    -0.398 N 
HETATM   42  C6  UNL     1      11.665  13.056  -0.547  1.00  0.00     0.148 C 
HETATM   43  C7  UNL     1      13.699  14.212  -1.211  1.00  0.00     0.148 C 
ENDBRANCH  40  41
ENDBRANCH  34  40
ENDBRANCH  30  31
ENDBRANCH   1  30
TORSDOF 12
ENDMDL
MODEL 2
REMARK VINA RESULT: -8.259827648      2.282     11.052
REMARK  12 active torsions:
REMARK  status: ('A' for Active; 'I' for Inactive)
REMARK    1  A    between atoms: O1_2  and  C2_3 
REMARK    2  A    between atoms: C4_5  and  C5_6 
REMARK    3  A    between atoms: C5_6  and  N1_7 
REMARK    4  A    between atoms: C11_13  and  N2_14 
REMARK    5  A    between atoms: N2_14  and  C12_15 
REMARK    6  A    between atoms: C16_25  and  N6_26 
REMARK    7  A    between atoms: C17_28  and  C18_29 
REMARK    8  A    between atoms: C18_29  and  N7_30 
REMARK    9  A    between atoms: N7_30  and  C19_33 
REMARK   10  A    between atoms: C19_33  and  C20_34 
REMARK   11  A    between atoms: C20_34  and  C21_35 
REMARK   12  A    between atoms: C21_35  and  N8_36 
ROOT
HETATM    1  C12 UNL     1       7.985  17.284   9.297  1.00  0.00     0.193 A 
HETATM    2  N3  UNL     1       6.693  17.323   8.779  1.00  0.00    -0.327 N 
ATOM      3  H3  UNL     1       5.903  17.368   9.422  1.00  0.00     0.169 HD
HETATM    4  C13 UNL     1       6.459  17.303   7.473  1.00  0.00     0.183 A 
HETATM    5  N4  UNL     1       7.455  17.240   6.561  1.00  0.00    -0.350 N 
ATOM      6  H4  UNL     1       7.244  17.227   5.562  1.00  0.00     0.166 HD
HETATM    7  C14 UNL     1       8.736  17.195   6.992  1.00  0.00     0.064 A 
HETATM    8  C15 UNL     1       9.766  17.072   6.104  1.00  0.00     0.120 A 
HETATM    9  N5  UNL     1      11.064  16.964   6.491  1.00  0.00    -0.350 N 
ATOM     10  H5  UNL     1      11.797  16.873   5.788  1.00  0.00     0.166 HD
HETATM   11  C16 UNL     1      11.389  16.977   7.810  1.00  0.00     0.105 A 
HETATM   12  C26 UNL     1      10.323  17.110   8.714  1.00  0.00     0.067 A 
HETATM   13  C27 UNL     1       9.002  17.217   8.343  1.00  0.00     0.054 A 
ENDROOT
BRANCH  11  14
HETATM   14  N6  UNL     1      12.550  16.720   8.194  1.00  0.00    -0.354 N 
HETATM   15  C17 UNL     1      13.408  15.714   8.504  1.00  0.00     0.089 C 
ATOM     16  H6  UNL     1      13.042  17.604   8.325  1.00  0.00     0.166 HD
BRANCH  15  17
HETATM   17  C18 UNL     1      13.698  14.542   7.638  1.00  0.00     0.276 C 
BRANCH  17  18
HETATM   18  N7  UNL     1      14.084  15.064   6.291  1.00  0.00    -0.071 N 
ATOM     19  H72 UNL     1      13.962  16.076   6.250  1.00  0.00     0.277 HD
ATOM     20  H71 UNL     1      15.093  15.007   6.160  1.00  0.00     0.277 HD
BRANCH  18  21
HETATM   21  C19 UNL     1      13.407  14.440   5.217  1.00  0.00     0.234 C 
BRANCH  21  22
HETATM   22  C20 UNL     1      13.337  15.319   3.963  1.00  0.00     0.047 C 
BRANCH  22  23
HETATM   23  C21 UNL     1      12.712  14.544   2.831  1.00  0.00     0.127 C 
BRANCH  23  24
HETATM   24  N8  UNL     1      11.481  15.160   2.412  1.00  0.00    -0.352 N 
HETATM   25  C22 UNL     1      10.251  15.376   3.144  1.00  0.00     0.126 C 
HETATM   26  C23 UNL     1       9.357  16.267   2.311  1.00  0.00     0.029 C 
HETATM   27  C24 UNL     1       9.819  15.926   0.884  1.00  0.00     0.104 C 
HETATM   28  C25 UNL     1      11.269  15.707   1.091  1.00  0.00     0.219 C 
HETATM   29  O2  UNL     1      12.131  15.971   0.220  1.00  0.00    -0.273 OA
ENDBRANCH  23  24
ENDBRANCH  22  23
ENDBRANCH  21  22
ENDBRANCH  18  21
ENDBRANCH  17  18
ENDBRANCH  15  17
ENDBRANCH  11  14
BRANCH   1  30
HETATM   30  N2  UNL     1       8.113  17.323  10.468  1.00  0.00    -0.384 NA
BRANCH  30  31
HETATM   31  C11 UNL     1       8.266  17.357  11.784  1.00  0.00     0.143 A 
HETATM   32  C2  UNL     1       7.405  18.027  12.665  1.00  0.00     0.109 A 
HETATM   33  C3  UNL     1       7.711  18.057  13.988  1.00  0.00     0.053 A 
HETATM   34  C4  UNL     1       8.846  17.453  14.493  1.00  0.00    -0.012 A 
HETATM   35  C8  UNL     1       9.725  16.774  13.645  1.00  0.00    -0.047 A 
HETATM   36  C9  UNL     1      10.917  16.109  14.195  1.00  0.00     0.049 C 
HETATM   37  C10 UNL     1       9.418  16.741  12.335  1.00  0.00     0.055 A 
BRANCH  32  38
HETATM   38  O1  UNL     1       6.264  18.621  12.094  1.00  0.00    -0.352 OA
HETATM   39  C1  UNL     1       5.012  18.025  12.240  1.00  0.00     0.210 C 
ENDBRANCH  32  38
BRANCH  34  40
HETATM   40  C5  UNL     1       9.204  17.565  15.921  1.00  0.00     0.096 C 
BRANCH  40  41
HETATM   41  N1  UNL     1       8.678  16.668  16.841  1.00  0.00    -0.398 N 
HETATM   42  C6  UNL     1       9.503  15.671  17.428  1.00  0.00     0.148 C 
HETATM   43  C7  UNL     1       7.275  16.408  16.789  1.00  0.00     0.148 C 
ENDBRANCH  40  41
ENDBRANCH  34  40
ENDBRANCH  30  31
ENDBRANCH   1  30
TORSDOF 12
ENDMDL
MODEL 3
REMARK VINA RESULT: -8.218910382      2.919      5.922
REMARK  12 active torsions:
REMARK  status: ('A' for Active; 'I' for Inactive)
REMARK    1  A    between atoms: O1_2  and  C2_3 
REMARK    2  A    between atoms: C4_5  and  C5_6 
REMARK    3  A    between atoms: C5_6  and  N1_7 
REMARK    4  A    between atoms: C11_13  and  N2_14 
REMARK    5  A    between atoms: N2_14  and  C12_15 
REMARK    6  A    between atoms: C16_25  and  N6_26 
REMARK    7  A    between atoms: C17_28  and  C18_29 
REMARK    8  A    between atoms: C18_29  and  N7_30 
REMARK    9  A    between atoms: N7_30  and  C19_33 
REMARK   10  A    between atoms: C19_33  and  C20_34 
REMARK   11  A    between atoms: C20_34  and  C21_35 
REMARK   12  A    between atoms: C21_35  and  N8_36 
ROOT
HETATM    1  C12 UNL     1       8.153  17.167   8.873  1.00  0.00     0.193 A 
HETATM    2  N3  UNL     1       7.632  18.132   8.015  1.00  0.00    -0.327 N 
ATOM      3  H3  UNL     1       7.978  18.182   7.057  1.00  0.00     0.169 HD
HETATM    4  C13 UNL     1       6.698  18.989   8.406  1.00  0.00     0.183 A 
HETATM    5  N4  UNL     1       6.193  18.985   9.661  1.00  0.00    -0.350 N 
ATOM      6  H4  UNL     1       5.474  19.656   9.933  1.00  0.00     0.166 HD
HETATM    7  C14 UNL     1       6.657  18.078  10.550  1.00  0.00     0.064 A 
HETATM    8  C15 UNL     1       6.215  18.081  11.842  1.00  0.00     0.120 A 
HETATM    9  N5  UNL     1       6.693  17.228  12.786  1.00  0.00    -0.350 N 
ATOM     10  H5  UNL     1       6.331  17.271  13.738  1.00  0.00     0.166 HD
HETATM   11  C16 UNL     1       7.651  16.319  12.467  1.00  0.00     0.105 A 
HETATM   12  C26 UNL     1       8.093  16.321  11.134  1.00  0.00     0.067 A 
HETATM   13  C27 UNL     1       7.625  17.178  10.164  1.00  0.00     0.054 A 
ENDROOT
BRANCH  11  14
HETATM   14  N6  UNL     1       8.217  15.638  13.348  1.00  0.00    -0.354 N 
HETATM   15  C17 UNL     1       9.409  15.394  13.953  1.00  0.00     0.089 C 
ATOM     16  H6  UNL     1       7.518  15.033  13.777  1.00  0.00     0.166 HD
BRANCH  15  17
HETATM   17  C18 UNL     1      10.302  16.432  14.528  1.00  0.00     0.276 C 
BRANCH  17  18
HETATM   18  N7  UNL     1       9.464  17.316  15.395  1.00  0.00    -0.071 N 
ATOM     19  H72 UNL     1       9.909  18.225  15.516  1.00  0.00     0.277 HD
ATOM     20  H71 UNL     1       8.617  17.601  14.903  1.00  0.00     0.277 HD
BRANCH  18  21
HETATM   21  C19 UNL     1       9.141  16.750  16.651  1.00  0.00     0.234 C 
BRANCH  21  22
HETATM   22  C20 UNL     1       7.653  16.409  16.787  1.00  0.00     0.047 C 
BRANCH  22  23
HETATM   23  C21 UNL     1       6.818  17.597  16.381  1.00  0.00     0.127 C 
BRANCH  23  24
HETATM   24  N8  UNL     1       5.417  17.317  16.557  1.00  0.00    -0.352 N 
HETATM   25  C22 UNL     1       4.731  16.631  17.632  1.00  0.00     0.126 C 
HETATM   26  C23 UNL     1       3.243  16.815  17.434  1.00  0.00     0.029 C 
HETATM   27  C24 UNL     1       3.148  16.977  15.907  1.00  0.00     0.104 C 
HETATM   28  C25 UNL     1       4.397  17.717  15.614  1.00  0.00     0.219 C 
HETATM   29  O2  UNL     1       4.495  18.547  14.680  1.00  0.00    -0.273 OA
ENDBRANCH  23  24
ENDBRANCH  22  23
ENDBRANCH  21  22
ENDBRANCH  18  21
ENDBRANCH  17  18
ENDBRANCH  15  17
ENDBRANCH  11  14
BRANCH   1  30
HETATM   30  N2  UNL     1       8.969  16.431   8.446  1.00  0.00    -0.384 NA
BRANCH  30  31
HETATM   31  C11 UNL     1       9.875  15.596   7.959  1.00  0.00     0.143 A 
HETATM   32  C2  UNL     1      10.144  15.426   6.593  1.00  0.00     0.109 A 
HETATM   33  C3  UNL     1      11.041  14.480   6.212  1.00  0.00     0.053 A 
HETATM   34  C4  UNL     1      11.695  13.677   7.126  1.00  0.00    -0.012 A 
HETATM   35  C8  UNL     1      11.455  13.821   8.495  1.00  0.00    -0.047 A 
HETATM   36  C9  UNL     1      12.176  12.980   9.464  1.00  0.00     0.049 C 
HETATM   37  C10 UNL     1      10.568  14.761   8.872  1.00  0.00     0.055 A 
BRANCH  32  38
HETATM   38  O1  UNL     1       9.451  16.273   5.710  1.00  0.00    -0.352 OA
HETATM   39  C1  UNL     1       9.775  16.294   4.354  1.00  0.00     0.210 C 
ENDBRANCH  32  38
BRANCH  34  40
HETATM   40  C5  UNL     1      12.605  12.601   6.688  1.00  0.00     0.096 C 
BRANCH  40  41
HETATM   41  N1  UNL     1      13.736  12.908   5.941  1.00  0.00    -0.398 N 
HETATM   42  C6  UNL     1      14.400  11.900   5.193  1.00  0.00     0.148 C 
HETATM   43  C7  UNL     1      14.505  14.043   6.338  1.00  0.00     0.148 C 
ENDBRANCH  40  41
ENDBRANCH  34  40
ENDBRANCH  30  31
ENDBRANCH   1  30
TORSDOF 12
ENDMDL
MODEL 4
REMARK VINA RESULT: -8.146260229      2.980      6.095
REMARK  12 active torsions:
REMARK  status: ('A' for Active; 'I' for Inactive)
REMARK    1  A    between atoms: O1_2  and  C2_3 
REMARK    2  A    between atoms: C4_5  and  C5_6 
REMARK    3  A    between atoms: C5_6  and  N1_7 
REMARK    4  A    between atoms: C11_13  and  N2_14 
REMARK    5  A    between atoms: N2_14  and  C12_15 
REMARK    6  A    between atoms: C16_25  and  N6_26 
REMARK    7  A    between atoms: C17_28  and  C18_29 
REMARK    8  A    between atoms: C18_29  and  N7_30 
REMARK    9  A    between atoms: N7_30  and  C19_33 
REMARK   10  A    between atoms: C19_33  and  C20_34 
REMARK   11  A    between atoms: C20_34  and  C21_35 
REMARK   12  A    between atoms: C21_35  and  N8_36 
ROOT
HETATM    1  C12 UNL     1       8.059  16.956   8.971  1.00  0.00     0.193 A 
HETATM    2  N3  UNL     1       7.475  17.882   8.110  1.00  0.00    -0.327 N 
ATOM      3  H3  UNL     1       7.790  17.924   7.141  1.00  0.00     0.169 HD
HETATM    4  C13 UNL     1       6.522  18.711   8.513  1.00  0.00     0.183 A 
HETATM    5  N4  UNL     1       6.056  18.715   9.783  1.00  0.00    -0.350 N 
ATOM      6  H4  UNL     1       5.320  19.365  10.063  1.00  0.00     0.166 HD
HETATM    7  C14 UNL     1       6.581  17.846  10.675  1.00  0.00     0.064 A 
HETATM    8  C15 UNL     1       6.179  17.859  11.980  1.00  0.00     0.120 A 
HETATM    9  N5  UNL     1       6.717  17.046  12.926  1.00  0.00    -0.350 N 
ATOM     10  H5  UNL     1       6.383  17.096  13.888  1.00  0.00     0.166 HD
HETATM   11  C16 UNL     1       7.699  16.167  12.596  1.00  0.00     0.105 A 
HETATM   12  C26 UNL     1       8.100  16.157  11.250  1.00  0.00     0.067 A 
HETATM   13  C27 UNL     1       7.570  16.975  10.278  1.00  0.00     0.054 A 
ENDROOT
BRANCH  11  14
HETATM   14  N6  UNL     1       8.318  15.526  13.472  1.00  0.00    -0.354 N 
HETATM   15  C17 UNL     1       9.496  15.435  14.141  1.00  0.00     0.089 C 
ATOM     16  H6  UNL     1       7.702  14.790  13.818  1.00  0.00     0.166 HD
BRANCH  15  17
HETATM   17  C18 UNL     1      10.174  16.561  14.834  1.00  0.00     0.276 C 
BRANCH  17  18
HETATM   18  N7  UNL     1       9.622  16.631  16.221  1.00  0.00    -0.071 N 
ATOM     19  H72 UNL     1       9.413  15.696  16.571  1.00  0.00     0.277 HD
ATOM     20  H71 UNL     1      10.350  16.904  16.882  1.00  0.00     0.277 HD
BRANCH  18  21
HETATM   21  C19 UNL     1       8.493  17.473  16.350  1.00  0.00     0.234 C 
BRANCH  21  22
HETATM   22  C20 UNL     1       7.222  16.712  16.744  1.00  0.00     0.047 C 
BRANCH  22  23
HETATM   23  C21 UNL     1       6.007  17.536  16.404  1.00  0.00     0.127 C 
BRANCH  23  24
HETATM   24  N8  UNL     1       5.054  17.505  17.481  1.00  0.00    -0.352 N 
HETATM   25  C22 UNL     1       4.818  18.459  18.545  1.00  0.00     0.126 C 
HETATM   26  C23 UNL     1       3.554  18.054  19.269  1.00  0.00     0.029 C 
HETATM   27  C24 UNL     1       3.537  16.532  19.044  1.00  0.00     0.104 C 
HETATM   28  C25 UNL     1       4.104  16.434  17.678  1.00  0.00     0.219 C 
HETATM   29  O2  UNL     1       3.774  15.539  16.865  1.00  0.00    -0.273 OA
ENDBRANCH  23  24
ENDBRANCH  22  23
ENDBRANCH  21  22
ENDBRANCH  18  21
ENDBRANCH  17  18
ENDBRANCH  15  17
ENDBRANCH  11  14
BRANCH   1  30
HETATM   30  N2  UNL     1       8.889  16.241   8.534  1.00  0.00    -0.384 NA
BRANCH  30  31
HETATM   31  C11 UNL     1       9.820  15.444   8.030  1.00  0.00     0.143 A 
HETATM   32  C2  UNL     1      10.071  15.286   6.660  1.00  0.00     0.109 A 
HETATM   33  C3  UNL     1      10.999  14.376   6.262  1.00  0.00     0.053 A 
HETATM   34  C4  UNL     1      11.701  13.601   7.164  1.00  0.00    -0.012 A 
HETATM   35  C8  UNL     1      11.480  13.735   8.537  1.00  0.00    -0.047 A 
HETATM   36  C9  UNL     1      12.251  12.924   9.493  1.00  0.00     0.049 C 
HETATM   37  C10 UNL     1      10.562  14.638   8.930  1.00  0.00     0.055 A 
BRANCH  32  38
HETATM   38  O1  UNL     1       9.328  16.103   5.789  1.00  0.00    -0.352 OA
HETATM   39  C1  UNL     1       9.698  16.226   4.451  1.00  0.00     0.210 C 
ENDBRANCH  32  38
BRANCH  34  40
HETATM   40  C5  UNL     1      12.647  12.563   6.709  1.00  0.00     0.096 C 
BRANCH  40  41
HETATM   41  N1  UNL     1      13.770  12.920   5.974  1.00  0.00    -0.398 N 
HETATM   42  C6  UNL     1      14.477  11.946   5.220  1.00  0.00     0.148 C 
HETATM   43  C7  UNL     1      14.493  14.079   6.388  1.00  0.00     0.148 C 
ENDBRANCH  40  41
ENDBRANCH  34  40
ENDBRANCH  30  31
ENDBRANCH   1  30
TORSDOF 12
ENDMDL
MODEL 5
REMARK VINA RESULT: -8.108394297      2.237     10.031
REMARK  12 active torsions:
REMARK  status: ('A' for Active; 'I' for Inactive)
REMARK    1  A    between atoms: O1_2  and  C2_3 
REMARK    2  A    between atoms: C4_5  and  C5_6 
REMARK    3  A    between atoms: C5_6  and  N1_7 
REMARK    4  A    between atoms: C11_13  and  N2_14 
REMARK    5  A    between atoms: N2_14  and  C12_15 
REMARK    6  A    between atoms: C16_25  and  N6_26 
REMARK    7  A    between atoms: C17_28  and  C18_29 
REMARK    8  A    between atoms: C18_29  and  N7_30 
REMARK    9  A    between atoms: N7_30  and  C19_33 
REMARK   10  A    between atoms: C19_33  and  C20_34 
REMARK   11  A    between atoms: C20_34  and  C21_35 
REMARK   12  A    between atoms: C21_35  and  N8_36 
ROOT
HETATM    1  C12 UNL     1      11.257  16.135   8.105  1.00  0.00     0.193 A 
HETATM    2  N3  UNL     1      12.372  16.243   8.933  1.00  0.00    -0.327 N 
ATOM      3  H3  UNL     1      12.273  16.698   9.840  1.00  0.00     0.169 HD
HETATM    4  C13 UNL     1      13.559  15.771   8.575  1.00  0.00     0.183 A 
HETATM    5  N4  UNL     1      13.767  15.159   7.387  1.00  0.00    -0.350 N 
ATOM      6  H4  UNL     1      14.692  14.805   7.141  1.00  0.00     0.166 HD
HETATM    7  C14 UNL     1      12.729  15.024   6.531  1.00  0.00     0.064 A 
HETATM    8  C15 UNL     1      12.912  14.464   5.299  1.00  0.00     0.120 A 
HETATM    9  N5  UNL     1      11.914  14.359   4.382  1.00  0.00    -0.350 N 
ATOM     10  H5  UNL     1      12.102  13.935   3.474  1.00  0.00     0.166 HD
HETATM   11  C16 UNL     1      10.669  14.818   4.669  1.00  0.00     0.105 A 
HETATM   12  C26 UNL     1      10.491  15.385   5.941  1.00  0.00     0.067 A 
HETATM   13  C27 UNL     1      11.488  15.504   6.882  1.00  0.00     0.054 A 
ENDROOT
BRANCH  11  14
HETATM   14  N6  UNL     1       9.781  14.878   3.791  1.00  0.00    -0.354 N 
HETATM   15  C17 UNL     1       8.907  15.709   3.167  1.00  0.00     0.089 C 
ATOM     16  H6  UNL     1       9.672  13.948   3.388  1.00  0.00     0.166 HD
BRANCH  15  17
HETATM   17  C18 UNL     1       9.260  17.015   2.553  1.00  0.00     0.276 C 
BRANCH  17  18
HETATM   18  N7  UNL     1      10.314  16.756   1.524  1.00  0.00    -0.071 N 
ATOM     19  H72 UNL     1      10.689  17.635   1.167  1.00  0.00     0.277 HD
ATOM     20  H71 UNL     1      11.153  16.374   1.960  1.00  0.00     0.277 HD
BRANCH  18  21
HETATM   21  C19 UNL     1       9.887  15.930   0.459  1.00  0.00     0.234 C 
BRANCH  21  22
HETATM   22  C20 UNL     1      11.028  15.107  -0.152  1.00  0.00     0.047 C 
BRANCH  22  23
HETATM   23  C21 UNL     1      11.973  14.660   0.933  1.00  0.00     0.127 C 
BRANCH  23  24
HETATM   24  N8  UNL     1      12.214  13.244   0.846  1.00  0.00    -0.352 N 
HETATM   25  C22 UNL     1      11.607  12.247  -0.011  1.00  0.00     0.126 C 
HETATM   26  C23 UNL     1      12.384  10.958   0.143  1.00  0.00     0.029 C 
HETATM   27  C24 UNL     1      12.926  11.089   1.577  1.00  0.00     0.104 C 
HETATM   28  C25 UNL     1      13.182  12.546   1.660  1.00  0.00     0.219 C 
HETATM   29  O2  UNL     1      14.108  13.037   2.347  1.00  0.00    -0.273 OA
ENDBRANCH  23  24
ENDBRANCH  22  23
ENDBRANCH  21  22
ENDBRANCH  18  21
ENDBRANCH  17  18
ENDBRANCH  15  17
ENDBRANCH  11  14
BRANCH   1  30
HETATM   30  N2  UNL     1      10.232  16.564   8.500  1.00  0.00    -0.384 NA
BRANCH  30  31
HETATM   31  C11 UNL     1       9.087  17.051   8.955  1.00  0.00     0.143 A 
HETATM   32  C2  UNL     1       8.850  17.403  10.292  1.00  0.00     0.109 A 
HETATM   33  C3  UNL     1       7.607  17.817  10.653  1.00  0.00     0.053 A 
HETATM   34  C4  UNL     1       6.569  17.899   9.746  1.00  0.00    -0.012 A 
HETATM   35  C8  UNL     1       6.769  17.561   8.406  1.00  0.00    -0.047 A 
HETATM   36  C9  UNL     1       5.664  17.678   7.440  1.00  0.00     0.049 C 
HETATM   37  C10 UNL     1       8.002  17.154   8.048  1.00  0.00     0.055 A 
BRANCH  32  38
HETATM   38  O1  UNL     1       9.945  17.301  11.169  1.00  0.00    -0.352 OA
HETATM   39  C1  UNL     1       9.789  16.718  12.426  1.00  0.00     0.210 C 
ENDBRANCH  32  38
BRANCH  34  40
HETATM   40  C5  UNL     1       5.207  18.274  10.173  1.00  0.00     0.096 C 
BRANCH  40  41
HETATM   41  N1  UNL     1       5.022  19.037  11.319  1.00  0.00    -0.398 N 
HETATM   42  C6  UNL     1       4.196  18.565  12.374  1.00  0.00     0.148 C 
HETATM   43  C7  UNL     1       5.206  20.449  11.214  1.00  0.00     0.148 C 
ENDBRANCH  40  41
ENDBRANCH  34  40
ENDBRANCH  30  31
ENDBRANCH   1  30
TORSDOF 12
ENDMDL
