MODEL 1
REMARK VINA RESULT: -8.642187948      0.000      0.000
REMARK  12 active torsions:
REMARK  status: ('A' for Active; 'I' for Inactive)
REMARK    1  A    between atoms: O1_2  and  C2_3 
REMARK    2  A    between atoms: C4_5  and  C5_6 
REMARK    3  A    between atoms: C5_6  and  C6_7 
REMARK    4  A    between atoms: C7_8  and  O2_9 
REMARK    5  A    between atoms: O2_9  and  C8_10 
REMARK    6  A    between atoms: C8_10  and  C9_11 
REMARK    7  A    between atoms: C9_11  and  N1_12 
REMARK       I    between atoms: N1_12  and  C10_14 
REMARK    8  A    between atoms: C12_21  and  N4_22 
REMARK    9  A    between atoms: N4_22  and  C13_24 
REMARK   10  A    between atoms: N5_27  and  C16_28 
REMARK   11  A    between atoms: C23_35  and  O4_36 
REMARK   12  A    between atoms: C25_38  and  O5_39 
ROOT
HETATM    1  C6  UNL     1       9.903  15.594   9.101  1.00  0.00     0.043 A 
HETATM    2  C7  UNL     1      10.789  16.305   9.942  1.00  0.00     0.167 A 
HETATM    3  N2  UNL     1      11.863  16.551   9.167  1.00  0.00    -0.278 N 
ATOM      4  H2  UNL     1      12.700  17.052   9.464  1.00  0.00     0.189 HD
HETATM    5  N3  UNL     1      11.669  16.049   7.972  1.00  0.00    -0.283 N 
ATOM      6  H3  UNL     1      12.343  16.110   7.209  1.00  0.00     0.188 HD
HETATM    7  C12 UNL     1      10.485  15.450   7.874  1.00  0.00     0.127 A 
ENDROOT
BRANCH   1   8
HETATM    8  C5  UNL     1       8.568  15.099   9.491  1.00  0.00     0.085 C 
BRANCH   8   9
HETATM    9  C4  UNL     1       7.589  16.135   9.817  1.00  0.00    -0.048 A 
HETATM   10  C3  UNL     1       7.130  16.327  11.100  1.00  0.00     0.047 A 
HETATM   11  C2  UNL     1       6.206  17.312  11.415  1.00  0.00     0.104 A 
HETATM   12  C25 UNL     1       5.729  18.134  10.388  1.00  0.00     0.135 A 
HETATM   13  C23 UNL     1       6.183  17.943   9.126  1.00  0.00     0.104 A 
HETATM   14  C22 UNL     1       7.104  16.957   8.831  1.00  0.00     0.047 A 
BRANCH  11  15
HETATM   15  O1  UNL     1       5.719  17.544  12.672  1.00  0.00    -0.353 OA
HETATM   16  C1  UNL     1       6.459  18.333  13.613  1.00  0.00     0.210 C 
ENDBRANCH  11  15
BRANCH  12  17
HETATM   17  O5  UNL     1       4.797  19.138  10.668  1.00  0.00    -0.351 OA
HETATM   18  C26 UNL     1       5.328  20.431  10.908  1.00  0.00     0.210 C 
ENDBRANCH  12  17
BRANCH  13  19
HETATM   19  O4  UNL     1       5.703  18.768   8.105  1.00  0.00    -0.353 OA
HETATM   20  C24 UNL     1       4.545  18.513   7.369  1.00  0.00     0.210 C 
ENDBRANCH  13  19
ENDBRANCH   8   9
ENDBRANCH   1   8
BRANCH   2  21
HETATM   21  O2  UNL     1      10.534  16.620  11.207  1.00  0.00    -0.333 OA
BRANCH  21  22
HETATM   22  C8  UNL     1      10.636  16.382  12.482  1.00  0.00     0.197 C 
BRANCH  22  23
HETATM   23  C9  UNL     1       9.581  16.782  13.473  1.00  0.00     0.149 C 
BRANCH  23  24
HETATM   24  N1  UNL     1       9.554  16.030  14.684  1.00  0.00    -0.359 N 
HETATM   25  C10 UNL     1       9.357  16.793  15.894  1.00  0.00     0.213 C 
HETATM   26  C11 UNL     1       9.322  16.060  17.174  1.00  0.00     0.117 C 
HETATM   27  O3  UNL     1       9.217  18.033  15.909  1.00  0.00    -0.274 OA
ATOM     28  H1  UNL     1       9.667  15.017  14.694  1.00  0.00     0.162 HD
ENDBRANCH  23  24
ENDBRANCH  22  23
ENDBRANCH  21  22
ENDBRANCH   2  21
BRANCH   7  29
HETATM   29  N4  UNL     1       9.936  14.857   6.913  1.00  0.00    -0.368 N 
ATOM     30  H4  UNL     1       9.621  13.921   7.169  1.00  0.00     0.161 HD
BRANCH  29  31
HETATM   31  C13 UNL     1       9.652  15.161   5.593  1.00  0.00     0.113 C 
HETATM   32  C14 UNL     1       8.954  16.424   5.251  1.00  0.00     0.057 C 
HETATM   33  C15 UNL     1       9.151  16.453   3.728  1.00  0.00     0.275 C 
HETATM   34  N5  UNL     1      10.470  15.927   3.525  1.00  0.00     0.095 N 
HETATM   35  C21 UNL     1      10.853  15.184   4.664  1.00  0.00     0.297 C 
BRANCH  34  36
HETATM   36  C16 UNL     1      10.693  15.332   2.264  1.00  0.00     0.223 C 
HETATM   37  C17 UNL     1      10.138  16.079   1.080  1.00  0.00     0.036 C 
HETATM   38  C18 UNL     1      10.691  15.207  -0.059  1.00  0.00     0.002 C 
HETATM   39  C19 UNL     1      12.098  14.969   0.384  1.00  0.00     0.002 C 
HETATM   40  C20 UNL     1      12.153  15.221   1.885  1.00  0.00     0.036 C 
ENDBRANCH  34  36
ENDBRANCH  29  31
ENDBRANCH   7  29
TORSDOF 12
ENDMDL
MODEL 2
REMARK VINA RESULT: -8.639512164      0.053      2.059
REMARK  12 active torsions:
REMARK  status: ('A' for Active; 'I' for Inactive)
REMARK    1  A    between atoms: O1_2  and  C2_3 
REMARK    2  A    between atoms: C4_5  and  C5_6 
REMARK    3  A    between atoms: C5_6  and  C6_7 
REMARK    4  A    between atoms: C7_8  and  O2_9 
REMARK    5  A    between atoms: O2_9  and  C8_10 
REMARK    6  A    between atoms: C8_10  and  C9_11 
REMARK    7  A    between atoms: C9_11  and  N1_12 
REMARK       I    between atoms: N1_12  and  C10_14 
REMARK    8  A    between atoms: C12_21  and  N4_22 
REMARK    9  A    between atoms: N4_22  and  C13_24 
REMARK   10  A    between atoms: N5_27  and  C16_28 
REMARK   11  A    between atoms: C23_35  and  O4_36 
REMARK   12  A    between atoms: C25_38  and  O5_39 
ROOT
HETATM    1  C6  UNL     1       9.911  15.574   9.085  1.00  0.00     0.043 A 
HETATM    2  C7  UNL     1      10.807  16.269   9.928  1.00  0.00     0.167 A 
HETATM    3  N2  UNL     1      11.889  16.492   9.157  1.00  0.00    -0.278 N 
ATOM      4  H2  UNL     1      12.734  16.977   9.458  1.00  0.00     0.189 HD
HETATM    5  N3  UNL     1      11.690  15.991   7.963  1.00  0.00    -0.283 N 
ATOM      6  H3  UNL     1      12.370  16.037   7.203  1.00  0.00     0.188 HD
HETATM    7  C12 UNL     1      10.495  15.416   7.861  1.00  0.00     0.127 A 
ENDROOT
BRANCH   1   8
HETATM    8  C5  UNL     1       8.565  15.106   9.470  1.00  0.00     0.085 C 
BRANCH   8   9
HETATM    9  C4  UNL     1       7.598  16.163   9.766  1.00  0.00    -0.048 A 
HETATM   10  C3  UNL     1       7.119  17.007   8.790  1.00  0.00     0.047 A 
HETATM   11  C2  UNL     1       6.198  18.006   9.065  1.00  0.00     0.104 A 
HETATM   12  C25 UNL     1       5.745  18.156  10.380  1.00  0.00     0.135 A 
HETATM   13  C23 UNL     1       6.218  17.323  11.339  1.00  0.00     0.104 A 
HETATM   14  C22 UNL     1       7.135  16.332  11.047  1.00  0.00     0.047 A 
BRANCH  11  15
HETATM   15  O1  UNL     1       5.691  18.871   8.133  1.00  0.00    -0.353 OA
HETATM   16  C1  UNL     1       4.520  18.533   7.378  1.00  0.00     0.210 C 
ENDBRANCH  11  15
BRANCH  12  17
HETATM   17  O5  UNL     1       4.816  19.152  10.695  1.00  0.00    -0.351 OA
HETATM   18  C26 UNL     1       5.351  20.435  10.975  1.00  0.00     0.210 C 
ENDBRANCH  12  17
BRANCH  13  19
HETATM   19  O4  UNL     1       5.762  17.477  12.650  1.00  0.00    -0.353 OA
HETATM   20  C24 UNL     1       6.426  18.214  13.632  1.00  0.00     0.210 C 
ENDBRANCH  13  19
ENDBRANCH   8   9
ENDBRANCH   1   8
BRANCH   2  21
HETATM   21  O2  UNL     1      10.553  16.592  11.192  1.00  0.00    -0.333 OA
BRANCH  21  22
HETATM   22  C8  UNL     1      10.673  16.374  12.468  1.00  0.00     0.197 C 
BRANCH  22  23
HETATM   23  C9  UNL     1       9.633  16.791  13.469  1.00  0.00     0.149 C 
BRANCH  23  24
HETATM   24  N1  UNL     1       9.614  16.050  14.686  1.00  0.00    -0.359 N 
HETATM   25  C10 UNL     1       9.371  16.817  15.885  1.00  0.00     0.213 C 
HETATM   26  C11 UNL     1       9.343  16.094  17.172  1.00  0.00     0.117 C 
HETATM   27  O3  UNL     1       9.186  18.051  15.886  1.00  0.00    -0.274 OA
ATOM     28  H1  UNL     1       9.764  15.042  14.708  1.00  0.00     0.162 HD
ENDBRANCH  23  24
ENDBRANCH  22  23
ENDBRANCH  21  22
ENDBRANCH   2  21
BRANCH   7  29
HETATM   29  N4  UNL     1       9.939  14.831   6.899  1.00  0.00    -0.368 N 
ATOM     30  H4  UNL     1       9.610  13.900   7.154  1.00  0.00     0.161 HD
BRANCH  29  31
HETATM   31  C13 UNL     1       9.662  15.140   5.578  1.00  0.00     0.113 C 
HETATM   32  C14 UNL     1       8.968  16.407   5.239  1.00  0.00     0.057 C 
HETATM   33  C15 UNL     1       9.171  16.440   3.716  1.00  0.00     0.275 C 
HETATM   34  N5  UNL     1      10.489  15.911   3.516  1.00  0.00     0.095 N 
HETATM   35  C21 UNL     1      10.866  15.164   4.654  1.00  0.00     0.297 C 
BRANCH  34  36
HETATM   36  C16 UNL     1      10.715  15.319   2.255  1.00  0.00     0.223 C 
HETATM   37  C17 UNL     1      10.149  16.061   1.073  1.00  0.00     0.036 C 
HETATM   38  C18 UNL     1      10.709  15.196  -0.069  1.00  0.00     0.002 C 
HETATM   39  C19 UNL     1      12.120  14.974   0.371  1.00  0.00     0.002 C 
HETATM   40  C20 UNL     1      12.176  15.226   1.871  1.00  0.00     0.036 C 
ENDBRANCH  34  36
ENDBRANCH  29  31
ENDBRANCH   7  29
TORSDOF 12
ENDMDL
MODEL 3
REMARK VINA RESULT: -8.490645196      4.377      9.470
REMARK  12 active torsions:
REMARK  status: ('A' for Active; 'I' for Inactive)
REMARK    1  A    between atoms: O1_2  and  C2_3 
REMARK    2  A    between atoms: C4_5  and  C5_6 
REMARK    3  A    between atoms: C5_6  and  C6_7 
REMARK    4  A    between atoms: C7_8  and  O2_9 
REMARK    5  A    between atoms: O2_9  and  C8_10 
REMARK    6  A    between atoms: C8_10  and  C9_11 
REMARK    7  A    between atoms: C9_11  and  N1_12 
REMARK       I    between atoms: N1_12  and  C10_14 
REMARK    8  A    between atoms: C12_21  and  N4_22 
REMARK    9  A    between atoms: N4_22  and  C13_24 
REMARK   10  A    between atoms: N5_27  and  C16_28 
REMARK   11  A    between atoms: C23_35  and  O4_36 
REMARK   12  A    between atoms: C25_38  and  O5_39 
ROOT
HETATM    1  C6  UNL     1      11.718  15.516   6.957  1.00  0.00     0.043 A 
HETATM    2  C7  UNL     1      12.896  15.109   7.624  1.00  0.00     0.167 A 
HETATM    3  N2  UNL     1      13.212  16.154   8.414  1.00  0.00    -0.278 N 
ATOM      4  H2  UNL     1      14.016  16.195   9.039  1.00  0.00     0.189 HD
HETATM    5  N3  UNL     1      12.327  17.108   8.258  1.00  0.00    -0.283 N 
ATOM      6  H3  UNL     1      12.355  18.000   8.751  1.00  0.00     0.188 HD
HETATM    7  C12 UNL     1      11.389  16.773   7.376  1.00  0.00     0.127 A 
ENDROOT
BRANCH   1   8
HETATM    8  C5  UNL     1      10.970  14.705   5.976  1.00  0.00     0.085 C 
BRANCH   8   9
HETATM    9  C4  UNL     1      11.406  14.846   4.587  1.00  0.00    -0.048 A 
HETATM   10  C3  UNL     1      10.830  15.755   3.730  1.00  0.00     0.047 A 
HETATM   11  C2  UNL     1      11.244  15.897   2.415  1.00  0.00     0.104 A 
HETATM   12  C25 UNL     1      12.284  15.084   1.950  1.00  0.00     0.135 A 
HETATM   13  C23 UNL     1      12.850  14.190   2.795  1.00  0.00     0.104 A 
HETATM   14  C22 UNL     1      12.425  14.063   4.103  1.00  0.00     0.047 A 
BRANCH  11  15
HETATM   15  O1  UNL     1      10.705  16.785   1.524  1.00  0.00    -0.353 OA
HETATM   16  C1  UNL     1       9.518  16.458   0.788  1.00  0.00     0.210 C 
ENDBRANCH  11  15
BRANCH  12  17
HETATM   17  O5  UNL     1      12.728  15.199   0.629  1.00  0.00    -0.351 OA
HETATM   18  C26 UNL     1      12.201  14.256  -0.289  1.00  0.00     0.210 C 
ENDBRANCH  12  17
BRANCH  13  19
HETATM   19  O4  UNL     1      13.888  13.381   2.326  1.00  0.00    -0.353 OA
HETATM   20  C24 UNL     1      13.859  11.986   2.328  1.00  0.00     0.210 C 
ENDBRANCH  13  19
ENDBRANCH   8   9
ENDBRANCH   1   8
BRANCH   2  21
HETATM   21  O2  UNL     1      13.491  13.934   7.450  1.00  0.00    -0.333 OA
BRANCH  21  22
HETATM   22  C8  UNL     1      13.449  12.636   7.376  1.00  0.00     0.197 C 
BRANCH  22  23
HETATM   23  C9  UNL     1      13.833  11.877   6.139  1.00  0.00     0.149 C 
BRANCH  23  24
HETATM   24  N1  UNL     1      12.968  10.803   5.780  1.00  0.00    -0.359 N 
HETATM   25  C10 UNL     1      13.597   9.682   5.120  1.00  0.00     0.213 C 
HETATM   26  C11 UNL     1      12.742   8.545   4.729  1.00  0.00     0.117 C 
HETATM   27  O3  UNL     1      14.817   9.631   4.867  1.00  0.00    -0.274 OA
ATOM     28  H1  UNL     1      11.968  10.825   5.977  1.00  0.00     0.162 HD
ENDBRANCH  23  24
ENDBRANCH  22  23
ENDBRANCH  21  22
ENDBRANCH   2  21
BRANCH   7  29
HETATM   29  N4  UNL     1      10.387  17.402   6.956  1.00  0.00    -0.368 N 
ATOM     30  H4  UNL     1      10.585  17.907   6.092  1.00  0.00     0.161 HD
BRANCH  29  31
HETATM   31  C13 UNL     1       9.080  17.577   7.377  1.00  0.00     0.113 C 
HETATM   32  C14 UNL     1       8.025  16.625   6.950  1.00  0.00     0.057 C 
HETATM   33  C15 UNL     1       6.879  17.036   7.887  1.00  0.00     0.275 C 
HETATM   34  N5  UNL     1       7.524  17.359   9.126  1.00  0.00     0.095 N 
HETATM   35  C21 UNL     1       8.888  17.632   8.882  1.00  0.00     0.297 C 
BRANCH  34  36
HETATM   36  C16 UNL     1       6.824  18.266   9.950  1.00  0.00     0.223 C 
HETATM   37  C17 UNL     1       6.201  19.444   9.247  1.00  0.00     0.036 C 
HETATM   38  C18 UNL     1       5.451  20.084  10.427  1.00  0.00     0.002 C 
HETATM   39  C19 UNL     1       4.835  18.894  11.088  1.00  0.00     0.002 C 
HETATM   40  C20 UNL     1       5.619  17.667  10.642  1.00  0.00     0.036 C 
ENDBRANCH  34  36
ENDBRANCH  29  31
ENDBRANCH   7  29
TORSDOF 12
ENDMDL
MODEL 4
REMARK VINA RESULT: -8.409423593      4.368      9.420
REMARK  12 active torsions:
REMARK  status: ('A' for Active; 'I' for Inactive)
REMARK    1  A    between atoms: O1_2  and  C2_3 
REMARK    2  A    between atoms: C4_5  and  C5_6 
REMARK    3  A    between atoms: C5_6  and  C6_7 
REMARK    4  A    between atoms: C7_8  and  O2_9 
REMARK    5  A    between atoms: O2_9  and  C8_10 
REMARK    6  A    between atoms: C8_10  and  C9_11 
REMARK    7  A    between atoms: C9_11  and  N1_12 
REMARK       I    between atoms: N1_12  and  C10_14 
REMARK    8  A    between atoms: C12_21  and  N4_22 
REMARK    9  A    between atoms: N4_22  and  C13_24 
REMARK   10  A    between atoms: N5_27  and  C16_28 
REMARK   11  A    between atoms: C23_35  and  O4_36 
REMARK   12  A    between atoms: C25_38  and  O5_39 
ROOT
HETATM    1  C6  UNL     1      11.568  15.616   6.889  1.00  0.00     0.043 A 
HETATM    2  C7  UNL     1      12.761  15.198   7.520  1.00  0.00     0.167 A 
HETATM    3  N2  UNL     1      13.084  16.219   8.338  1.00  0.00    -0.278 N 
ATOM      4  H2  UNL     1      13.900  16.247   8.949  1.00  0.00     0.189 HD
HETATM    5  N3  UNL     1      12.189  17.170   8.230  1.00  0.00    -0.283 N 
ATOM      6  H3  UNL     1      12.219  18.046   8.752  1.00  0.00     0.188 HD
HETATM    7  C12 UNL     1      11.237  16.856   7.356  1.00  0.00     0.127 A 
ENDROOT
BRANCH   1   8
HETATM    8  C5  UNL     1      10.808  14.831   5.896  1.00  0.00     0.085 C 
BRANCH   8   9
HETATM    9  C4  UNL     1      11.305  14.913   4.523  1.00  0.00    -0.048 A 
HETATM   10  C3  UNL     1      12.374  14.164   4.088  1.00  0.00     0.047 A 
HETATM   11  C2  UNL     1      12.845  14.233   2.786  1.00  0.00     0.104 A 
HETATM   12  C25 UNL     1      12.207  15.097   1.890  1.00  0.00     0.135 A 
HETATM   13  C23 UNL     1      11.154  15.833   2.319  1.00  0.00     0.104 A 
HETATM   14  C22 UNL     1      10.698  15.751   3.620  1.00  0.00     0.047 A 
BRANCH  11  15
HETATM   15  O1  UNL     1      13.903  13.511   2.305  1.00  0.00    -0.353 OA
HETATM   16  C1  UNL     1      13.850  12.079   2.249  1.00  0.00     0.210 C 
ENDBRANCH  11  15
BRANCH  12  17
HETATM   17  O5  UNL     1      12.654  15.193   0.568  1.00  0.00    -0.351 OA
HETATM   18  C26 UNL     1      12.142  14.227  -0.334  1.00  0.00     0.210 C 
ENDBRANCH  12  17
BRANCH  13  19
HETATM   19  O4  UNL     1      10.520  16.693   1.419  1.00  0.00    -0.353 OA
HETATM   20  C24 UNL     1       9.392  16.355   0.671  1.00  0.00     0.210 C 
ENDBRANCH  13  19
ENDBRANCH   8   9
ENDBRANCH   1   8
BRANCH   2  21
HETATM   21  O2  UNL     1      13.363  14.035   7.297  1.00  0.00    -0.333 OA
BRANCH  21  22
HETATM   22  C8  UNL     1      13.370  12.734   7.316  1.00  0.00     0.197 C 
BRANCH  22  23
HETATM   23  C9  UNL     1      13.866  11.904   6.167  1.00  0.00     0.149 C 
BRANCH  23  24
HETATM   24  N1  UNL     1      13.011  10.840   5.759  1.00  0.00    -0.359 N 
HETATM   25  C10 UNL     1      13.653   9.744   5.073  1.00  0.00     0.213 C 
HETATM   26  C11 UNL     1      12.809   8.617   4.630  1.00  0.00     0.117 C 
HETATM   27  O3  UNL     1      14.878   9.704   4.838  1.00  0.00    -0.274 OA
ATOM     28  H1  UNL     1      12.007  10.852   5.941  1.00  0.00     0.162 HD
ENDBRANCH  23  24
ENDBRANCH  22  23
ENDBRANCH  21  22
ENDBRANCH   2  21
BRANCH   7  29
HETATM   29  N4  UNL     1      10.222  17.489   6.975  1.00  0.00    -0.368 N 
ATOM     30  H4  UNL     1      10.395  18.015   6.118  1.00  0.00     0.161 HD
BRANCH  29  31
HETATM   31  C13 UNL     1       8.925  17.650   7.433  1.00  0.00     0.113 C 
HETATM   32  C14 UNL     1       7.868  16.691   7.030  1.00  0.00     0.057 C 
HETATM   33  C15 UNL     1       6.744  17.085   8.001  1.00  0.00     0.275 C 
HETATM   34  N5  UNL     1       7.421  17.407   9.224  1.00  0.00     0.095 N 
HETATM   35  C21 UNL     1       8.775  17.695   8.943  1.00  0.00     0.297 C 
BRANCH  34  36
HETATM   36  C16 UNL     1       6.735  18.303  10.072  1.00  0.00     0.223 C 
HETATM   37  C17 UNL     1       6.137  19.512   9.402  1.00  0.00     0.036 C 
HETATM   38  C18 UNL     1       5.395  20.132  10.599  1.00  0.00     0.002 C 
HETATM   39  C19 UNL     1       4.756  18.935  11.224  1.00  0.00     0.002 C 
HETATM   40  C20 UNL     1       5.518  17.707  10.744  1.00  0.00     0.036 C 
ENDBRANCH  34  36
ENDBRANCH  29  31
ENDBRANCH   7  29
TORSDOF 12
ENDMDL
MODEL 5
REMARK VINA RESULT: -8.224845454      2.461      4.764
REMARK  12 active torsions:
REMARK  status: ('A' for Active; 'I' for Inactive)
REMARK    1  A    between atoms: O1_2  and  C2_3 
REMARK    2  A    between atoms: C4_5  and  C5_6 
REMARK    3  A    between atoms: C5_6  and  C6_7 
REMARK    4  A    between atoms: C7_8  and  O2_9 
REMARK    5  A    between atoms: O2_9  and  C8_10 
REMARK    6  A    between atoms: C8_10  and  C9_11 
REMARK    7  A    between atoms: C9_11  and  N1_12 
REMARK       I    between atoms: N1_12  and  C10_14 
REMARK    8  A    between atoms: C12_21  and  N4_22 
REMARK    9  A    between atoms: N4_22  and  C13_24 
REMARK   10  A    between atoms: N5_27  and  C16_28 
REMARK   11  A    between atoms: C23_35  and  O4_36 
REMARK   12  A    between atoms: C25_38  and  O5_39 
ROOT
HETATM    1  C6  UNL     1      10.114  15.449   6.631  1.00  0.00     0.043 A 
HETATM    2  C7  UNL     1      11.239  15.382   7.485  1.00  0.00     0.167 A 
HETATM    3  N2  UNL     1      12.244  15.905   6.757  1.00  0.00    -0.278 N 
ATOM      4  H2  UNL     1      13.208  16.008   7.075  1.00  0.00     0.189 HD
HETATM    5  N3  UNL     1      11.797  16.260   5.578  1.00  0.00    -0.283 N 
ATOM      6  H3  UNL     1      12.373  16.681   4.850  1.00  0.00     0.188 HD
HETATM    7  C12 UNL     1      10.498  16.004   5.444  1.00  0.00     0.127 A 
ENDROOT
BRANCH   1   8
HETATM    8  C5  UNL     1       8.751  14.999   6.978  1.00  0.00     0.085 C 
BRANCH   8   9
HETATM    9  C4  UNL     1       8.051  15.827   7.959  1.00  0.00    -0.048 A 
HETATM   10  C3  UNL     1       7.300  16.919   7.588  1.00  0.00     0.047 A 
HETATM   11  C2  UNL     1       6.629  17.703   8.514  1.00  0.00     0.104 A 
HETATM   12  C25 UNL     1       6.724  17.367   9.869  1.00  0.00     0.135 A 
HETATM   13  C23 UNL     1       7.464  16.292  10.232  1.00  0.00     0.104 A 
HETATM   14  C22 UNL     1       8.125  15.521   9.295  1.00  0.00     0.047 A 
BRANCH  11  15
HETATM   15  O1  UNL     1       5.870  18.797   8.198  1.00  0.00    -0.353 OA
HETATM   16  C1  UNL     1       4.591  18.647   7.567  1.00  0.00     0.210 C 
ENDBRANCH  11  15
BRANCH  12  17
HETATM   17  O5  UNL     1       6.061  18.135  10.831  1.00  0.00    -0.351 OA
HETATM   18  C26 UNL     1       4.745  17.722  11.159  1.00  0.00     0.210 C 
ENDBRANCH  12  17
BRANCH  13  19
HETATM   19  O4  UNL     1       7.555  15.962  11.586  1.00  0.00    -0.353 OA
HETATM   20  C24 UNL     1       8.721  15.517  12.210  1.00  0.00     0.210 C 
ENDBRANCH  13  19
ENDBRANCH   8   9
ENDBRANCH   1   8
BRANCH   2  21
HETATM   21  O2  UNL     1      11.217  14.895   8.721  1.00  0.00    -0.333 OA
BRANCH  21  22
HETATM   22  C8  UNL     1      11.356  13.910   9.559  1.00  0.00     0.197 C 
BRANCH  22  23
HETATM   23  C9  UNL     1      12.445  12.883   9.438  1.00  0.00     0.149 C 
BRANCH  23  24
HETATM   24  N1  UNL     1      12.479  12.162   8.209  1.00  0.00    -0.359 N 
HETATM   25  C10 UNL     1      13.448  12.619   7.239  1.00  0.00     0.213 C 
HETATM   26  C11 UNL     1      13.522  11.904   5.950  1.00  0.00     0.117 C 
HETATM   27  O3  UNL     1      14.218  13.580   7.438  1.00  0.00    -0.274 OA
ATOM     28  H1  UNL     1      11.859  11.374   8.026  1.00  0.00     0.162 HD
ENDBRANCH  23  24
ENDBRANCH  22  23
ENDBRANCH  21  22
ENDBRANCH   2  21
BRANCH   7  29
HETATM   29  N4  UNL     1       9.712  16.192   4.483  1.00  0.00    -0.368 N 
ATOM     30  H4  UNL     1       8.859  16.670   4.772  1.00  0.00     0.161 HD
BRANCH  29  31
HETATM   31  C13 UNL     1       9.721  15.910   3.128  1.00  0.00     0.113 C 
HETATM   32  C14 UNL     1       9.483  16.991   2.140  1.00  0.00     0.057 C 
HETATM   33  C15 UNL     1       9.893  16.280   0.840  1.00  0.00     0.275 C 
HETATM   34  N5  UNL     1      11.011  15.463   1.213  1.00  0.00     0.095 N 
HETATM   35  C21 UNL     1      10.993  15.262   2.611  1.00  0.00     0.297 C 
BRANCH  34  36
HETATM   36  C16 UNL     1      11.222  14.327   0.402  1.00  0.00     0.223 C 
HETATM   37  C17 UNL     1      12.402  14.397  -0.530  1.00  0.00     0.036 C 
HETATM   38  C18 UNL     1      12.364  12.972  -1.107  1.00  0.00     0.002 C 
HETATM   39  C19 UNL     1      12.122  12.147   0.115  1.00  0.00     0.002 C 
HETATM   40  C20 UNL     1      11.536  13.066   1.178  1.00  0.00     0.036 C 
ENDBRANCH  34  36
ENDBRANCH  29  31
ENDBRANCH   7  29
TORSDOF 12
ENDMDL
