MODEL 1
REMARK VINA RESULT: -8.348580641      0.000      0.000
REMARK  13 active torsions:
REMARK  status: ('A' for Active; 'I' for Inactive)
REMARK    1  A    between atoms: C7_8  and  C8_9 
REMARK    2  A    between atoms: C9_10  and  C10_11 
REMARK    3  A    between atoms: C11_13  and  C12_14 
REMARK    4  A    between atoms: C12_14  and  C13_15 
REMARK    5  A    between atoms: C14_16  and  C15_17 
REMARK    6  A    between atoms: C15_17  and  C16_18 
REMARK    7  A    between atoms: C16_18  and  C17_19 
REMARK    8  A    between atoms: C17_19  and  C18_20 
REMARK    9  A    between atoms: C19_23  and  O4_24 
REMARK   10  A    between atoms: C20_26  and  O5_27 
REMARK   11  A    between atoms: C21_29  and  O6_30 
REMARK   12  A    between atoms: N2_33  and  C24_34 
REMARK   13  A    between atoms: C24_34  and  C26_36 
ROOT
HETATM    1  C8  UNL     1       7.819  15.796  12.037  1.00  0.00     0.008 C 
HETATM    2  C9  UNL     1       8.780  15.417  12.857  1.00  0.00     0.006 C 
ENDROOT
BRANCH   1   3
HETATM    3  C7  UNL     1       8.013  15.898  10.588  1.00  0.00     0.173 C 
HETATM    4  C2  UNL     1       7.214  16.955   9.934  1.00  0.00    -0.057 C 
HETATM    5  C1  UNL     1       6.105  17.301  10.537  1.00  0.00     0.017 C 
HETATM    6  C3  UNL     1       7.520  17.667   8.679  1.00  0.00     0.038 C 
HETATM    7  C4  UNL     1       7.963  16.584   7.689  1.00  0.00     0.032 C 
HETATM    8  C5  UNL     1       9.457  16.367   7.844  1.00  0.00     0.111 C 
HETATM    9  C6  UNL     1       9.567  15.396   9.046  1.00  0.00     0.175 C 
HETATM   10  N2  UNL     1      10.070  15.632   6.836  1.00  0.00    -0.399 N 
HETATM   11  O1  UNL     1       9.384  16.033  10.253  1.00  0.00    -0.368 OA
HETATM   12  C21 UNL     1      10.977  14.876   8.880  1.00  0.00     0.169 C 
HETATM   13  C23 UNL     1      11.092  14.770   7.388  1.00  0.00     0.152 C 
BRANCH  12  14
HETATM   14  O6  UNL     1      11.043  13.610   9.472  1.00  0.00    -0.386 OA
HETATM   15  C22 UNL     1      12.212  13.001   8.981  1.00  0.00     0.202 C 
ENDBRANCH  12  14
BRANCH  10  16
HETATM   16  C24 UNL     1      10.462  16.135   5.603  1.00  0.00     0.079 C 
HETATM   17  C25 UNL     1      11.893  15.780   5.165  1.00  0.00     0.032 C 
BRANCH  16  18
HETATM   18  C26 UNL     1       9.514  16.006   4.439  1.00  0.00    -0.001 C 
HETATM   19  C27 UNL     1      10.331  16.243   3.146  1.00  0.00     0.011 C 
HETATM   20  C28 UNL     1       8.961  14.603   4.262  1.00  0.00     0.011 C 
ENDBRANCH  16  18
ENDBRANCH  10  16
ENDBRANCH   1   3
BRANCH   2  21
HETATM   21  C10 UNL     1       8.587  15.311  14.332  1.00  0.00     0.176 C 
HETATM   22  O2  UNL     1       7.578  16.169  14.768  1.00  0.00    -0.371 OA
HETATM   23  C11 UNL     1       7.865  16.335  16.125  1.00  0.00     0.157 C 
HETATM   24  C19 UNL     1       9.330  16.719  16.055  1.00  0.00     0.178 C 
HETATM   25  C20 UNL     1       9.854  15.764  15.000  1.00  0.00     0.182 C 
BRANCH  23  26
HETATM   26  C12 UNL     1       7.071  17.474  16.722  1.00  0.00     0.061 C 
BRANCH  26  27
HETATM   27  C13 UNL     1       5.681  17.382  16.196  1.00  0.00    -0.028 C 
HETATM   28  C14 UNL     1       4.805  16.656  16.840  1.00  0.00    -0.031 C 
BRANCH  28  29
HETATM   29  C15 UNL     1       3.385  16.499  16.397  1.00  0.00     0.027 C 
BRANCH  29  30
HETATM   30  C16 UNL     1       2.811  17.767  15.843  1.00  0.00     0.013 C 
BRANCH  30  31
HETATM   31  C17 UNL     1       2.181  17.519  14.521  1.00  0.00     0.100 C 
BRANCH  31  32
HETATM   32  C18 UNL     1       3.061  17.757  13.360  1.00  0.00     0.231 C 
HETATM   33  N1  UNL     1       2.781  16.965  12.188  1.00  0.00    -0.062 NA
HETATM   34  O3  UNL     1       4.000  18.576  13.327  1.00  0.00    -0.277 OA
ENDBRANCH  31  32
ENDBRANCH  30  31
ENDBRANCH  29  30
ENDBRANCH  28  29
ENDBRANCH  26  27
ENDBRANCH  23  26
BRANCH  24  35
HETATM   35  O4  UNL     1       9.505  18.009  15.559  1.00  0.00    -0.390 OA
ATOM     36  H4  UNL     1      10.404  18.166  15.291  1.00  0.00     0.210 HD
ENDBRANCH  24  35
BRANCH  25  37
HETATM   37  O5  UNL     1      10.767  16.340  14.148  1.00  0.00    -0.390 OA
ATOM     38  H5  UNL     1      11.067  17.199  14.419  1.00  0.00     0.210 HD
ENDBRANCH  25  37
ENDBRANCH   2  21
TORSDOF 13
ENDMDL
MODEL 2
REMARK VINA RESULT: -8.272915857      5.281     11.163
REMARK  13 active torsions:
REMARK  status: ('A' for Active; 'I' for Inactive)
REMARK    1  A    between atoms: C7_8  and  C8_9 
REMARK    2  A    between atoms: C9_10  and  C10_11 
REMARK    3  A    between atoms: C11_13  and  C12_14 
REMARK    4  A    between atoms: C12_14  and  C13_15 
REMARK    5  A    between atoms: C14_16  and  C15_17 
REMARK    6  A    between atoms: C15_17  and  C16_18 
REMARK    7  A    between atoms: C16_18  and  C17_19 
REMARK    8  A    between atoms: C17_19  and  C18_20 
REMARK    9  A    between atoms: C19_23  and  O4_24 
REMARK   10  A    between atoms: C20_26  and  O5_27 
REMARK   11  A    between atoms: C21_29  and  O6_30 
REMARK   12  A    between atoms: N2_33  and  C24_34 
REMARK   13  A    between atoms: C24_34  and  C26_36 
ROOT
HETATM    1  C8  UNL     1      13.029  13.220   6.728  1.00  0.00     0.008 C 
HETATM    2  C9  UNL     1      12.940  12.467   5.649  1.00  0.00     0.006 C 
ENDROOT
BRANCH   1   3
HETATM    3  C7  UNL     1      11.856  13.814   7.374  1.00  0.00     0.173 C 
HETATM    4  C2  UNL     1      11.791  13.612   8.837  1.00  0.00    -0.057 C 
HETATM    5  C1  UNL     1      12.415  12.561   9.305  1.00  0.00     0.017 C 
HETATM    6  C3  UNL     1      11.106  14.457   9.832  1.00  0.00     0.038 C 
HETATM    7  C4  UNL     1       9.729  14.764   9.232  1.00  0.00     0.032 C 
HETATM    8  C5  UNL     1       9.844  16.005   8.366  1.00  0.00     0.111 C 
HETATM    9  C6  UNL     1      10.378  15.466   7.016  1.00  0.00     0.175 C 
HETATM   10  N2  UNL     1       8.642  16.587   7.978  1.00  0.00    -0.399 N 
HETATM   11  O1  UNL     1      11.726  15.190   7.057  1.00  0.00    -0.368 OA
HETATM   12  C21 UNL     1      10.057  16.617   6.089  1.00  0.00     0.169 C 
HETATM   13  C23 UNL     1       8.734  17.083   6.623  1.00  0.00     0.152 C 
BRANCH  12  14
HETATM   14  O6  UNL     1       9.914  16.103   4.796  1.00  0.00    -0.386 OA
HETATM   15  C22 UNL     1       9.159  14.922   4.918  1.00  0.00     0.202 C 
ENDBRANCH  12  14
BRANCH  10  16
HETATM   16  C24 UNL     1       7.873  17.435   8.763  1.00  0.00     0.079 C 
HETATM   17  C25 UNL     1       8.659  18.394   9.672  1.00  0.00     0.032 C 
BRANCH  16  18
HETATM   18  C26 UNL     1       6.716  18.157   8.120  1.00  0.00    -0.001 C 
HETATM   19  C27 UNL     1       5.462  17.265   8.286  1.00  0.00     0.011 C 
HETATM   20  C28 UNL     1       6.338  19.446   8.830  1.00  0.00     0.011 C 
ENDBRANCH  16  18
ENDBRANCH  10  16
ENDBRANCH   1   3
BRANCH   2  21
HETATM   21  C10 UNL     1      14.131  11.859   4.988  1.00  0.00     0.176 C 
HETATM   22  O2  UNL     1      14.191  12.213   3.641  1.00  0.00    -0.371 OA
HETATM   23  C11 UNL     1      14.991  11.213   3.084  1.00  0.00     0.157 C 
HETATM   24  C19 UNL     1      14.289   9.973   3.602  1.00  0.00     0.178 C 
HETATM   25  C20 UNL     1      13.977  10.366   5.032  1.00  0.00     0.182 C 
BRANCH  23  26
HETATM   26  C12 UNL     1      14.932  11.235   1.574  1.00  0.00     0.061 C 
BRANCH  26  27
HETATM   27  C13 UNL     1      14.429  12.574   1.159  1.00  0.00    -0.028 C 
HETATM   28  C14 UNL     1      13.560  12.651   0.185  1.00  0.00    -0.031 C 
BRANCH  28  29
HETATM   29  C15 UNL     1      12.992  13.945  -0.306  1.00  0.00     0.027 C 
BRANCH  29  30
HETATM   30  C16 UNL     1      11.535  14.091   0.007  1.00  0.00     0.013 C 
BRANCH  30  31
HETATM   31  C17 UNL     1      11.337  14.332   1.460  1.00  0.00     0.100 C 
BRANCH  31  32
HETATM   32  C18 UNL     1      11.759  15.665   1.932  1.00  0.00     0.231 C 
HETATM   33  N1  UNL     1      12.825  15.678   2.903  1.00  0.00    -0.062 NA
HETATM   34  O3  UNL     1      11.270  16.748   1.555  1.00  0.00    -0.277 OA
ENDBRANCH  31  32
ENDBRANCH  30  31
ENDBRANCH  29  30
ENDBRANCH  28  29
ENDBRANCH  26  27
ENDBRANCH  23  26
BRANCH  24  35
HETATM   35  O4  UNL     1      13.070   9.763   2.963  1.00  0.00    -0.390 OA
ATOM     36  H4  UNL     1      12.401   9.459   3.567  1.00  0.00     0.210 HD
ENDBRANCH  24  35
BRANCH  25  37
HETATM   37  O5  UNL     1      12.740   9.939   5.459  1.00  0.00    -0.390 OA
ATOM     38  H5  UNL     1      12.758   9.136   5.967  1.00  0.00     0.210 HD
ENDBRANCH  25  37
ENDBRANCH   2  21
TORSDOF 13
ENDMDL
MODEL 3
REMARK VINA RESULT: -8.193521121      2.656      4.674
REMARK  13 active torsions:
REMARK  status: ('A' for Active; 'I' for Inactive)
REMARK    1  A    between atoms: C7_8  and  C8_9 
REMARK    2  A    between atoms: C9_10  and  C10_11 
REMARK    3  A    between atoms: C11_13  and  C12_14 
REMARK    4  A    between atoms: C12_14  and  C13_15 
REMARK    5  A    between atoms: C14_16  and  C15_17 
REMARK    6  A    between atoms: C15_17  and  C16_18 
REMARK    7  A    between atoms: C16_18  and  C17_19 
REMARK    8  A    between atoms: C17_19  and  C18_20 
REMARK    9  A    between atoms: C19_23  and  O4_24 
REMARK   10  A    between atoms: C20_26  and  O5_27 
REMARK   11  A    between atoms: C21_29  and  O6_30 
REMARK   12  A    between atoms: N2_33  and  C24_34 
REMARK   13  A    between atoms: C24_34  and  C26_36 
ROOT
HETATM    1  C8  UNL     1      10.055  14.430   9.775  1.00  0.00     0.008 C 
HETATM    2  C9  UNL     1       9.547  15.497  10.361  1.00  0.00     0.006 C 
ENDROOT
BRANCH   1   3
HETATM    3  C7  UNL     1      10.826  14.505   8.532  1.00  0.00     0.173 C 
HETATM    4  C2  UNL     1      11.831  13.434   8.366  1.00  0.00    -0.057 C 
HETATM    5  C1  UNL     1      12.291  12.895   9.466  1.00  0.00     0.017 C 
HETATM    6  C3  UNL     1      12.376  12.900   7.104  1.00  0.00     0.038 C 
HETATM    7  C4  UNL     1      12.694  14.127   6.242  1.00  0.00     0.032 C 
HETATM    8  C5  UNL     1      11.451  14.506   5.459  1.00  0.00     0.111 C 
HETATM    9  C6  UNL     1      10.626  15.351   6.461  1.00  0.00     0.175 C 
HETATM   10  N2  UNL     1      11.641  15.412   4.421  1.00  0.00    -0.399 N 
HETATM   11  O1  UNL     1       9.980  14.573   7.396  1.00  0.00    -0.368 OA
HETATM   12  C21 UNL     1       9.659  16.052   5.533  1.00  0.00     0.169 C 
HETATM   13  C23 UNL     1      10.525  16.328   4.339  1.00  0.00     0.152 C 
BRANCH  12  14
HETATM   14  O6  UNL     1       9.265  17.247   6.144  1.00  0.00    -0.386 OA
HETATM   15  C22 UNL     1      10.410  17.769   6.775  1.00  0.00     0.202 C 
ENDBRANCH  12  14
BRANCH  10  16
HETATM   16  C24 UNL     1      12.111  15.092   3.155  1.00  0.00     0.079 C 
HETATM   17  C25 UNL     1      13.366  14.204   3.117  1.00  0.00     0.032 C 
BRANCH  16  18
HETATM   18  C26 UNL     1      11.121  14.639   2.113  1.00  0.00    -0.001 C 
HETATM   19  C27 UNL     1      11.153  15.672   0.961  1.00  0.00     0.011 C 
HETATM   20  C28 UNL     1      11.507  13.335   1.438  1.00  0.00     0.011 C 
ENDBRANCH  16  18
ENDBRANCH  10  16
ENDBRANCH   1   3
BRANCH   2  21
HETATM   21  C10 UNL     1       8.762  15.425  11.628  1.00  0.00     0.176 C 
HETATM   22  O2  UNL     1       7.592  16.179  11.535  1.00  0.00    -0.371 OA
HETATM   23  C11 UNL     1       7.267  16.427  12.870  1.00  0.00     0.157 C 
HETATM   24  C19 UNL     1       8.585  16.972  13.383  1.00  0.00     0.178 C 
HETATM   25  C20 UNL     1       9.585  16.044  12.721  1.00  0.00     0.182 C 
BRANCH  23  26
HETATM   26  C12 UNL     1       6.199  17.490  12.990  1.00  0.00     0.061 C 
BRANCH  26  27
HETATM   27  C13 UNL     1       5.788  17.878  11.613  1.00  0.00    -0.028 C 
HETATM   28  C14 UNL     1       5.729  19.147  11.302  1.00  0.00    -0.031 C 
BRANCH  28  29
HETATM   29  C15 UNL     1       5.329  19.642   9.948  1.00  0.00     0.027 C 
BRANCH  29  30
HETATM   30  C16 UNL     1       6.498  19.795   9.023  1.00  0.00     0.013 C 
BRANCH  30  31
HETATM   31  C17 UNL     1       6.656  18.582   8.179  1.00  0.00     0.100 C 
BRANCH  31  32
HETATM   32  C18 UNL     1       5.393  17.921   7.798  1.00  0.00     0.231 C 
HETATM   33  N1  UNL     1       5.150  16.635   8.405  1.00  0.00    -0.062 NA
HETATM   34  O3  UNL     1       4.547  18.389   7.012  1.00  0.00    -0.277 OA
ENDBRANCH  31  32
ENDBRANCH  30  31
ENDBRANCH  29  30
ENDBRANCH  28  29
ENDBRANCH  26  27
ENDBRANCH  23  26
BRANCH  24  35
HETATM   35  O4  UNL     1       8.840  18.253  12.900  1.00  0.00    -0.390 OA
ATOM     36  H4  UNL     1       9.475  18.714  13.437  1.00  0.00     0.210 HD
ENDBRANCH  24  35
BRANCH  25  37
HETATM   37  O5  UNL     1      10.719  16.687  12.280  1.00  0.00    -0.390 OA
ATOM     38  H5  UNL     1      10.549  17.466  11.764  1.00  0.00     0.210 HD
ENDBRANCH  25  37
ENDBRANCH   2  21
TORSDOF 13
ENDMDL
MODEL 4
REMARK VINA RESULT: -8.176505588      4.374     10.986
REMARK  13 active torsions:
REMARK  status: ('A' for Active; 'I' for Inactive)
REMARK    1  A    between atoms: C7_8  and  C8_9 
REMARK    2  A    between atoms: C9_10  and  C10_11 
REMARK    3  A    between atoms: C11_13  and  C12_14 
REMARK    4  A    between atoms: C12_14  and  C13_15 
REMARK    5  A    between atoms: C14_16  and  C15_17 
REMARK    6  A    between atoms: C15_17  and  C16_18 
REMARK    7  A    between atoms: C16_18  and  C17_19 
REMARK    8  A    between atoms: C17_19  and  C18_20 
REMARK    9  A    between atoms: C19_23  and  O4_24 
REMARK   10  A    between atoms: C20_26  and  O5_27 
REMARK   11  A    between atoms: C21_29  and  O6_30 
REMARK   12  A    between atoms: N2_33  and  C24_34 
REMARK   13  A    between atoms: C24_34  and  C26_36 
ROOT
HETATM    1  C8  UNL     1      13.108  14.240   5.746  1.00  0.00     0.008 C 
HETATM    2  C9  UNL     1      12.709  13.583   4.673  1.00  0.00     0.006 C 
ENDROOT
BRANCH   1   3
HETATM    3  C7  UNL     1      12.251  14.427   6.920  1.00  0.00     0.173 C 
HETATM    4  C2  UNL     1      12.357  13.358   7.935  1.00  0.00    -0.057 C 
HETATM    5  C1  UNL     1      12.738  12.183   7.503  1.00  0.00     0.017 C 
HETATM    6  C3  UNL     1      12.085  13.461   9.381  1.00  0.00     0.038 C 
HETATM    7  C4  UNL     1      10.768  14.236   9.497  1.00  0.00     0.032 C 
HETATM    8  C5  UNL     1      11.080  15.721   9.525  1.00  0.00     0.111 C 
HETATM    9  C6  UNL     1      11.236  16.094   8.030  1.00  0.00     0.175 C 
HETATM   10  N2  UNL     1      10.034  16.552   9.912  1.00  0.00    -0.399 N 
HETATM   11  O1  UNL     1      12.450  15.698   7.514  1.00  0.00    -0.368 OA
HETATM   12  C21 UNL     1      11.100  17.599   8.085  1.00  0.00     0.169 C 
HETATM   13  C23 UNL     1      10.049  17.775   9.141  1.00  0.00     0.152 C 
BRANCH  12  14
HETATM   14  O6  UNL     1      10.628  18.035   6.841  1.00  0.00    -0.386 OA
HETATM   15  C22 UNL     1       9.285  17.626   6.759  1.00  0.00     0.202 C 
ENDBRANCH  12  14
BRANCH  10  16
HETATM   16  C24 UNL     1       9.651  16.800  11.223  1.00  0.00     0.079 C 
HETATM   17  C25 UNL     1       8.357  17.612  11.394  1.00  0.00     0.032 C 
BRANCH  16  18
HETATM   18  C26 UNL     1       9.687  15.661  12.209  1.00  0.00    -0.001 C 
HETATM   19  C27 UNL     1      10.495  16.138  13.440  1.00  0.00     0.011 C 
HETATM   20  C28 UNL     1       8.324  15.318  12.786  1.00  0.00     0.011 C 
ENDBRANCH  16  18
ENDBRANCH  10  16
ENDBRANCH   1   3
BRANCH   2  21
HETATM   21  C10 UNL     1      13.577  13.390   3.476  1.00  0.00     0.176 C 
HETATM   22  O2  UNL     1      12.886  13.686   2.303  1.00  0.00    -0.371 OA
HETATM   23  C11 UNL     1      13.605  12.996   1.325  1.00  0.00     0.157 C 
HETATM   24  C19 UNL     1      13.664  11.614   1.946  1.00  0.00     0.178 C 
HETATM   25  C20 UNL     1      13.947  11.936   3.400  1.00  0.00     0.182 C 
BRANCH  23  26
HETATM   26  C12 UNL     1      12.845  12.933   0.020  1.00  0.00     0.061 C 
BRANCH  26  27
HETATM   27  C13 UNL     1      11.533  13.603   0.228  1.00  0.00    -0.028 C 
HETATM   28  C14 UNL     1      11.403  14.860  -0.108  1.00  0.00    -0.031 C 
BRANCH  28  29
HETATM   29  C15 UNL     1      10.128  15.626   0.058  1.00  0.00     0.027 C 
BRANCH  29  30
HETATM   30  C16 UNL     1      10.144  16.517   1.262  1.00  0.00     0.013 C 
BRANCH  30  31
HETATM   31  C17 UNL     1       9.242  15.984   2.316  1.00  0.00     0.100 C 
BRANCH  31  32
HETATM   32  C18 UNL     1       9.893  15.717   3.614  1.00  0.00     0.231 C 
HETATM   33  N1  UNL     1       9.260  14.718   4.439  1.00  0.00    -0.062 NA
HETATM   34  O3  UNL     1      10.924  16.282   4.029  1.00  0.00    -0.277 OA
ENDBRANCH  31  32
ENDBRANCH  30  31
ENDBRANCH  29  30
ENDBRANCH  28  29
ENDBRANCH  26  27
ENDBRANCH  23  26
BRANCH  24  35
HETATM   35  O4  UNL     1      12.427  10.975   1.906  1.00  0.00    -0.390 OA
ATOM     36  H4  UNL     1      11.756  11.472   2.360  1.00  0.00     0.210 HD
ENDBRANCH  24  35
BRANCH  25  37
HETATM   37  O5  UNL     1      13.262  11.132   4.282  1.00  0.00    -0.390 OA
ATOM     38  H5  UNL     1      12.576  11.578   4.764  1.00  0.00     0.210 HD
ENDBRANCH  25  37
ENDBRANCH   2  21
TORSDOF 13
ENDMDL
MODEL 5
REMARK VINA RESULT: -8.120758670      2.359      4.855
REMARK  13 active torsions:
REMARK  status: ('A' for Active; 'I' for Inactive)
REMARK    1  A    between atoms: C7_8  and  C8_9 
REMARK    2  A    between atoms: C9_10  and  C10_11 
REMARK    3  A    between atoms: C11_13  and  C12_14 
REMARK    4  A    between atoms: C12_14  and  C13_15 
REMARK    5  A    between atoms: C14_16  and  C15_17 
REMARK    6  A    between atoms: C15_17  and  C16_18 
REMARK    7  A    between atoms: C16_18  and  C17_19 
REMARK    8  A    between atoms: C17_19  and  C18_20 
REMARK    9  A    between atoms: C19_23  and  O4_24 
REMARK   10  A    between atoms: C20_26  and  O5_27 
REMARK   11  A    between atoms: C21_29  and  O6_30 
REMARK   12  A    between atoms: N2_33  and  C24_34 
REMARK   13  A    between atoms: C24_34  and  C26_36 
ROOT
HETATM    1  C8  UNL     1       4.521  18.213  10.708  1.00  0.00     0.008 C 
HETATM    2  C9  UNL     1       3.926  17.530  11.666  1.00  0.00     0.006 C 
ENDROOT
BRANCH   1   3
HETATM    3  C7  UNL     1       5.631  17.666   9.923  1.00  0.00     0.173 C 
HETATM    4  C2  UNL     1       5.608  18.029   8.490  1.00  0.00    -0.057 C 
HETATM    5  C1  UNL     1       4.435  18.308   7.981  1.00  0.00     0.017 C 
HETATM    6  C3  UNL     1       6.754  18.117   7.566  1.00  0.00     0.038 C 
HETATM    7  C4  UNL     1       7.589  16.858   7.827  1.00  0.00     0.032 C 
HETATM    8  C5  UNL     1       8.567  17.150   8.950  1.00  0.00     0.111 C 
HETATM    9  C6  UNL     1       7.730  16.933  10.235  1.00  0.00     0.175 C 
HETATM   10  N2  UNL     1       9.587  16.220   9.122  1.00  0.00    -0.399 N 
HETATM   11  O1  UNL     1       6.886  17.989  10.496  1.00  0.00    -0.368 OA
HETATM   12  C21 UNL     1       8.817  16.796  11.278  1.00  0.00     0.169 C 
HETATM   13  C23 UNL     1       9.868  16.032  10.528  1.00  0.00     0.152 C 
BRANCH  12  14
HETATM   14  O6  UNL     1       8.308  16.031  12.333  1.00  0.00    -0.386 OA
HETATM   15  C22 UNL     1       9.420  15.489  13.004  1.00  0.00     0.202 C 
ENDBRANCH  12  14
BRANCH  10  16
HETATM   16  C24 UNL     1      10.754  16.165   8.374  1.00  0.00     0.079 C 
HETATM   17  C25 UNL     1      11.401  17.523   8.051  1.00  0.00     0.032 C 
BRANCH  16  18
HETATM   18  C26 UNL     1      11.811  15.164   8.763  1.00  0.00    -0.001 C 
HETATM   19  C27 UNL     1      11.488  13.839   8.031  1.00  0.00     0.011 C 
HETATM   20  C28 UNL     1      13.199  15.522   8.260  1.00  0.00     0.011 C 
ENDBRANCH  16  18
ENDBRANCH  10  16
ENDBRANCH   1   3
BRANCH   2  21
HETATM   21  C10 UNL     1       2.796  18.083  12.468  1.00  0.00     0.176 C 
HETATM   22  O2  UNL     1       3.199  18.365  13.773  1.00  0.00    -0.371 OA
HETATM   23  C11 UNL     1       1.997  18.366  14.485  1.00  0.00     0.157 C 
HETATM   24  C19 UNL     1       1.414  17.036  14.049  1.00  0.00     0.178 C 
HETATM   25  C20 UNL     1       1.735  17.025  12.567  1.00  0.00     0.182 C 
BRANCH  23  26
HETATM   26  C12 UNL     1       2.238  18.348  15.977  1.00  0.00     0.061 C 
BRANCH  26  27
HETATM   27  C13 UNL     1       3.702  18.500  16.201  1.00  0.00    -0.028 C 
HETATM   28  C14 UNL     1       4.281  17.777  17.124  1.00  0.00    -0.031 C 
BRANCH  28  29
HETATM   29  C15 UNL     1       5.744  17.852  17.428  1.00  0.00     0.027 C 
BRANCH  29  30
HETATM   30  C16 UNL     1       6.499  16.662  16.922  1.00  0.00     0.013 C 
BRANCH  30  31
HETATM   31  C17 UNL     1       6.909  16.868  15.509  1.00  0.00     0.100 C 
BRANCH  31  32
HETATM   32  C18 UNL     1       7.870  17.968  15.295  1.00  0.00     0.231 C 
HETATM   33  N1  UNL     1       7.519  18.916  14.267  1.00  0.00    -0.062 NA
HETATM   34  O3  UNL     1       8.932  18.126  15.927  1.00  0.00    -0.277 OA
ENDBRANCH  31  32
ENDBRANCH  30  31
ENDBRANCH  29  30
ENDBRANCH  28  29
ENDBRANCH  26  27
ENDBRANCH  23  26
BRANCH  24  35
HETATM   35  O4  UNL     1       2.092  15.961  14.619  1.00  0.00    -0.390 OA
ATOM     36  H4  UNL     1       1.919  15.148  14.157  1.00  0.00     0.210 HD
ENDBRANCH  24  35
BRANCH  25  37
HETATM   37  O5  UNL     1       2.124  15.790  12.101  1.00  0.00    -0.390 OA
ATOM     38  H5  UNL     1       1.544  15.079  12.349  1.00  0.00     0.210 HD
ENDBRANCH  25  37
ENDBRANCH   2  21
TORSDOF 13
ENDMDL
