MODEL 1
REMARK VINA RESULT: -9.156343627      0.000      0.000
REMARK  16 active torsions:
REMARK  status: ('A' for Active; 'I' for Inactive)
REMARK    1  A    between atoms: N1_2  and  C3_4 
REMARK    2  A    between atoms: C3_4  and  C4_5 
REMARK    3  A    between atoms: C4_5  and  N2_6 
REMARK       I    between atoms: N2_6  and  C5_8 
REMARK    4  A    between atoms: C5_8  and  C6_10 
REMARK    5  A    between atoms: C6_10  and  C7_11 
REMARK    6  A    between atoms: C7_11  and  C8_12 
REMARK    7  A    between atoms: C8_12  and  C9_13 
REMARK    8  A    between atoms: C8_12  and  N4_50 
REMARK    9  A    between atoms: C9_13  and  O2_14 
REMARK   10  A    between atoms: C9_13  and  C10_16 
REMARK   11  A    between atoms: C10_16  and  C11_17 
REMARK   12  A    between atoms: C11_17  and  C12_18 
REMARK   13  A    between atoms: C12_18  and  O4_20 
REMARK   14  A    between atoms: O4_20  and  C13_21 
REMARK   15  A    between atoms: C25_36  and  O7_37 
REMARK   16  A    between atoms: C32_45  and  O8_46 
ROOT
HETATM    1  C13 UNL     1       5.811   1.143  11.564  1.00  0.00     0.261 C 
HETATM    2  C14 UNL     1       4.395   0.587  11.553  1.00  0.00     0.225 C 
HETATM    3  O5  UNL     1       4.173   0.020  12.807  1.00  0.00    -0.361 OA
HETATM    4  C15 UNL     1       5.282   0.273  13.598  1.00  0.00     0.239 C 
HETATM    5  N3  UNL     1       6.380   0.336  12.627  1.00  0.00    -0.295 N 
HETATM    6  C16 UNL     1       7.472  -0.394  13.123  1.00  0.00     0.229 C 
HETATM    7  O6  UNL     1       8.545  -0.606  12.503  1.00  0.00    -0.273 OA
HETATM    8  C17 UNL     1       7.124  -0.854  14.484  1.00  0.00     0.097 C 
HETATM    9  C18 UNL     1       7.813  -2.154  14.753  1.00  0.00     0.004 C 
HETATM   10  C19 UNL     1       8.876  -1.921  15.767  1.00  0.00     0.006 C 
HETATM   11  C20 UNL     1       9.581  -3.212  16.089  1.00  0.00     0.007 C 
HETATM   12  C21 UNL     1       8.651  -4.296  16.550  1.00  0.00     0.004 C 
HETATM   13  C22 UNL     1       9.472  -5.485  16.860  1.00  0.00    -0.017 C 
HETATM   14  C23 UNL     1       9.109  -6.139  18.200  1.00  0.00     0.018 C 
HETATM   15  C24 UNL     1      10.931  -5.085  17.055  1.00  0.00     0.018 C 
HETATM   16  C25 UNL     1       9.463  -6.557  15.805  1.00  0.00     0.126 C 
HETATM   17  C26 UNL     1       9.062  -6.060  14.449  1.00  0.00     0.033 C 
HETATM   18  C27 UNL     1       7.784  -5.309  14.413  1.00  0.00     0.012 C 
HETATM   19  C28 UNL     1       7.476  -4.505  15.649  1.00  0.00    -0.035 C 
HETATM   20  C29 UNL     1       6.321  -5.194  16.351  1.00  0.00     0.016 C 
HETATM   21  C30 UNL     1       6.865  -3.160  15.240  1.00  0.00     0.001 C 
HETATM   22  C31 UNL     1       5.692  -3.386  14.312  1.00  0.00     0.038 C 
HETATM   23  C32 UNL     1       5.007  -2.111  13.975  1.00  0.00     0.132 C 
HETATM   24  C33 UNL     1       5.649  -0.873  14.519  1.00  0.00     0.039 C 
HETATM   25  C34 UNL     1       5.068  -0.497  15.870  1.00  0.00     0.023 C 
ENDROOT
BRANCH   1  26
HETATM   26  O4  UNL     1       5.730   2.493  12.047  1.00  0.00    -0.293 OA
BRANCH  26  27
HETATM   27  C12 UNL     1       6.629   3.471  11.693  1.00  0.00     0.260 C 
HETATM   28  O3  UNL     1       7.631   3.580  12.492  1.00  0.00    -0.265 OA
BRANCH  27  29
HETATM   29  C11 UNL     1       6.584   4.380  10.551  1.00  0.00     0.114 C 
BRANCH  29  30
HETATM   30  C10 UNL     1       5.338   5.127  10.301  1.00  0.00     0.047 C 
BRANCH  30  31
HETATM   31  C9  UNL     1       4.312   4.640   9.373  1.00  0.00     0.163 C 
BRANCH  31  32
HETATM   32  C8  UNL     1       4.180   5.198   8.016  1.00  0.00     0.013 C 
BRANCH  32  33
HETATM   33  C7  UNL     1       2.847   4.971   7.334  1.00  0.00     0.064 C 
BRANCH  33  34
HETATM   34  C6  UNL     1       1.699   5.287   8.301  1.00  0.00     0.108 C 
BRANCH  34  35
HETATM   35  C5  UNL     1       1.108   3.981   8.703  1.00  0.00     0.217 C 
HETATM   36  N2  UNL     1       0.189   3.926   9.784  1.00  0.00    -0.359 N 
ATOM     37  H2  UNL     1      -0.054   4.784  10.278  1.00  0.00     0.162 HD
HETATM   38  O1  UNL     1       1.398   2.916   8.111  1.00  0.00    -0.274 OA
BRANCH  36  39
HETATM   39  C4  UNL     1      -0.400   2.694  10.193  1.00  0.00     0.152 C 
BRANCH  39  40
HETATM   40  C3  UNL     1      -0.015   2.259  11.569  1.00  0.00     0.290 C 
BRANCH  40  41
HETATM   41  N1  UNL     1       0.175   0.809  11.615  1.00  0.00     0.081 N 
HETATM   42  C1  UNL     1       0.746   0.443  12.883  1.00  0.00     0.309 C 
HETATM   43  C2  UNL     1       0.962   0.336  10.498  1.00  0.00     0.309 C 
ENDBRANCH  40  41
ENDBRANCH  39  40
ENDBRANCH  36  39
ENDBRANCH  34  35
ENDBRANCH  33  34
ENDBRANCH  32  33
BRANCH  32  44
HETATM   44  N4  UNL     1       5.294   5.014   7.184  1.00  0.00    -0.394 N 
HETATM   45  C35 UNL     1       6.207   6.033   6.908  1.00  0.00     0.148 C 
HETATM   46  C36 UNL     1       5.045   4.212   6.007  1.00  0.00     0.148 C 
ENDBRANCH  32  44
ENDBRANCH  31  32
BRANCH  31  47
HETATM   47  O2  UNL     1       4.383   3.229   9.234  1.00  0.00    -0.390 OA
ATOM     48  H2  UNL     1       4.475   2.870  10.108  1.00  0.00     0.210 HD
ENDBRANCH  31  47
ENDBRANCH  30  31
ENDBRANCH  29  30
ENDBRANCH  27  29
ENDBRANCH  26  27
ENDBRANCH   1  26
BRANCH  23  49
HETATM   49  O8  UNL     1       3.673  -2.166  14.449  1.00  0.00    -0.395 OA
ATOM     50  H8  UNL     1       3.362  -1.281  14.601  1.00  0.00     0.210 HD
ENDBRANCH  23  49
BRANCH  16  51
HETATM   51  O7  UNL     1       8.591  -7.594  16.130  1.00  0.00    -0.395 OA
ATOM     52  H7  UNL     1       9.058  -8.391  16.353  1.00  0.00     0.210 HD
ENDBRANCH  16  51
TORSDOF 16
ENDMDL
MODEL 2
REMARK VINA RESULT: -8.986819623      1.328      1.681
REMARK  16 active torsions:
REMARK  status: ('A' for Active; 'I' for Inactive)
REMARK    1  A    between atoms: N1_2  and  C3_4 
REMARK    2  A    between atoms: C3_4  and  C4_5 
REMARK    3  A    between atoms: C4_5  and  N2_6 
REMARK       I    between atoms: N2_6  and  C5_8 
REMARK    4  A    between atoms: C5_8  and  C6_10 
REMARK    5  A    between atoms: C6_10  and  C7_11 
REMARK    6  A    between atoms: C7_11  and  C8_12 
REMARK    7  A    between atoms: C8_12  and  C9_13 
REMARK    8  A    between atoms: C8_12  and  N4_50 
REMARK    9  A    between atoms: C9_13  and  O2_14 
REMARK   10  A    between atoms: C9_13  and  C10_16 
REMARK   11  A    between atoms: C10_16  and  C11_17 
REMARK   12  A    between atoms: C11_17  and  C12_18 
REMARK   13  A    between atoms: C12_18  and  O4_20 
REMARK   14  A    between atoms: O4_20  and  C13_21 
REMARK   15  A    between atoms: C25_36  and  O7_37 
REMARK   16  A    between atoms: C32_45  and  O8_46 
ROOT
HETATM    1  C13 UNL     1       5.392   1.027  11.614  1.00  0.00     0.261 C 
HETATM    2  C14 UNL     1       4.017   0.376  11.584  1.00  0.00     0.225 C 
HETATM    3  O5  UNL     1       3.825  -0.222  12.829  1.00  0.00    -0.361 OA
HETATM    4  C15 UNL     1       4.910   0.094  13.632  1.00  0.00     0.239 C 
HETATM    5  N3  UNL     1       6.007   0.245  12.670  1.00  0.00    -0.295 N 
HETATM    6  C16 UNL     1       7.143  -0.416  13.164  1.00  0.00     0.229 C 
HETATM    7  O6  UNL     1       8.232  -0.546  12.550  1.00  0.00    -0.273 OA
HETATM    8  C17 UNL     1       6.818  -0.918  14.517  1.00  0.00     0.097 C 
HETATM    9  C18 UNL     1       7.592  -2.171  14.773  1.00  0.00     0.004 C 
HETATM   10  C19 UNL     1       8.630  -1.881  15.798  1.00  0.00     0.006 C 
HETATM   11  C20 UNL     1       9.418  -3.126  16.108  1.00  0.00     0.007 C 
HETATM   12  C21 UNL     1       8.561  -4.276  16.547  1.00  0.00     0.004 C 
HETATM   13  C22 UNL     1       9.459  -5.411  16.848  1.00  0.00    -0.017 C 
HETATM   14  C23 UNL     1       9.132  -6.107  18.175  1.00  0.00     0.018 C 
HETATM   15  C24 UNL     1      10.887  -4.916  17.059  1.00  0.00     0.018 C 
HETATM   16  C25 UNL     1       9.530  -6.467  15.778  1.00  0.00     0.126 C 
HETATM   17  C26 UNL     1       9.104  -5.979  14.426  1.00  0.00     0.033 C 
HETATM   18  C27 UNL     1       7.779  -5.316  14.391  1.00  0.00     0.012 C 
HETATM   19  C28 UNL     1       7.409  -4.552  15.635  1.00  0.00    -0.035 C 
HETATM   20  C29 UNL     1       6.299  -5.327  16.319  1.00  0.00     0.016 C 
HETATM   21  C30 UNL     1       6.711  -3.246  15.240  1.00  0.00     0.001 C 
HETATM   22  C31 UNL     1       5.562  -3.538  14.299  1.00  0.00     0.038 C 
HETATM   23  C32 UNL     1       4.795  -2.307  13.975  1.00  0.00     0.132 C 
HETATM   24  C33 UNL     1       5.348  -1.037  14.541  1.00  0.00     0.039 C 
HETATM   25  C34 UNL     1       4.734  -0.720  15.892  1.00  0.00     0.023 C 
ENDROOT
BRANCH   1  26
HETATM   26  O4  UNL     1       5.216   2.361  12.114  1.00  0.00    -0.293 OA
BRANCH  26  27
HETATM   27  C12 UNL     1       5.852   3.454  11.574  1.00  0.00     0.260 C 
HETATM   28  O3  UNL     1       5.078   4.456  11.349  1.00  0.00    -0.265 OA
BRANCH  27  29
HETATM   29  C11 UNL     1       7.263   3.610  11.232  1.00  0.00     0.114 C 
BRANCH  29  30
HETATM   30  C10 UNL     1       7.688   3.293   9.857  1.00  0.00     0.047 C 
BRANCH  30  31
HETATM   31  C9  UNL     1       7.482   4.226   8.745  1.00  0.00     0.163 C 
BRANCH  31  32
HETATM   32  C8  UNL     1       6.564   3.908   7.638  1.00  0.00     0.013 C 
BRANCH  32  33
HETATM   33  C7  UNL     1       5.178   3.448   8.036  1.00  0.00     0.064 C 
BRANCH  33  34
HETATM   34  C6  UNL     1       4.138   4.504   7.638  1.00  0.00     0.108 C 
BRANCH  34  35
HETATM   35  C5  UNL     1       2.855   4.101   8.276  1.00  0.00     0.217 C 
HETATM   36  N2  UNL     1       2.565   4.517   9.603  1.00  0.00    -0.359 N 
ATOM     37  H2  UNL     1       3.244   5.087  10.107  1.00  0.00     0.162 HD
HETATM   38  O1  UNL     1       2.010   3.398   7.673  1.00  0.00    -0.274 OA
BRANCH  36  39
HETATM   39  C4  UNL     1       1.345   4.154  10.243  1.00  0.00     0.152 C 
BRANCH  39  40
HETATM   40  C3  UNL     1       1.506   3.172  11.356  1.00  0.00     0.290 C 
BRANCH  40  41
HETATM   41  N1  UNL     1       0.220   2.560  11.691  1.00  0.00     0.081 N 
HETATM   42  C1  UNL     1       0.448   1.315  12.374  1.00  0.00     0.309 C 
HETATM   43  C2  UNL     1      -0.620   2.403  10.525  1.00  0.00     0.309 C 
ENDBRANCH  40  41
ENDBRANCH  39  40
ENDBRANCH  36  39
ENDBRANCH  34  35
ENDBRANCH  33  34
ENDBRANCH  32  33
BRANCH  32  44
HETATM   44  N4  UNL     1       7.133   3.181   6.582  1.00  0.00    -0.394 N 
HETATM   45  C35 UNL     1       6.983   1.799   6.450  1.00  0.00     0.148 C 
HETATM   46  C36 UNL     1       8.468   3.592   6.213  1.00  0.00     0.148 C 
ENDBRANCH  32  44
ENDBRANCH  31  32
BRANCH  31  47
HETATM   47  O2  UNL     1       7.120   5.513   9.224  1.00  0.00    -0.390 OA
ATOM     48  H2  UNL     1       7.296   5.519  10.157  1.00  0.00     0.210 HD
ENDBRANCH  31  47
ENDBRANCH  30  31
ENDBRANCH  29  30
ENDBRANCH  27  29
ENDBRANCH  26  27
ENDBRANCH   1  26
BRANCH  23  49
HETATM   49  O8  UNL     1       3.464  -2.459  14.438  1.00  0.00    -0.395 OA
ATOM     50  H8  UNL     1       2.867  -2.144  13.770  1.00  0.00     0.210 HD
ENDBRANCH  23  49
BRANCH  16  51
HETATM   51  O7  UNL     1       8.728  -7.565  16.082  1.00  0.00    -0.395 OA
ATOM     52  H7  UNL     1       8.102  -7.747  15.391  1.00  0.00     0.210 HD
ENDBRANCH  16  51
TORSDOF 16
ENDMDL
MODEL 3
REMARK VINA RESULT: -8.965809002      1.201      3.316
REMARK  16 active torsions:
REMARK  status: ('A' for Active; 'I' for Inactive)
REMARK    1  A    between atoms: N1_2  and  C3_4 
REMARK    2  A    between atoms: C3_4  and  C4_5 
REMARK    3  A    between atoms: C4_5  and  N2_6 
REMARK       I    between atoms: N2_6  and  C5_8 
REMARK    4  A    between atoms: C5_8  and  C6_10 
REMARK    5  A    between atoms: C6_10  and  C7_11 
REMARK    6  A    between atoms: C7_11  and  C8_12 
REMARK    7  A    between atoms: C8_12  and  C9_13 
REMARK    8  A    between atoms: C8_12  and  N4_50 
REMARK    9  A    between atoms: C9_13  and  O2_14 
REMARK   10  A    between atoms: C9_13  and  C10_16 
REMARK   11  A    between atoms: C10_16  and  C11_17 
REMARK   12  A    between atoms: C11_17  and  C12_18 
REMARK   13  A    between atoms: C12_18  and  O4_20 
REMARK   14  A    between atoms: O4_20  and  C13_21 
REMARK   15  A    between atoms: C25_36  and  O7_37 
REMARK   16  A    between atoms: C32_45  and  O8_46 
ROOT
HETATM    1  C13 UNL     1       5.681   1.143  11.677  1.00  0.00     0.261 C 
HETATM    2  C14 UNL     1       4.278   0.555  11.655  1.00  0.00     0.225 C 
HETATM    3  O5  UNL     1       4.069  -0.041  12.898  1.00  0.00    -0.361 OA
HETATM    4  C15 UNL     1       5.173   0.222  13.694  1.00  0.00     0.239 C 
HETATM    5  N3  UNL     1       6.268   0.328  12.724  1.00  0.00    -0.295 N 
HETATM    6  C16 UNL     1       7.377  -0.386  13.206  1.00  0.00     0.229 C 
HETATM    7  O6  UNL     1       8.455  -0.562  12.582  1.00  0.00    -0.273 OA
HETATM    8  C17 UNL     1       7.041  -0.880  14.559  1.00  0.00     0.097 C 
HETATM    9  C18 UNL     1       7.759  -2.168  14.803  1.00  0.00     0.004 C 
HETATM   10  C19 UNL     1       8.817  -1.930  15.821  1.00  0.00     0.006 C 
HETATM   11  C20 UNL     1       9.551  -3.211  16.118  1.00  0.00     0.007 C 
HETATM   12  C21 UNL     1       8.646  -4.324  16.559  1.00  0.00     0.004 C 
HETATM   13  C22 UNL     1       9.494  -5.500  16.846  1.00  0.00    -0.017 C 
HETATM   14  C23 UNL     1       9.147  -6.188  18.173  1.00  0.00     0.018 C 
HETATM   15  C24 UNL     1      10.944  -5.071  17.049  1.00  0.00     0.018 C 
HETATM   16  C25 UNL     1       9.509  -6.552  15.771  1.00  0.00     0.126 C 
HETATM   17  C26 UNL     1       9.096  -6.038  14.425  1.00  0.00     0.033 C 
HETATM   18  C27 UNL     1       7.801  -5.316  14.403  1.00  0.00     0.012 C 
HETATM   19  C28 UNL     1       7.476  -4.543  15.654  1.00  0.00    -0.035 C 
HETATM   20  C29 UNL     1       6.338  -5.271  16.343  1.00  0.00     0.016 C 
HETATM   21  C30 UNL     1       6.834  -3.204  15.271  1.00  0.00     0.001 C 
HETATM   22  C31 UNL     1       5.666  -3.439  14.338  1.00  0.00     0.038 C 
HETATM   23  C32 UNL     1       4.953  -2.174  14.026  1.00  0.00     0.132 C 
HETATM   24  C33 UNL     1       5.567  -0.933  14.594  1.00  0.00     0.039 C 
HETATM   25  C34 UNL     1       4.978  -0.595  15.952  1.00  0.00     0.023 C 
ENDROOT
BRANCH   1  26
HETATM   26  O4  UNL     1       5.570   2.481  12.185  1.00  0.00    -0.293 OA
BRANCH  26  27
HETATM   27  C12 UNL     1       5.998   3.586  11.488  1.00  0.00     0.260 C 
HETATM   28  O3  UNL     1       7.274   3.659  11.348  1.00  0.00    -0.265 OA
BRANCH  27  29
HETATM   29  C11 UNL     1       5.199   4.660  10.905  1.00  0.00     0.114 C 
BRANCH  29  30
HETATM   30  C10 UNL     1       4.100   4.297   9.991  1.00  0.00     0.047 C 
BRANCH  30  31
HETATM   31  C9  UNL     1       2.723   4.125  10.462  1.00  0.00     0.163 C 
BRANCH  31  32
HETATM   32  C8  UNL     1       1.721   3.408   9.654  1.00  0.00     0.013 C 
BRANCH  32  33
HETATM   33  C7  UNL     1       0.952   4.246   8.654  1.00  0.00     0.064 C 
BRANCH  33  34
HETATM   34  C6  UNL     1       1.208   3.735   7.231  1.00  0.00     0.108 C 
BRANCH  34  35
HETATM   35  C5  UNL     1       2.553   4.231   6.833  1.00  0.00     0.217 C 
HETATM   36  N2  UNL     1       3.585   3.306   6.524  1.00  0.00    -0.359 N 
ATOM     37  H2  UNL     1       3.392   2.306   6.582  1.00  0.00     0.162 HD
HETATM   38  O1  UNL     1       2.810   5.456   6.761  1.00  0.00    -0.274 OA
BRANCH  36  39
HETATM   39  C4  UNL     1       4.883   3.745   6.136  1.00  0.00     0.152 C 
BRANCH  39  40
HETATM   40  C3  UNL     1       5.971   2.761   6.413  1.00  0.00     0.290 C 
BRANCH  40  41
HETATM   41  N1  UNL     1       6.518   2.964   7.756  1.00  0.00     0.081 N 
HETATM   42  C1  UNL     1       7.295   4.173   7.775  1.00  0.00     0.309 C 
HETATM   43  C2  UNL     1       7.271   1.816   8.208  1.00  0.00     0.309 C 
ENDBRANCH  40  41
ENDBRANCH  39  40
ENDBRANCH  36  39
ENDBRANCH  34  35
ENDBRANCH  33  34
ENDBRANCH  32  33
BRANCH  32  44
HETATM   44  N4  UNL     1       0.934   2.485  10.359  1.00  0.00    -0.394 N 
HETATM   45  C35 UNL     1       1.034   1.106  10.169  1.00  0.00     0.148 C 
HETATM   46  C36 UNL     1      -0.443   2.882  10.547  1.00  0.00     0.148 C 
ENDBRANCH  32  44
ENDBRANCH  31  32
BRANCH  31  47
HETATM   47  O2  UNL     1       2.699   3.545  11.757  1.00  0.00    -0.390 OA
ATOM     48  H2  UNL     1       3.195   2.737  11.707  1.00  0.00     0.210 HD
ENDBRANCH  31  47
ENDBRANCH  30  31
ENDBRANCH  29  30
ENDBRANCH  27  29
ENDBRANCH  26  27
ENDBRANCH   1  26
BRANCH  23  49
HETATM   49  O8  UNL     1       3.620  -2.268  14.499  1.00  0.00    -0.395 OA
ATOM     50  H8  UNL     1       3.109  -2.777  13.881  1.00  0.00     0.210 HD
ENDBRANCH  23  49
BRANCH  16  51
HETATM   51  O7  UNL     1       8.661  -7.614  16.076  1.00  0.00    -0.395 OA
ATOM     52  H7  UNL     1       8.345  -8.050  15.292  1.00  0.00     0.210 HD
ENDBRANCH  16  51
TORSDOF 16
ENDMDL
MODEL 4
REMARK VINA RESULT: -8.935684333      1.792      3.531
REMARK  16 active torsions:
REMARK  status: ('A' for Active; 'I' for Inactive)
REMARK    1  A    between atoms: N1_2  and  C3_4 
REMARK    2  A    between atoms: C3_4  and  C4_5 
REMARK    3  A    between atoms: C4_5  and  N2_6 
REMARK       I    between atoms: N2_6  and  C5_8 
REMARK    4  A    between atoms: C5_8  and  C6_10 
REMARK    5  A    between atoms: C6_10  and  C7_11 
REMARK    6  A    between atoms: C7_11  and  C8_12 
REMARK    7  A    between atoms: C8_12  and  C9_13 
REMARK    8  A    between atoms: C8_12  and  N4_50 
REMARK    9  A    between atoms: C9_13  and  O2_14 
REMARK   10  A    between atoms: C9_13  and  C10_16 
REMARK   11  A    between atoms: C10_16  and  C11_17 
REMARK   12  A    between atoms: C11_17  and  C12_18 
REMARK   13  A    between atoms: C12_18  and  O4_20 
REMARK   14  A    between atoms: O4_20  and  C13_21 
REMARK   15  A    between atoms: C25_36  and  O7_37 
REMARK   16  A    between atoms: C32_45  and  O8_46 
ROOT
HETATM    1  C13 UNL     1       4.423   0.749  11.598  1.00  0.00     0.261 C 
HETATM    2  C14 UNL     1       3.155  -0.092  11.559  1.00  0.00     0.225 C 
HETATM    3  O5  UNL     1       3.047  -0.720  12.799  1.00  0.00    -0.361 OA
HETATM    4  C15 UNL     1       4.073  -0.256  13.608  1.00  0.00     0.239 C 
HETATM    5  N3  UNL     1       5.140   0.056  12.652  1.00  0.00    -0.295 N 
HETATM    6  C16 UNL     1       6.357  -0.438  13.148  1.00  0.00     0.229 C 
HETATM    7  O6  UNL     1       7.456  -0.406  12.537  1.00  0.00    -0.273 OA
HETATM    8  C17 UNL     1       6.104  -0.990  14.495  1.00  0.00     0.097 C 
HETATM    9  C18 UNL     1       7.048  -2.121  14.748  1.00  0.00     0.004 C 
HETATM   10  C19 UNL     1       8.030  -1.691  15.779  1.00  0.00     0.006 C 
HETATM   11  C20 UNL     1       8.988  -2.812  16.085  1.00  0.00     0.007 C 
HETATM   12  C21 UNL     1       8.304  -4.077  16.514  1.00  0.00     0.004 C 
HETATM   13  C22 UNL     1       9.354  -5.073  16.811  1.00  0.00    -0.017 C 
HETATM   14  C23 UNL     1       9.127  -5.817  18.133  1.00  0.00     0.018 C 
HETATM   15  C24 UNL     1      10.695  -4.379  17.032  1.00  0.00     0.018 C 
HETATM   16  C25 UNL     1       9.579  -6.100  15.736  1.00  0.00     0.126 C 
HETATM   17  C26 UNL     1       9.093  -5.669  14.385  1.00  0.00     0.033 C 
HETATM   18  C27 UNL     1       7.687  -5.204  14.348  1.00  0.00     0.012 C 
HETATM   19  C28 UNL     1       7.206  -4.509  15.595  1.00  0.00    -0.035 C 
HETATM   20  C29 UNL     1       6.217  -5.440  16.269  1.00  0.00     0.016 C 
HETATM   21  C30 UNL     1       6.329  -3.314  15.204  1.00  0.00     0.001 C 
HETATM   22  C31 UNL     1       5.237  -3.762  14.257  1.00  0.00     0.038 C 
HETATM   23  C32 UNL     1       4.303  -2.652  13.937  1.00  0.00     0.132 C 
HETATM   24  C33 UNL     1       4.665  -1.319  14.513  1.00  0.00     0.039 C 
HETATM   25  C34 UNL     1       4.008  -1.102  15.863  1.00  0.00     0.023 C 
ENDROOT
BRANCH   1  26
HETATM   26  O4  UNL     1       4.055   2.040  12.106  1.00  0.00    -0.293 OA
BRANCH  26  27
HETATM   27  C12 UNL     1       3.334   2.955  11.376  1.00  0.00     0.260 C 
HETATM   28  O3  UNL     1       2.185   3.242  11.877  1.00  0.00    -0.265 OA
BRANCH  27  29
HETATM   29  C11 UNL     1       3.705   3.623  10.131  1.00  0.00     0.114 C 
BRANCH  29  30
HETATM   30  C10 UNL     1       2.659   4.353   9.392  1.00  0.00     0.047 C 
BRANCH  30  31
HETATM   31  C9  UNL     1       1.777   3.686   8.430  1.00  0.00     0.163 C 
BRANCH  31  32
HETATM   32  C8  UNL     1       2.052   3.723   6.983  1.00  0.00     0.013 C 
BRANCH  32  33
HETATM   33  C7  UNL     1       3.362   4.362   6.574  1.00  0.00     0.064 C 
BRANCH  33  34
HETATM   34  C6  UNL     1       4.381   3.279   6.197  1.00  0.00     0.108 C 
BRANCH  34  35
HETATM   35  C5  UNL     1       5.603   3.541   7.006  1.00  0.00     0.217 C 
HETATM   36  N2  UNL     1       6.218   2.479   7.720  1.00  0.00    -0.359 N 
ATOM     37  H2  UNL     1       5.812   1.544   7.672  1.00  0.00     0.162 HD
HETATM   38  O1  UNL     1       6.113   4.683   7.079  1.00  0.00    -0.274 OA
BRANCH  36  39
HETATM   39  C4  UNL     1       7.390   2.692   8.501  1.00  0.00     0.152 C 
BRANCH  39  40
HETATM   40  C3  UNL     1       7.279   2.221   9.913  1.00  0.00     0.290 C 
BRANCH  40  41
HETATM   41  N1  UNL     1       7.090   3.354  10.820  1.00  0.00     0.081 N 
HETATM   42  C1  UNL     1       7.739   4.515  10.273  1.00  0.00     0.309 C 
HETATM   43  C2  UNL     1       7.540   3.051  12.159  1.00  0.00     0.309 C 
ENDBRANCH  40  41
ENDBRANCH  39  40
ENDBRANCH  36  39
ENDBRANCH  34  35
ENDBRANCH  33  34
ENDBRANCH  32  33
BRANCH  32  44
HETATM   44  N4  UNL     1       0.960   4.077   6.177  1.00  0.00    -0.394 N 
HETATM   45  C35 UNL     1       1.099   4.460   4.842  1.00  0.00     0.148 C 
HETATM   46  C36 UNL     1      -0.048   4.874   6.839  1.00  0.00     0.148 C 
ENDBRANCH  32  44
ENDBRANCH  31  32
BRANCH  31  47
HETATM   47  O2  UNL     1       1.586   2.323   8.778  1.00  0.00    -0.390 OA
ATOM     48  H2  UNL     1       1.522   2.287   9.725  1.00  0.00     0.210 HD
ENDBRANCH  31  47
ENDBRANCH  30  31
ENDBRANCH  29  30
ENDBRANCH  27  29
ENDBRANCH  26  27
ENDBRANCH   1  26
BRANCH  23  49
HETATM   49  O8  UNL     1       3.006  -2.997  14.394  1.00  0.00    -0.395 OA
ATOM     50  H8  UNL     1       2.423  -2.259  14.254  1.00  0.00     0.210 HD
ENDBRANCH  23  49
BRANCH  16  51
HETATM   51  O7  UNL     1       8.942  -7.304  16.030  1.00  0.00    -0.395 OA
ATOM     52  H7  UNL     1       9.555  -8.031  16.052  1.00  0.00     0.210 HD
ENDBRANCH  16  51
TORSDOF 16
ENDMDL
MODEL 5
REMARK VINA RESULT: -8.729990458      1.971      3.830
REMARK  16 active torsions:
REMARK  status: ('A' for Active; 'I' for Inactive)
REMARK    1  A    between atoms: N1_2  and  C3_4 
REMARK    2  A    between atoms: C3_4  and  C4_5 
REMARK    3  A    between atoms: C4_5  and  N2_6 
REMARK       I    between atoms: N2_6  and  C5_8 
REMARK    4  A    between atoms: C5_8  and  C6_10 
REMARK    5  A    between atoms: C6_10  and  C7_11 
REMARK    6  A    between atoms: C7_11  and  C8_12 
REMARK    7  A    between atoms: C8_12  and  C9_13 
REMARK    8  A    between atoms: C8_12  and  N4_50 
REMARK    9  A    between atoms: C9_13  and  O2_14 
REMARK   10  A    between atoms: C9_13  and  C10_16 
REMARK   11  A    between atoms: C10_16  and  C11_17 
REMARK   12  A    between atoms: C11_17  and  C12_18 
REMARK   13  A    between atoms: C12_18  and  O4_20 
REMARK   14  A    between atoms: O4_20  and  C13_21 
REMARK   15  A    between atoms: C25_36  and  O7_37 
REMARK   16  A    between atoms: C32_45  and  O8_46 
ROOT
HETATM    1  C13 UNL     1       4.604   0.762  11.676  1.00  0.00     0.261 C 
HETATM    2  C14 UNL     1       3.334  -0.071  11.573  1.00  0.00     0.225 C 
HETATM    3  O5  UNL     1       3.186  -0.734  12.790  1.00  0.00    -0.361 OA
HETATM    4  C15 UNL     1       4.188  -0.301  13.643  1.00  0.00     0.239 C 
HETATM    5  N3  UNL     1       5.285   0.034  12.730  1.00  0.00    -0.295 N 
HETATM    6  C16 UNL     1       6.484  -0.481  13.247  1.00  0.00     0.229 C 
HETATM    7  O6  UNL     1       7.602  -0.438  12.671  1.00  0.00    -0.273 OA
HETATM    8  C17 UNL     1       6.187  -1.071  14.570  1.00  0.00     0.097 C 
HETATM    9  C18 UNL     1       7.118  -2.214  14.817  1.00  0.00     0.004 C 
HETATM   10  C19 UNL     1       8.070  -1.821  15.890  1.00  0.00     0.006 C 
HETATM   11  C20 UNL     1       9.013  -2.956  16.192  1.00  0.00     0.007 C 
HETATM   12  C21 UNL     1       8.310  -4.229  16.561  1.00  0.00     0.004 C 
HETATM   13  C22 UNL     1       9.346  -5.239  16.861  1.00  0.00    -0.017 C 
HETATM   14  C23 UNL     1       9.074  -6.021  18.153  1.00  0.00     0.018 C 
HETATM   15  C24 UNL     1      10.683  -4.560  17.143  1.00  0.00     0.018 C 
HETATM   16  C25 UNL     1       9.599  -6.235  15.763  1.00  0.00     0.126 C 
HETATM   17  C26 UNL     1       9.157  -5.762  14.411  1.00  0.00     0.033 C 
HETATM   18  C27 UNL     1       7.754  -5.288  14.345  1.00  0.00     0.012 C 
HETATM   19  C28 UNL     1       7.239  -4.628  15.597  1.00  0.00    -0.035 C 
HETATM   20  C29 UNL     1       6.225  -5.573  16.213  1.00  0.00     0.016 C 
HETATM   21  C30 UNL     1       6.380  -3.416  15.216  1.00  0.00     0.001 C 
HETATM   22  C31 UNL     1       5.316  -3.830  14.223  1.00  0.00     0.038 C 
HETATM   23  C32 UNL     1       4.396  -2.706  13.907  1.00  0.00     0.132 C 
HETATM   24  C33 UNL     1       4.747  -1.393  14.533  1.00  0.00     0.039 C 
HETATM   25  C34 UNL     1       4.049  -1.212  15.869  1.00  0.00     0.023 C 
ENDROOT
BRANCH   1  26
HETATM   26  O4  UNL     1       4.227   2.040  12.210  1.00  0.00    -0.293 OA
BRANCH  26  27
HETATM   27  C12 UNL     1       3.232   2.816  11.665  1.00  0.00     0.260 C 
HETATM   28  O3  UNL     1       2.045   2.489  12.035  1.00  0.00    -0.265 OA
BRANCH  27  29
HETATM   29  C11 UNL     1       3.357   3.938  10.738  1.00  0.00     0.114 C 
BRANCH  29  30
HETATM   30  C10 UNL     1       4.452   3.911   9.752  1.00  0.00     0.047 C 
BRANCH  30  31
HETATM   31  C9  UNL     1       5.691   4.671   9.945  1.00  0.00     0.163 C 
BRANCH  31  32
HETATM   32  C8  UNL     1       6.960   3.997  10.274  1.00  0.00     0.013 C 
BRANCH  32  33
HETATM   33  C7  UNL     1       7.111   2.581   9.762  1.00  0.00     0.064 C 
BRANCH  33  34
HETATM   34  C6  UNL     1       7.979   2.568   8.497  1.00  0.00     0.108 C 
BRANCH  34  35
HETATM   35  C5  UNL     1       7.096   2.146   7.376  1.00  0.00     0.217 C 
HETATM   36  N2  UNL     1       6.220   3.089   6.775  1.00  0.00    -0.359 N 
ATOM     37  H2  UNL     1       6.203   4.047   7.122  1.00  0.00     0.162 HD
HETATM   38  O1  UNL     1       7.099   0.972   6.939  1.00  0.00    -0.274 OA
BRANCH  36  39
HETATM   39  C4  UNL     1       5.363   2.722   5.697  1.00  0.00     0.152 C 
BRANCH  39  40
HETATM   40  C3  UNL     1       4.535   3.844   5.164  1.00  0.00     0.290 C 
BRANCH  40  41
HETATM   41  N1  UNL     1       3.848   4.538   6.254  1.00  0.00     0.081 N 
HETATM   42  C1  UNL     1       2.556   3.942   6.460  1.00  0.00     0.309 C 
HETATM   43  C2  UNL     1       3.767   5.962   6.017  1.00  0.00     0.309 C 
ENDBRANCH  40  41
ENDBRANCH  39  40
ENDBRANCH  36  39
ENDBRANCH  34  35
ENDBRANCH  33  34
ENDBRANCH  32  33
BRANCH  32  44
HETATM   44  N4  UNL     1       7.413   4.188  11.588  1.00  0.00    -0.394 N 
HETATM   45  C35 UNL     1       7.587   3.134  12.487  1.00  0.00     0.148 C 
HETATM   46  C36 UNL     1       6.868   5.349  12.254  1.00  0.00     0.148 C 
ENDBRANCH  32  44
ENDBRANCH  31  32
BRANCH  31  47
HETATM   47  O2  UNL     1       5.949   5.513   8.832  1.00  0.00    -0.390 OA
ATOM     48  H2  UNL     1       6.350   6.303   9.171  1.00  0.00     0.210 HD
ENDBRANCH  31  47
ENDBRANCH  30  31
ENDBRANCH  29  30
ENDBRANCH  27  29
ENDBRANCH  26  27
ENDBRANCH   1  26
BRANCH  23  49
HETATM   49  O8  UNL     1       3.084  -3.057  14.314  1.00  0.00    -0.395 OA
ATOM     50  H8  UNL     1       2.571  -2.264  14.415  1.00  0.00     0.210 HD
ENDBRANCH  23  49
BRANCH  16  51
HETATM   51  O7  UNL     1       8.948  -7.444  16.002  1.00  0.00    -0.395 OA
ATOM     52  H7  UNL     1       8.359  -7.673  15.292  1.00  0.00     0.210 HD
ENDBRANCH  16  51
TORSDOF 16
ENDMDL
