MODEL 1
REMARK VINA RESULT: -9.672868902      0.000      0.000
REMARK  14 active torsions:
REMARK  status: ('A' for Active; 'I' for Inactive)
REMARK    1  A    between atoms: C6_11  and  C7_12 
REMARK    2  A    between atoms: C7_12  and  C8_13 
REMARK    3  A    between atoms: C8_13  and  O2_14 
REMARK    4  A    between atoms: C8_13  and  C9_16 
REMARK    5  A    between atoms: C9_16  and  N3_17 
REMARK    6  A    between atoms: N4_21  and  S1_22 
REMARK    7  A    between atoms: S1_22  and  C13_25 
REMARK       I    between atoms: N5_31  and  C19_32 
REMARK    8  A    between atoms: C19_32  and  C20_34 
REMARK    9  A    between atoms: C20_34  and  C21_35 
REMARK   10  A    between atoms: C21_35  and  C22_36 
REMARK   11  A    between atoms: C22_36  and  C23_37 
REMARK   12  A    between atoms: C23_37  and  C24_38 
REMARK   13  A    between atoms: C24_38  and  C25_39 
REMARK   14  A    between atoms: C25_39  and  C26_40 
ROOT
HETATM    1  N3  UNL     1       3.860  -0.160  13.860  1.00  0.00    -0.390 N 
HETATM    2  C10 UNL     1       2.521   0.028  14.230  1.00  0.00     0.059 C 
HETATM    3  C11 UNL     1       1.667  -0.186  13.001  1.00  0.00     0.060 C 
HETATM    4  C12 UNL     1       1.471   1.169  12.372  1.00  0.00     0.112 C 
HETATM    5  N4  UNL     1       2.520   1.671  11.603  1.00  0.00    -0.205 NA
HETATM    6  C29 UNL     1       3.849   1.481  11.997  1.00  0.00     0.127 C 
HETATM    7  C30 UNL     1       4.246   0.162  12.526  1.00  0.00     0.137 C 
ENDROOT
BRANCH   5   8
HETATM    8  S1  UNL     1       2.278   3.339  11.237  1.00  0.00     0.243 S 
HETATM    9  O3  UNL     1       3.269   4.219  11.947  1.00  0.00    -0.206 OA
HETATM   10  O4  UNL     1       0.910   3.711  11.758  1.00  0.00    -0.206 OA
BRANCH   8  11
HETATM   11  C13 UNL     1       2.330   3.652   9.533  1.00  0.00     0.077 A 
HETATM   12  C14 UNL     1       1.291   3.498   8.661  1.00  0.00     0.028 A 
HETATM   13  C15 UNL     1       1.422   3.786   7.300  1.00  0.00     0.040 A 
HETATM   14  C16 UNL     1       2.617   4.233   6.827  1.00  0.00     0.095 A 
HETATM   15  C17 UNL     1       3.688   4.397   7.699  1.00  0.00     0.072 A 
HETATM   16  O8  UNL     1       2.903   4.565   5.505  1.00  0.00    -0.347 OA
HETATM   17  C18 UNL     1       3.528   4.108   9.023  1.00  0.00     0.057 A 
HETATM   18  N5  UNL     1       4.891   4.859   7.142  1.00  0.00    -0.313 N 
HETATM   19  C19 UNL     1       6.127   4.302   7.502  1.00  0.00     0.224 C 
HETATM   20  C27 UNL     1       4.863   5.916   6.110  1.00  0.00     0.159 C 
HETATM   21  O5  UNL     1       7.145   4.961   7.067  1.00  0.00    -0.273 OA
HETATM   22  C28 UNL     1       3.662   5.729   5.211  1.00  0.00     0.196 C 
BRANCH  19  23
HETATM   23  C20 UNL     1       6.303   3.089   8.289  1.00  0.00     0.103 C 
BRANCH  23  24
HETATM   24  C21 UNL     1       7.279   3.184   9.415  1.00  0.00     0.009 C 
BRANCH  24  25
HETATM   25  C22 UNL     1       6.675   3.582  10.698  1.00  0.00     0.000 C 
BRANCH  25  26
HETATM   26  C23 UNL     1       7.625   3.509  11.889  1.00  0.00     0.001 C 
BRANCH  26  27
HETATM   27  C24 UNL     1       7.383   2.191  12.589  1.00  0.00     0.010 C 
BRANCH  27  28
HETATM   28  C25 UNL     1       8.502   1.249  12.346  1.00  0.00     0.113 C 
BRANCH  28  29
HETATM   29  C26 UNL     1       8.177   0.099  11.510  1.00  0.00     0.172 C 
HETATM   30  O6  UNL     1       7.424  -0.811  11.991  1.00  0.00    -0.648 OA
HETATM   31  O7  UNL     1       8.628  -0.063  10.237  1.00  0.00    -0.648 OA
ENDBRANCH  28  29
ENDBRANCH  27  28
ENDBRANCH  26  27
ENDBRANCH  25  26
ENDBRANCH  24  25
ENDBRANCH  23  24
ENDBRANCH  19  23
ENDBRANCH   8  11
ENDBRANCH   5   8
BRANCH   1  32
HETATM   32  C9  UNL     1       4.854   0.081  14.843  1.00  0.00     0.153 C 
BRANCH  32  33
HETATM   33  C8  UNL     1       5.797  -0.982  15.205  1.00  0.00     0.143 C 
BRANCH  33  34
HETATM   34  C7  UNL     1       5.634  -1.640  16.532  1.00  0.00     0.110 C 
BRANCH  34  35
HETATM   35  C6  UNL     1       6.201  -3.007  16.619  1.00  0.00     0.086 A 
HETATM   36  N2  UNL     1       5.539  -3.993  17.290  1.00  0.00    -0.311 N 
HETATM   37  C5  UNL     1       6.025  -5.241  17.384  1.00  0.00     0.275 A 
ATOM     38  H2  UNL     1       4.647  -3.776  17.734  1.00  0.00     0.170 HD
HETATM   39  C4  UNL     1       7.224  -5.582  16.802  1.00  0.00     0.128 A 
HETATM   40  O1  UNL     1       5.424  -6.165  18.001  1.00  0.00    -0.266 OA
HETATM   41  N1  UNL     1       7.961  -6.706  16.715  1.00  0.00    -0.359 N 
HETATM   42  C31 UNL     1       7.909  -4.596  16.119  1.00  0.00     0.073 A 
HETATM   43  C3  UNL     1       9.083  -6.487  16.009  1.00  0.00     0.097 A 
ATOM     44  H1  UNL     1       7.702  -7.601  17.128  1.00  0.00     0.165 HD
HETATM   45  C2  UNL     1       9.058  -5.171  15.632  1.00  0.00    -0.017 A 
HETATM   46  C1  UNL     1      10.083  -4.472  14.835  1.00  0.00     0.052 C 
HETATM   47  N6  UNL     1       7.368  -3.357  16.059  1.00  0.00    -0.343 N 
ATOM     48  H6  UNL     1       7.884  -2.638  15.551  1.00  0.00     0.167 HD
ENDBRANCH  34  35
ENDBRANCH  33  34
BRANCH  33  49
HETATM   49  O2  UNL     1       7.111  -0.537  15.016  1.00  0.00    -0.394 OA
ATOM     50  H2  UNL     1       7.264  -0.290  14.112  1.00  0.00     0.210 HD
ENDBRANCH  33  49
ENDBRANCH  32  33
ENDBRANCH   1  32
TORSDOF 14
ENDMDL
MODEL 2
REMARK VINA RESULT: -9.478376639      1.072      1.797
REMARK  14 active torsions:
REMARK  status: ('A' for Active; 'I' for Inactive)
REMARK    1  A    between atoms: C6_11  and  C7_12 
REMARK    2  A    between atoms: C7_12  and  C8_13 
REMARK    3  A    between atoms: C8_13  and  O2_14 
REMARK    4  A    between atoms: C8_13  and  C9_16 
REMARK    5  A    between atoms: C9_16  and  N3_17 
REMARK    6  A    between atoms: N4_21  and  S1_22 
REMARK    7  A    between atoms: S1_22  and  C13_25 
REMARK       I    between atoms: N5_31  and  C19_32 
REMARK    8  A    between atoms: C19_32  and  C20_34 
REMARK    9  A    between atoms: C20_34  and  C21_35 
REMARK   10  A    between atoms: C21_35  and  C22_36 
REMARK   11  A    between atoms: C22_36  and  C23_37 
REMARK   12  A    between atoms: C23_37  and  C24_38 
REMARK   13  A    between atoms: C24_38  and  C25_39 
REMARK   14  A    between atoms: C25_39  and  C26_40 
ROOT
HETATM    1  N3  UNL     1       3.811  -0.175  13.886  1.00  0.00    -0.390 N 
HETATM    2  C10 UNL     1       2.443  -0.054  14.167  1.00  0.00     0.059 C 
HETATM    3  C11 UNL     1       1.685  -0.272  12.877  1.00  0.00     0.060 C 
HETATM    4  C12 UNL     1       1.471   1.090  12.268  1.00  0.00     0.112 C 
HETATM    5  N4  UNL     1       2.547   1.657  11.586  1.00  0.00    -0.205 NA
HETATM    6  C29 UNL     1       3.854   1.513  12.065  1.00  0.00     0.127 C 
HETATM    7  C30 UNL     1       4.272   0.198  12.590  1.00  0.00     0.137 C 
ENDROOT
BRANCH   5   8
HETATM    8  S1  UNL     1       2.257   3.323  11.244  1.00  0.00     0.243 S 
HETATM    9  O3  UNL     1       3.272   4.215  11.900  1.00  0.00    -0.206 OA
HETATM   10  O4  UNL     1       0.915   3.669  11.844  1.00  0.00    -0.206 OA
BRANCH   8  11
HETATM   11  C13 UNL     1       2.205   3.644   9.541  1.00  0.00     0.077 A 
HETATM   12  C14 UNL     1       1.109   3.519   8.738  1.00  0.00     0.028 A 
HETATM   13  C15 UNL     1       1.157   3.812   7.372  1.00  0.00     0.040 A 
HETATM   14  C16 UNL     1       2.329   4.233   6.825  1.00  0.00     0.095 A 
HETATM   15  C17 UNL     1       3.459   4.369   7.626  1.00  0.00     0.072 A 
HETATM   16  O8  UNL     1       2.537   4.566   5.488  1.00  0.00    -0.347 OA
HETATM   17  C18 UNL     1       3.378   4.075   8.957  1.00  0.00     0.057 A 
HETATM   18  N5  UNL     1       4.633   4.806   6.994  1.00  0.00    -0.313 N 
HETATM   19  C19 UNL     1       5.876   4.219   7.270  1.00  0.00     0.224 C 
HETATM   20  C27 UNL     1       4.563   5.869   5.970  1.00  0.00     0.159 C 
HETATM   21  O5  UNL     1       6.879   4.857   6.773  1.00  0.00    -0.273 OA
HETATM   22  C28 UNL     1       3.302   5.715   5.150  1.00  0.00     0.196 C 
BRANCH  19  23
HETATM   23  C20 UNL     1       6.075   2.998   8.039  1.00  0.00     0.103 C 
BRANCH  23  24
HETATM   24  C21 UNL     1       7.481   2.500   8.112  1.00  0.00     0.009 C 
BRANCH  24  25
HETATM   25  C22 UNL     1       8.098   2.650   9.441  1.00  0.00     0.000 C 
BRANCH  25  26
HETATM   26  C23 UNL     1       7.337   1.961  10.569  1.00  0.00     0.001 C 
BRANCH  26  27
HETATM   27  C24 UNL     1       7.242   2.936  11.721  1.00  0.00     0.010 C 
BRANCH  27  28
HETATM   28  C25 UNL     1       7.627   4.302  11.290  1.00  0.00     0.113 C 
BRANCH  28  29
HETATM   29  C26 UNL     1       6.613   5.330  11.503  1.00  0.00     0.172 C 
HETATM   30  O6  UNL     1       5.917   5.716  10.506  1.00  0.00    -0.648 OA
HETATM   31  O7  UNL     1       6.360   5.905  12.710  1.00  0.00    -0.648 OA
ENDBRANCH  28  29
ENDBRANCH  27  28
ENDBRANCH  26  27
ENDBRANCH  25  26
ENDBRANCH  24  25
ENDBRANCH  23  24
ENDBRANCH  19  23
ENDBRANCH   8  11
ENDBRANCH   5   8
BRANCH   1  32
HETATM   32  C9  UNL     1       4.725   0.083  14.941  1.00  0.00     0.153 C 
BRANCH  32  33
HETATM   33  C8  UNL     1       5.726  -0.926  15.300  1.00  0.00     0.143 C 
BRANCH  33  34
HETATM   34  C7  UNL     1       5.586  -1.613  16.615  1.00  0.00     0.110 C 
BRANCH  34  35
HETATM   35  C6  UNL     1       6.164  -2.977  16.666  1.00  0.00     0.086 A 
HETATM   36  N2  UNL     1       5.497  -3.993  17.287  1.00  0.00    -0.311 N 
HETATM   37  C5  UNL     1       5.992  -5.239  17.347  1.00  0.00     0.275 A 
ATOM     38  H2  UNL     1       4.594  -3.799  17.720  1.00  0.00     0.170 HD
HETATM   39  C4  UNL     1       7.206  -5.548  16.779  1.00  0.00     0.128 A 
HETATM   40  O1  UNL     1       5.387  -6.189  17.919  1.00  0.00    -0.266 OA
HETATM   41  N1  UNL     1       7.955  -6.662  16.667  1.00  0.00    -0.359 N 
HETATM   42  C31 UNL     1       7.896  -4.533  16.145  1.00  0.00     0.073 A 
HETATM   43  C3  UNL     1       9.089  -6.410  15.993  1.00  0.00     0.097 A 
ATOM     44  H1  UNL     1       7.695  -7.574  17.042  1.00  0.00     0.165 HD
HETATM   45  C2  UNL     1       9.060  -5.081  15.662  1.00  0.00    -0.017 A 
HETATM   46  C1  UNL     1      10.094  -4.346  14.912  1.00  0.00     0.052 C 
HETATM   47  N6  UNL     1       7.345  -3.298  16.118  1.00  0.00    -0.343 N 
ATOM     48  H6  UNL     1       7.865  -2.557  15.647  1.00  0.00     0.167 HD
ENDBRANCH  34  35
ENDBRANCH  33  34
BRANCH  33  49
HETATM   49  O2  UNL     1       7.013  -0.397  15.139  1.00  0.00    -0.394 OA
ATOM     50  H2  UNL     1       7.369  -0.616  14.286  1.00  0.00     0.210 HD
ENDBRANCH  33  49
ENDBRANCH  32  33
ENDBRANCH   1  32
TORSDOF 14
ENDMDL
MODEL 3
REMARK VINA RESULT: -9.454057423      1.128      1.371
REMARK  14 active torsions:
REMARK  status: ('A' for Active; 'I' for Inactive)
REMARK    1  A    between atoms: C6_11  and  C7_12 
REMARK    2  A    between atoms: C7_12  and  C8_13 
REMARK    3  A    between atoms: C8_13  and  O2_14 
REMARK    4  A    between atoms: C8_13  and  C9_16 
REMARK    5  A    between atoms: C9_16  and  N3_17 
REMARK    6  A    between atoms: N4_21  and  S1_22 
REMARK    7  A    between atoms: S1_22  and  C13_25 
REMARK       I    between atoms: N5_31  and  C19_32 
REMARK    8  A    between atoms: C19_32  and  C20_34 
REMARK    9  A    between atoms: C20_34  and  C21_35 
REMARK   10  A    between atoms: C21_35  and  C22_36 
REMARK   11  A    between atoms: C22_36  and  C23_37 
REMARK   12  A    between atoms: C23_37  and  C24_38 
REMARK   13  A    between atoms: C24_38  and  C25_39 
REMARK   14  A    between atoms: C25_39  and  C26_40 
ROOT
HETATM    1  N3  UNL     1       2.907  -0.450  13.399  1.00  0.00    -0.390 N 
HETATM    2  C10 UNL     1       1.630   0.001  13.764  1.00  0.00     0.059 C 
HETATM    3  C11 UNL     1       0.778   0.035  12.516  1.00  0.00     0.060 C 
HETATM    4  C12 UNL     1       0.887   1.431  11.959  1.00  0.00     0.112 C 
HETATM    5  N4  UNL     1       2.036   1.735  11.229  1.00  0.00    -0.205 NA
HETATM    6  C29 UNL     1       3.286   1.247  11.626  1.00  0.00     0.127 C 
HETATM    7  C30 UNL     1       3.382  -0.151  12.089  1.00  0.00     0.137 C 
ENDROOT
BRANCH   5   8
HETATM    8  S1  UNL     1       2.162   3.434  10.951  1.00  0.00     0.243 S 
HETATM    9  O3  UNL     1       3.245   4.059  11.784  1.00  0.00    -0.206 OA
HETATM   10  O4  UNL     1       0.857   4.051  11.393  1.00  0.00    -0.206 OA
BRANCH   8  11
HETATM   11  C13 UNL     1       2.417   3.808   9.278  1.00  0.00     0.077 A 
HETATM   12  C14 UNL     1       1.460   3.813   8.306  1.00  0.00     0.028 A 
HETATM   13  C15 UNL     1       1.756   4.140   6.979  1.00  0.00     0.040 A 
HETATM   14  C16 UNL     1       3.036   4.461   6.645  1.00  0.00     0.095 A 
HETATM   15  C17 UNL     1       4.027   4.462   7.621  1.00  0.00     0.072 A 
HETATM   16  O8  UNL     1       3.487   4.810   5.374  1.00  0.00    -0.347 OA
HETATM   17  C18 UNL     1       3.704   4.140   8.907  1.00  0.00     0.057 A 
HETATM   18  N5  UNL     1       5.324   4.801   7.204  1.00  0.00    -0.313 N 
HETATM   19  C19 UNL     1       6.447   4.088   7.648  1.00  0.00     0.224 C 
HETATM   20  C27 UNL     1       5.518   5.896   6.230  1.00  0.00     0.159 C 
HETATM   21  O5  UNL     1       7.571   4.639   7.346  1.00  0.00    -0.273 OA
HETATM   22  C28 UNL     1       4.399   5.888   5.214  1.00  0.00     0.196 C 
BRANCH  19  23
HETATM   23  C20 UNL     1       6.405   2.832   8.384  1.00  0.00     0.103 C 
BRANCH  23  24
HETATM   24  C21 UNL     1       7.690   2.075   8.446  1.00  0.00     0.009 C 
BRANCH  24  25
HETATM   25  C22 UNL     1       8.200   1.876   9.813  1.00  0.00     0.000 C 
BRANCH  25  26
HETATM   26  C23 UNL     1       8.653   0.450  10.114  1.00  0.00     0.001 C 
BRANCH  26  27
HETATM   27  C24 UNL     1       8.559   0.245  11.609  1.00  0.00     0.010 C 
BRANCH  27  28
HETATM   28  C25 UNL     1       7.172  -0.095  12.010  1.00  0.00     0.113 C 
BRANCH  28  29
HETATM   29  C26 UNL     1       7.033  -1.324  12.784  1.00  0.00     0.172 C 
HETATM   30  O6  UNL     1       7.735  -1.463  13.840  1.00  0.00    -0.648 OA
HETATM   31  O7  UNL     1       6.191  -2.338  12.448  1.00  0.00    -0.648 OA
ENDBRANCH  28  29
ENDBRANCH  27  28
ENDBRANCH  26  27
ENDBRANCH  25  26
ENDBRANCH  24  25
ENDBRANCH  23  24
ENDBRANCH  19  23
ENDBRANCH   8  11
ENDBRANCH   5   8
BRANCH   1  32
HETATM   32  C9  UNL     1       3.908  -0.476  14.404  1.00  0.00     0.153 C 
BRANCH  32  33
HETATM   33  C8  UNL     1       4.090  -1.679  15.222  1.00  0.00     0.143 C 
BRANCH  33  34
HETATM   34  C7  UNL     1       5.187  -1.680  16.231  1.00  0.00     0.110 C 
BRANCH  34  35
HETATM   35  C6  UNL     1       5.839  -2.995  16.436  1.00  0.00     0.086 A 
HETATM   36  N2  UNL     1       5.211  -3.982  17.138  1.00  0.00    -0.311 N 
HETATM   37  C5  UNL     1       5.774  -5.184  17.337  1.00  0.00     0.275 A 
ATOM     38  H2  UNL     1       4.284  -3.801  17.524  1.00  0.00     0.170 HD
HETATM   39  C4  UNL     1       7.021  -5.475  16.837  1.00  0.00     0.128 A 
HETATM   40  O1  UNL     1       5.205  -6.108  17.986  1.00  0.00    -0.266 OA
HETATM   41  N1  UNL     1       7.836  -6.548  16.859  1.00  0.00    -0.359 N 
HETATM   42  C31 UNL     1       7.673  -4.489  16.123  1.00  0.00     0.073 A 
HETATM   43  C3  UNL     1       8.976  -6.296  16.195  1.00  0.00     0.097 A 
ATOM     44  H1  UNL     1       7.616  -7.432  17.318  1.00  0.00     0.165 HD
HETATM   45  C2  UNL     1       8.882  -5.011  15.730  1.00  0.00    -0.017 A 
HETATM   46  C1  UNL     1       9.897  -4.294  14.939  1.00  0.00     0.052 C 
HETATM   47  N6  UNL     1       7.054  -3.297  15.955  1.00  0.00    -0.343 N 
ATOM     48  H6  UNL     1       7.546  -2.577  15.426  1.00  0.00     0.167 HD
ENDBRANCH  34  35
ENDBRANCH  33  34
BRANCH  33  49
HETATM   49  O2  UNL     1       4.157  -2.808  14.398  1.00  0.00    -0.394 OA
ATOM     50  H2  UNL     1       4.169  -3.608  14.911  1.00  0.00     0.210 HD
ENDBRANCH  33  49
ENDBRANCH  32  33
ENDBRANCH   1  32
TORSDOF 14
ENDMDL
MODEL 4
REMARK VINA RESULT: -9.409469568      2.413     11.018
REMARK  14 active torsions:
REMARK  status: ('A' for Active; 'I' for Inactive)
REMARK    1  A    between atoms: C6_11  and  C7_12 
REMARK    2  A    between atoms: C7_12  and  C8_13 
REMARK    3  A    between atoms: C8_13  and  O2_14 
REMARK    4  A    between atoms: C8_13  and  C9_16 
REMARK    5  A    between atoms: C9_16  and  N3_17 
REMARK    6  A    between atoms: N4_21  and  S1_22 
REMARK    7  A    between atoms: S1_22  and  C13_25 
REMARK       I    between atoms: N5_31  and  C19_32 
REMARK    8  A    between atoms: C19_32  and  C20_34 
REMARK    9  A    between atoms: C20_34  and  C21_35 
REMARK   10  A    between atoms: C21_35  and  C22_36 
REMARK   11  A    between atoms: C22_36  and  C23_37 
REMARK   12  A    between atoms: C23_37  and  C24_38 
REMARK   13  A    between atoms: C24_38  and  C25_39 
REMARK   14  A    between atoms: C25_39  and  C26_40 
ROOT
HETATM    1  N3  UNL     1       6.884   2.655  10.398  1.00  0.00    -0.390 N 
HETATM    2  C10 UNL     1       8.169   2.109  10.526  1.00  0.00     0.059 C 
HETATM    3  C11 UNL     1       8.032   0.604  10.537  1.00  0.00     0.060 C 
HETATM    4  C12 UNL     1       7.934   0.190  11.982  1.00  0.00     0.112 C 
HETATM    5  N4  UNL     1       6.697   0.346  12.606  1.00  0.00    -0.205 NA
HETATM    6  C29 UNL     1       5.899   1.465  12.341  1.00  0.00     0.127 C 
HETATM    7  C30 UNL     1       5.784   1.935  10.947  1.00  0.00     0.137 C 
ENDROOT
BRANCH   5   8
HETATM    8  S1  UNL     1       6.834   0.147  14.314  1.00  0.00     0.243 S 
HETATM    9  O3  UNL     1       5.616   0.652  15.036  1.00  0.00    -0.206 OA
HETATM   10  O4  UNL     1       7.996   0.998  14.766  1.00  0.00    -0.206 OA
BRANCH   8  11
HETATM   11  C13 UNL     1       7.142  -1.499  14.761  1.00  0.00     0.077 A 
HETATM   12  C14 UNL     1       8.359  -2.115  14.748  1.00  0.00     0.028 A 
HETATM   13  C15 UNL     1       8.516  -3.449  15.137  1.00  0.00     0.040 A 
HETATM   14  C16 UNL     1       7.425  -4.155  15.540  1.00  0.00     0.095 A 
HETATM   15  C17 UNL     1       6.174  -3.546  15.561  1.00  0.00     0.072 A 
HETATM   16  O8  UNL     1       7.417  -5.484  15.959  1.00  0.00    -0.347 OA
HETATM   17  C18 UNL     1       6.056  -2.242  15.176  1.00  0.00     0.057 A 
HETATM   18  N5  UNL     1       5.094  -4.334  15.985  1.00  0.00    -0.313 N 
HETATM   19  C19 UNL     1       3.860  -4.307  15.320  1.00  0.00     0.224 C 
HETATM   20  C27 UNL     1       5.265  -5.263  17.123  1.00  0.00     0.159 C 
HETATM   21  O5  UNL     1       2.914  -4.922  15.942  1.00  0.00    -0.273 OA
HETATM   22  C28 UNL     1       6.649  -5.870  17.090  1.00  0.00     0.196 C 
BRANCH  19  23
HETATM   23  C20 UNL     1       3.613  -3.661  14.037  1.00  0.00     0.103 C 
BRANCH  23  24
HETATM   24  C21 UNL     1       2.854  -2.377  14.095  1.00  0.00     0.009 C 
BRANCH  24  25
HETATM   25  C22 UNL     1       3.279  -1.387  13.091  1.00  0.00     0.000 C 
BRANCH  25  26
HETATM   26  C23 UNL     1       2.596  -0.028  13.220  1.00  0.00     0.001 C 
BRANCH  26  27
HETATM   27  C24 UNL     1       2.101   0.368  11.847  1.00  0.00     0.010 C 
BRANCH  27  28
HETATM   28  C25 UNL     1       0.947   1.294  11.947  1.00  0.00     0.113 C 
BRANCH  28  29
HETATM   29  C26 UNL     1       1.279   2.713  11.871  1.00  0.00     0.172 C 
HETATM   30  O6  UNL     1       0.331   3.565  11.925  1.00  0.00    -0.648 OA
HETATM   31  O7  UNL     1       2.548   3.187  11.747  1.00  0.00    -0.648 OA
ENDBRANCH  28  29
ENDBRANCH  27  28
ENDBRANCH  26  27
ENDBRANCH  25  26
ENDBRANCH  24  25
ENDBRANCH  23  24
ENDBRANCH  19  23
ENDBRANCH   8  11
ENDBRANCH   5   8
BRANCH   1  32
HETATM   32  C9  UNL     1       6.761   4.068  10.457  1.00  0.00     0.153 C 
BRANCH  32  33
HETATM   33  C8  UNL     1       5.479   4.702  10.135  1.00  0.00     0.143 C 
BRANCH  33  34
HETATM   34  C7  UNL     1       5.176   4.982   8.703  1.00  0.00     0.110 C 
BRANCH  34  35
HETATM   35  C6  UNL     1       3.742   4.881   8.342  1.00  0.00     0.086 A 
HETATM   36  N2  UNL     1       3.043   3.733   8.579  1.00  0.00    -0.311 N 
HETATM   37  C5  UNL     1       1.743   3.613   8.267  1.00  0.00     0.275 A 
ATOM     38  H2  UNL     1       3.523   2.942   9.008  1.00  0.00     0.170 HD
HETATM   39  C4  UNL     1       1.053   4.652   7.687  1.00  0.00     0.128 A 
HETATM   40  O1  UNL     1       1.083   2.557   8.480  1.00  0.00    -0.266 OA
HETATM   41  N1  UNL     1      -0.212   4.846   7.268  1.00  0.00    -0.359 N 
HETATM   42  C31 UNL     1       1.744   5.822   7.440  1.00  0.00     0.073 A 
HETATM   43  C3  UNL     1      -0.365   6.082   6.765  1.00  0.00     0.097 A 
ATOM     44  H1  UNL     1      -0.954   4.149   7.326  1.00  0.00     0.165 HD
HETATM   45  C2  UNL     1       0.853   6.700   6.869  1.00  0.00    -0.017 A 
HETATM   46  C1  UNL     1       1.172   8.075   6.447  1.00  0.00     0.052 C 
HETATM   47  N6  UNL     1       3.053   5.883   7.778  1.00  0.00    -0.343 N 
ATOM     48  H6  UNL     1       3.551   6.753   7.589  1.00  0.00     0.167 HD
ENDBRANCH  34  35
ENDBRANCH  33  34
BRANCH  33  49
HETATM   49  O2  UNL     1       5.303   5.846  10.923  1.00  0.00    -0.394 OA
ATOM     50  H2  UNL     1       5.788   5.781  11.737  1.00  0.00     0.210 HD
ENDBRANCH  33  49
ENDBRANCH  32  33
ENDBRANCH   1  32
TORSDOF 14
ENDMDL
MODEL 5
REMARK VINA RESULT: -9.406260979      1.295      1.901
REMARK  14 active torsions:
REMARK  status: ('A' for Active; 'I' for Inactive)
REMARK    1  A    between atoms: C6_11  and  C7_12 
REMARK    2  A    between atoms: C7_12  and  C8_13 
REMARK    3  A    between atoms: C8_13  and  O2_14 
REMARK    4  A    between atoms: C8_13  and  C9_16 
REMARK    5  A    between atoms: C9_16  and  N3_17 
REMARK    6  A    between atoms: N4_21  and  S1_22 
REMARK    7  A    between atoms: S1_22  and  C13_25 
REMARK       I    between atoms: N5_31  and  C19_32 
REMARK    8  A    between atoms: C19_32  and  C20_34 
REMARK    9  A    between atoms: C20_34  and  C21_35 
REMARK   10  A    between atoms: C21_35  and  C22_36 
REMARK   11  A    between atoms: C22_36  and  C23_37 
REMARK   12  A    between atoms: C23_37  and  C24_38 
REMARK   13  A    between atoms: C24_38  and  C25_39 
REMARK   14  A    between atoms: C25_39  and  C26_40 
ROOT
HETATM    1  N3  UNL     1       3.155  -0.377  13.512  1.00  0.00    -0.390 N 
HETATM    2  C10 UNL     1       1.847   0.001  13.848  1.00  0.00     0.059 C 
HETATM    3  C11 UNL     1       1.016  -0.037  12.586  1.00  0.00     0.060 C 
HETATM    4  C12 UNL     1       1.050   1.354  12.006  1.00  0.00     0.112 C 
HETATM    5  N4  UNL     1       2.191   1.715  11.291  1.00  0.00    -0.205 NA
HETATM    6  C29 UNL     1       3.461   1.310  11.716  1.00  0.00     0.127 C 
HETATM    7  C30 UNL     1       3.633  -0.072  12.204  1.00  0.00     0.137 C 
ENDROOT
BRANCH   5   8
HETATM    8  S1  UNL     1       2.219   3.413  10.985  1.00  0.00     0.243 S 
HETATM    9  O3  UNL     1       3.281   4.110  11.789  1.00  0.00    -0.206 OA
HETATM   10  O4  UNL     1       0.890   3.966  11.442  1.00  0.00    -0.206 OA
BRANCH   8  11
HETATM   11  C13 UNL     1       2.423   3.774   9.302  1.00  0.00     0.077 A 
HETATM   12  C14 UNL     1       1.435   3.780   8.361  1.00  0.00     0.028 A 
HETATM   13  C15 UNL     1       1.692   4.096   7.023  1.00  0.00     0.040 A 
HETATM   14  C16 UNL     1       2.962   4.405   6.646  1.00  0.00     0.095 A 
HETATM   15  C17 UNL     1       3.984   4.406   7.590  1.00  0.00     0.072 A 
HETATM   16  O8  UNL     1       3.375   4.743   5.359  1.00  0.00    -0.347 OA
HETATM   17  C18 UNL     1       3.700   4.094   8.888  1.00  0.00     0.057 A 
HETATM   18  N5  UNL     1       5.269   4.732   7.130  1.00  0.00    -0.313 N 
HETATM   19  C19 UNL     1       6.400   4.015   7.543  1.00  0.00     0.224 C 
HETATM   20  C27 UNL     1       5.440   5.819   6.143  1.00  0.00     0.159 C 
HETATM   21  O5  UNL     1       7.518   4.556   7.201  1.00  0.00    -0.273 OA
HETATM   22  C28 UNL     1       4.289   5.813   5.163  1.00  0.00     0.196 C 
BRANCH  19  23
HETATM   23  C20 UNL     1       6.373   2.763   8.289  1.00  0.00     0.103 C 
BRANCH  23  24
HETATM   24  C21 UNL     1       7.636   1.968   8.265  1.00  0.00     0.009 C 
BRANCH  24  25
HETATM   25  C22 UNL     1       8.152   1.626   9.602  1.00  0.00     0.000 C 
BRANCH  25  26
HETATM   26  C23 UNL     1       7.672   2.554  10.715  1.00  0.00     0.001 C 
BRANCH  26  27
HETATM   27  C24 UNL     1       7.220   1.688  11.869  1.00  0.00     0.010 C 
BRANCH  27  28
HETATM   28  C25 UNL     1       7.492   0.256  11.595  1.00  0.00     0.113 C 
BRANCH  28  29
HETATM   29  C26 UNL     1       7.282  -0.644  12.724  1.00  0.00     0.172 C 
HETATM   30  O6  UNL     1       7.632  -0.255  13.887  1.00  0.00    -0.648 OA
HETATM   31  O7  UNL     1       6.729  -1.882  12.612  1.00  0.00    -0.648 OA
ENDBRANCH  28  29
ENDBRANCH  27  28
ENDBRANCH  26  27
ENDBRANCH  25  26
ENDBRANCH  24  25
ENDBRANCH  23  24
ENDBRANCH  19  23
ENDBRANCH   8  11
ENDBRANCH   5   8
BRANCH   1  32
HETATM   32  C9  UNL     1       4.138  -0.326  14.533  1.00  0.00     0.153 C 
BRANCH  32  33
HETATM   33  C8  UNL     1       4.408  -1.515  15.347  1.00  0.00     0.143 C 
BRANCH  33  34
HETATM   34  C7  UNL     1       5.419  -1.404  16.436  1.00  0.00     0.110 C 
BRANCH  34  35
HETATM   35  C6  UNL     1       6.399  -2.515  16.487  1.00  0.00     0.086 A 
HETATM   36  N2  UNL     1       7.537  -2.475  15.734  1.00  0.00    -0.311 N 
HETATM   37  C5  UNL     1       8.444  -3.463  15.762  1.00  0.00     0.275 A 
ATOM     38  H2  UNL     1       7.703  -1.669  15.132  1.00  0.00     0.170 HD
HETATM   39  C4  UNL     1       8.264  -4.571  16.557  1.00  0.00     0.128 A 
HETATM   40  O1  UNL     1       9.502  -3.441  15.070  1.00  0.00    -0.266 OA
HETATM   41  N1  UNL     1       8.962  -5.696  16.805  1.00  0.00    -0.359 N 
HETATM   42  C31 UNL     1       7.119  -4.629  17.327  1.00  0.00     0.073 A 
HETATM   43  C3  UNL     1       8.319  -6.470  17.695  1.00  0.00     0.097 A 
ATOM     44  H1  UNL     1       9.858  -5.928  16.376  1.00  0.00     0.165 HD
HETATM   45  C2  UNL     1       7.166  -5.810  18.027  1.00  0.00    -0.017 A 
HETATM   46  C1  UNL     1       6.138  -6.274  18.976  1.00  0.00     0.052 C 
HETATM   47  N6  UNL     1       6.241  -3.601  17.257  1.00  0.00    -0.343 N 
ATOM     48  H6  UNL     1       5.399  -3.657  17.830  1.00  0.00     0.167 HD
ENDBRANCH  34  35
ENDBRANCH  33  34
BRANCH  33  49
HETATM   49  O2  UNL     1       4.676  -2.610  14.516  1.00  0.00    -0.394 OA
ATOM     50  H2  UNL     1       5.388  -3.136  14.859  1.00  0.00     0.210 HD
ENDBRANCH  33  49
ENDBRANCH  32  33
ENDBRANCH   1  32
TORSDOF 14
ENDMDL
