MODEL 1
REMARK VINA RESULT: -8.036000858      0.000      0.000
REMARK  17 active torsions:
REMARK  status: ('A' for Active; 'I' for Inactive)
REMARK    1  A    between atoms: C2_2  and  C3_3 
REMARK    2  A    between atoms: C3_3  and  C4_4 
REMARK    3  A    between atoms: C3_3  and  C6_6 
REMARK    4  A    between atoms: C10_13  and  C11_14 
REMARK    5  A    between atoms: C11_14  and  C12_15 
REMARK    6  A    between atoms: C15_21  and  O2_22 
REMARK    7  A    between atoms: C16_26  and  C17_27 
REMARK    8  A    between atoms: C20_30  and  O3_31 
REMARK    9  A    between atoms: C21_35  and  C22_36 
REMARK   10  A    between atoms: C22_36  and  C23_37 
REMARK   11  A    between atoms: C23_37  and  C24_38 
REMARK   12  A    between atoms: C24_38  and  C25_39 
REMARK   13  A    between atoms: C25_39  and  S2_40 
REMARK   14  A    between atoms: C27_44  and  O6_45 
REMARK   15  A    between atoms: C28_49  and  C29_50 
REMARK   16  A    between atoms: C29_50  and  C30_51 
REMARK   17  A    between atoms: C30_51  and  O7_53 
ROOT
HETATM    1  C6  UNL     1       6.725   3.040  11.390  1.00  0.00     0.013 C 
HETATM    2  C7  UNL     1       7.616   2.703  12.610  1.00  0.00     0.016 C 
HETATM    3  C8  UNL     1       7.746   1.254  12.934  1.00  0.00     0.103 C 
HETATM    4  C9  UNL     1       7.657   0.978  14.432  1.00  0.00     0.222 C 
HETATM    5  O1  UNL     1       7.449   2.004  15.133  1.00  0.00    -0.273 OA
HETATM    6  N1  UNL     1       7.814  -0.326  14.791  1.00  0.00    -0.327 N 
ATOM      7  H1  UNL     1       8.780  -0.542  14.543  1.00  0.00     0.168 HD
HETATM    8  C10 UNL     1       7.375  -1.383  15.267  1.00  0.00     0.068 C 
HETATM    9  C15 UNL     1       6.070  -1.731  15.827  1.00  0.00     0.160 C 
HETATM   10  N3  UNL     1       4.744  -1.752  15.440  1.00  0.00    -0.357 N 
ATOM     11  H3  UNL     1       4.293  -2.586  15.815  1.00  0.00     0.162 HD
HETATM   12  C16 UNL     1       3.798  -0.997  14.696  1.00  0.00     0.161 C 
HETATM   13  C20 UNL     1       3.933   0.437  14.569  1.00  0.00     0.135 C 
HETATM   14  N4  UNL     1       4.004   1.326  13.525  1.00  0.00    -0.361 N 
ATOM     15  H4  UNL     1       4.765   1.992  13.658  1.00  0.00     0.162 HD
HETATM   16  C21 UNL     1       3.320   1.570  12.329  1.00  0.00     0.157 C 
HETATM   17  C27 UNL     1       4.061   1.417  11.059  1.00  0.00     0.135 C 
HETATM   18  N5  UNL     1       5.332   1.143  10.661  1.00  0.00    -0.368 N 
ATOM     19  H5  UNL     1       5.442   0.166  10.393  1.00  0.00     0.161 HD
HETATM   20  C28 UNL     1       6.594   1.897  10.519  1.00  0.00     0.090 C 
ENDROOT
BRANCH  16  21
HETATM   21  C22 UNL     1       2.685   2.973  12.263  1.00  0.00     0.033 C 
BRANCH  21  22
HETATM   22  C23 UNL     1       1.248   2.880  11.830  1.00  0.00     0.003 C 
BRANCH  22  23
HETATM   23  C24 UNL     1       0.849   3.907  10.814  1.00  0.00     0.015 C 
BRANCH  23  24
HETATM   24  C25 UNL     1       0.259   3.286   9.577  1.00  0.00     0.140 C 
BRANCH  24  25
HETATM   25  S2  UNL     1       1.048   4.058   8.163  1.00  0.00     0.140 S 
HETATM   26  C26 UNL     1      -0.182   4.564   7.001  1.00  0.00     0.161 C 
HETATM   27  O4  UNL     1       1.793   5.269   8.683  1.00  0.00    -0.228 OA
HETATM   28  O5  UNL     1       1.997   3.078   7.542  1.00  0.00    -0.228 OA
ENDBRANCH  24  25
ENDBRANCH  23  24
ENDBRANCH  22  23
ENDBRANCH  21  22
ENDBRANCH  16  21
BRANCH  17  29
HETATM   29  O6  UNL     1       3.197   1.610  10.088  1.00  0.00    -0.348 OA
ATOM     30  H6  UNL     1       3.633   1.372   9.279  1.00  0.00     0.219 HD
ENDBRANCH  17  29
BRANCH  13  31
HETATM   31  O3  UNL     1       4.000   0.986  15.756  1.00  0.00    -0.348 OA
ATOM     32  H3  UNL     1       3.486   1.785  15.773  1.00  0.00     0.219 HD
ENDBRANCH  13  31
BRANCH  12  33
HETATM   33  C17 UNL     1       3.553  -1.741  13.395  1.00  0.00     0.008 C 
HETATM   34  C18 UNL     1       3.203  -3.181  13.861  1.00  0.00     0.012 C 
HETATM   35  C19 UNL     1       4.788  -1.900  12.577  1.00  0.00     0.012 C 
ENDBRANCH  12  33
BRANCH  20  36
HETATM   36  C29 UNL     1       6.839   2.071   9.028  1.00  0.00     0.056 C 
BRANCH  36  37
HETATM   37  C30 UNL     1       7.953   1.202   8.481  1.00  0.00     0.116 C 
HETATM   38  C31 UNL     1       8.698   0.425   9.501  1.00  0.00     0.039 C 
BRANCH  37  39
HETATM   39  O7  UNL     1       7.649   0.534   7.309  1.00  0.00    -0.396 OA
ATOM     40  H7  UNL     1       8.325   0.569   6.642  1.00  0.00     0.210 HD
ENDBRANCH  37  39
ENDBRANCH  36  37
ENDBRANCH  20  36
BRANCH   1  41
HETATM   41  C3  UNL     1       7.235   4.372  10.915  1.00  0.00    -0.009 C 
BRANCH  41  42
HETATM   42  C2  UNL     1       6.392   5.256  10.123  1.00  0.00     0.000 C 
HETATM   43  C1  UNL     1       4.921   5.098  10.098  1.00  0.00     0.005 C 
ENDBRANCH  41  42
BRANCH  41  44
HETATM   44  C4  UNL     1       7.836   5.154  12.077  1.00  0.00     0.000 C 
HETATM   45  C5  UNL     1       8.804   6.210  11.787  1.00  0.00     0.005 C 
ENDBRANCH  41  44
ENDBRANCH   1  41
BRANCH   9  46
HETATM   46  O2  UNL     1       6.248  -2.148  17.068  1.00  0.00    -0.345 OA
ATOM     47  H2  UNL     1       6.027  -3.071  17.108  1.00  0.00     0.219 HD
ENDBRANCH   9  46
BRANCH   8  48
HETATM   48  C11 UNL     1       8.488  -2.445  15.238  1.00  0.00     0.119 C 
BRANCH  48  49
HETATM   49  C12 UNL     1       8.006  -3.755  15.796  1.00  0.00     0.021 A 
HETATM   50  C13 UNL     1       8.692  -4.374  16.820  1.00  0.00     0.076 A 
HETATM   51  S1  UNL     1       7.757  -5.789  17.064  1.00  0.00    -0.095 SA
HETATM   52  C14 UNL     1       6.570  -5.516  15.870  1.00  0.00     0.138 A 
HETATM   53  N2  UNL     1       6.950  -4.360  15.350  1.00  0.00    -0.363 N 
ATOM     54  H2  UNL     1       6.409  -3.942  14.593  1.00  0.00     0.165 HD
ENDBRANCH  48  49
ENDBRANCH   8  48
TORSDOF 17
ENDMDL
MODEL 2
REMARK VINA RESULT: -7.746516823      4.360      8.972
REMARK  17 active torsions:
REMARK  status: ('A' for Active; 'I' for Inactive)
REMARK    1  A    between atoms: C2_2  and  C3_3 
REMARK    2  A    between atoms: C3_3  and  C4_4 
REMARK    3  A    between atoms: C3_3  and  C6_6 
REMARK    4  A    between atoms: C10_13  and  C11_14 
REMARK    5  A    between atoms: C11_14  and  C12_15 
REMARK    6  A    between atoms: C15_21  and  O2_22 
REMARK    7  A    between atoms: C16_26  and  C17_27 
REMARK    8  A    between atoms: C20_30  and  O3_31 
REMARK    9  A    between atoms: C21_35  and  C22_36 
REMARK   10  A    between atoms: C22_36  and  C23_37 
REMARK   11  A    between atoms: C23_37  and  C24_38 
REMARK   12  A    between atoms: C24_38  and  C25_39 
REMARK   13  A    between atoms: C25_39  and  S2_40 
REMARK   14  A    between atoms: C27_44  and  O6_45 
REMARK   15  A    between atoms: C28_49  and  C29_50 
REMARK   16  A    between atoms: C29_50  and  C30_51 
REMARK   17  A    between atoms: C30_51  and  O7_53 
ROOT
HETATM    1  C6  UNL     1       6.760   2.329  10.593  1.00  0.00     0.013 C 
HETATM    2  C7  UNL     1       7.363   1.543   9.403  1.00  0.00     0.016 C 
HETATM    3  C8  UNL     1       8.071   2.364   8.379  1.00  0.00     0.103 C 
HETATM    4  C9  UNL     1       7.746   1.930   6.953  1.00  0.00     0.222 C 
HETATM    5  O1  UNL     1       6.911   0.989   6.878  1.00  0.00    -0.273 OA
HETATM    6  N1  UNL     1       8.399   2.617   5.976  1.00  0.00    -0.327 N 
ATOM      7  H1  UNL     1       9.380   2.370   6.106  1.00  0.00     0.168 HD
HETATM    8  C10 UNL     1       8.403   3.391   5.007  1.00  0.00     0.068 C 
HETATM    9  C15 UNL     1       7.320   4.081   4.308  1.00  0.00     0.160 C 
HETATM   10  N3  UNL     1       6.305   4.976   4.586  1.00  0.00    -0.357 N 
ATOM     11  H3  UNL     1       6.221   5.644   3.820  1.00  0.00     0.162 HD
HETATM   12  C16 UNL     1       5.340   5.277   5.584  1.00  0.00     0.161 C 
HETATM   13  C20 UNL     1       4.814   4.237   6.439  1.00  0.00     0.135 C 
HETATM   14  N4  UNL     1       4.721   4.036   7.795  1.00  0.00    -0.361 N 
ATOM     15  H4  UNL     1       5.019   3.095   8.050  1.00  0.00     0.162 HD
HETATM   16  C21 UNL     1       4.331   4.767   8.922  1.00  0.00     0.157 C 
HETATM   17  C27 UNL     1       5.351   5.057   9.952  1.00  0.00     0.135 C 
HETATM   18  N5  UNL     1       6.655   4.757  10.189  1.00  0.00    -0.368 N 
ATOM     19  H5  UNL     1       7.275   5.519   9.916  1.00  0.00     0.161 HD
HETATM   20  C28 UNL     1       7.406   3.611  10.741  1.00  0.00     0.090 C 
ENDROOT
BRANCH  16  21
HETATM   21  C22 UNL     1       3.152   4.131   9.686  1.00  0.00     0.033 C 
BRANCH  21  22
HETATM   22  C23 UNL     1       1.845   4.515   9.049  1.00  0.00     0.003 C 
BRANCH  22  23
HETATM   23  C24 UNL     1       0.838   3.405   9.006  1.00  0.00     0.015 C 
BRANCH  23  24
HETATM   24  C25 UNL     1       1.229   2.247   9.883  1.00  0.00     0.140 C 
BRANCH  24  25
HETATM   25  S2  UNL     1       0.113   2.241  11.288  1.00  0.00     0.140 S 
HETATM   26  C26 UNL     1       0.428   0.821  12.290  1.00  0.00     0.161 C 
HETATM   27  O4  UNL     1       0.395   3.500  12.079  1.00  0.00    -0.228 OA
HETATM   28  O5  UNL     1      -1.299   2.236  10.786  1.00  0.00    -0.228 OA
ENDBRANCH  24  25
ENDBRANCH  23  24
ENDBRANCH  22  23
ENDBRANCH  21  22
ENDBRANCH  16  21
BRANCH  17  29
HETATM   29  O6  UNL     1       4.775   5.818  10.854  1.00  0.00    -0.348 OA
ATOM     30  H6  UNL     1       5.418   5.972  11.536  1.00  0.00     0.219 HD
ENDBRANCH  17  29
BRANCH  13  31
HETATM   31  O3  UNL     1       4.312   3.271   5.711  1.00  0.00    -0.348 OA
ATOM     32  H3  UNL     1       4.084   2.533   6.264  1.00  0.00     0.219 HD
ENDBRANCH  13  31
BRANCH  12  33
HETATM   33  C17 UNL     1       5.811   6.529   6.303  1.00  0.00     0.008 C 
HETATM   34  C18 UNL     1       6.000   7.558   5.154  1.00  0.00     0.012 C 
HETATM   35  C19 UNL     1       7.167   6.378   6.900  1.00  0.00     0.012 C 
ENDBRANCH  12  33
BRANCH  20  36
HETATM   36  C29 UNL     1       7.909   4.031  12.113  1.00  0.00     0.056 C 
BRANCH  36  37
HETATM   37  C30 UNL     1       8.087   5.526  12.273  1.00  0.00     0.116 C 
HETATM   38  C31 UNL     1       8.863   6.183  11.193  1.00  0.00     0.039 C 
BRANCH  37  39
HETATM   39  O7  UNL     1       6.964   6.204  12.714  1.00  0.00    -0.396 OA
ATOM     40  H7  UNL     1       7.132   6.877  13.363  1.00  0.00     0.210 HD
ENDBRANCH  37  39
ENDBRANCH  36  37
ENDBRANCH  20  36
BRANCH   1  41
HETATM   41  C3  UNL     1       6.687   1.319  11.704  1.00  0.00    -0.009 C 
BRANCH  41  42
HETATM   42  C2  UNL     1       5.421   0.698  12.067  1.00  0.00     0.000 C 
HETATM   43  C1  UNL     1       4.159   1.470  12.075  1.00  0.00     0.005 C 
ENDBRANCH  41  42
BRANCH  41  44
HETATM   44  C4  UNL     1       7.744   0.238  11.509  1.00  0.00     0.000 C 
HETATM   45  C5  UNL     1       7.825  -0.848  12.483  1.00  0.00     0.005 C 
ENDBRANCH  41  44
ENDBRANCH   1  41
BRANCH   9  46
HETATM   46  O2  UNL     1       7.352   3.723   3.036  1.00  0.00    -0.345 OA
ATOM     47  H2  UNL     1       8.009   4.247   2.594  1.00  0.00     0.219 HD
ENDBRANCH   9  46
BRANCH   8  48
HETATM   48  C11 UNL     1       9.850   3.572   4.517  1.00  0.00     0.119 C 
BRANCH  48  49
HETATM   49  C12 UNL     1      10.356   4.957   4.809  1.00  0.00     0.021 A 
HETATM   50  C13 UNL     1      10.583   5.850   3.783  1.00  0.00     0.076 A 
HETATM   51  S1  UNL     1      11.141   7.228   4.634  1.00  0.00    -0.095 SA
HETATM   52  C14 UNL     1      11.056   6.598   6.217  1.00  0.00     0.138 A 
HETATM   53  N2  UNL     1      10.605   5.371   6.011  1.00  0.00    -0.363 N 
ATOM     54  H2  UNL     1      10.453   4.747   6.804  1.00  0.00     0.165 HD
ENDBRANCH  48  49
ENDBRANCH   8  48
TORSDOF 17
ENDMDL
MODEL 3
REMARK VINA RESULT: -7.714357428      4.076      8.870
REMARK  17 active torsions:
REMARK  status: ('A' for Active; 'I' for Inactive)
REMARK    1  A    between atoms: C2_2  and  C3_3 
REMARK    2  A    between atoms: C3_3  and  C4_4 
REMARK    3  A    between atoms: C3_3  and  C6_6 
REMARK    4  A    between atoms: C10_13  and  C11_14 
REMARK    5  A    between atoms: C11_14  and  C12_15 
REMARK    6  A    between atoms: C15_21  and  O2_22 
REMARK    7  A    between atoms: C16_26  and  C17_27 
REMARK    8  A    between atoms: C20_30  and  O3_31 
REMARK    9  A    between atoms: C21_35  and  C22_36 
REMARK   10  A    between atoms: C22_36  and  C23_37 
REMARK   11  A    between atoms: C23_37  and  C24_38 
REMARK   12  A    between atoms: C24_38  and  C25_39 
REMARK   13  A    between atoms: C25_39  and  S2_40 
REMARK   14  A    between atoms: C27_44  and  O6_45 
REMARK   15  A    between atoms: C28_49  and  C29_50 
REMARK   16  A    between atoms: C29_50  and  C30_51 
REMARK   17  A    between atoms: C30_51  and  O7_53 
ROOT
HETATM    1  C6  UNL     1       6.890   2.161  10.450  1.00  0.00     0.013 C 
HETATM    2  C7  UNL     1       7.513   1.611   9.144  1.00  0.00     0.016 C 
HETATM    3  C8  UNL     1       7.899   2.636   8.133  1.00  0.00     0.103 C 
HETATM    4  C9  UNL     1       7.519   2.229   6.712  1.00  0.00     0.222 C 
HETATM    5  O1  UNL     1       6.911   1.128   6.637  1.00  0.00    -0.273 OA
HETATM    6  N1  UNL     1       7.889   3.108   5.740  1.00  0.00    -0.327 N 
ATOM      7  H1  UNL     1       8.908   3.085   5.753  1.00  0.00     0.168 HD
HETATM    8  C10 UNL     1       7.610   3.921   4.846  1.00  0.00     0.068 C 
HETATM    9  C15 UNL     1       6.329   4.387   4.317  1.00  0.00     0.160 C 
HETATM   10  N3  UNL     1       5.179   5.005   4.769  1.00  0.00    -0.357 N 
ATOM     11  H3  UNL     1       4.862   5.683   4.075  1.00  0.00     0.162 HD
HETATM   12  C16 UNL     1       4.291   5.013   5.877  1.00  0.00     0.161 C 
HETATM   13  C20 UNL     1       4.109   3.828   6.686  1.00  0.00     0.135 C 
HETATM   14  N4  UNL     1       4.218   3.526   8.022  1.00  0.00    -0.361 N 
ATOM     15  H4  UNL     1       4.745   2.665   8.164  1.00  0.00     0.162 HD
HETATM   16  C21 UNL     1       3.807   4.076   9.240  1.00  0.00     0.157 C 
HETATM   17  C27 UNL     1       4.847   4.527  10.188  1.00  0.00     0.135 C 
HETATM   18  N5  UNL     1       6.204   4.521  10.272  1.00  0.00    -0.368 N 
ATOM     19  H5  UNL     1       6.603   5.421  10.007  1.00  0.00     0.161 HD
HETATM   20  C28 UNL     1       7.248   3.546  10.647  1.00  0.00     0.090 C 
ENDROOT
BRANCH  16  21
HETATM   21  C22 UNL     1       2.893   3.139  10.056  1.00  0.00     0.033 C 
BRANCH  21  22
HETATM   22  C23 UNL     1       1.531   3.052   9.424  1.00  0.00     0.003 C 
BRANCH  22  23
HETATM   23  C24 UNL     1       0.425   2.768  10.395  1.00  0.00     0.015 C 
BRANCH  23  24
HETATM   24  C25 UNL     1       0.920   2.680  11.813  1.00  0.00     0.140 C 
BRANCH  24  25
HETATM   25  S2  UNL     1       0.881   0.950  12.286  1.00  0.00     0.140 S 
HETATM   26  C26 UNL     1       2.447   0.483  12.956  1.00  0.00     0.161 C 
HETATM   27  O4  UNL     1      -0.193   0.809  13.344  1.00  0.00    -0.228 OA
HETATM   28  O5  UNL     1       0.549   0.124  11.080  1.00  0.00    -0.228 OA
ENDBRANCH  24  25
ENDBRANCH  23  24
ENDBRANCH  22  23
ENDBRANCH  21  22
ENDBRANCH  16  21
BRANCH  17  29
HETATM   29  O6  UNL     1       4.223   5.077  11.205  1.00  0.00    -0.348 OA
ATOM     30  H6  UNL     1       4.805   5.014  11.953  1.00  0.00     0.219 HD
ENDBRANCH  17  29
BRANCH  13  31
HETATM   31  O3  UNL     1       3.755   2.820   5.928  1.00  0.00    -0.348 OA
ATOM     32  H3  UNL     1       3.658   2.036   6.456  1.00  0.00     0.219 HD
ENDBRANCH  13  31
BRANCH  12  33
HETATM   33  C17 UNL     1       4.551   6.291   6.654  1.00  0.00     0.008 C 
HETATM   34  C18 UNL     1       3.126   6.860   6.905  1.00  0.00     0.012 C 
HETATM   35  C19 UNL     1       5.234   7.336   5.839  1.00  0.00     0.012 C 
ENDBRANCH  12  33
BRANCH  20  36
HETATM   36  C29 UNL     1       7.797   3.983  11.995  1.00  0.00     0.056 C 
BRANCH  36  37
HETATM   37  C30 UNL     1       7.900   5.485  12.161  1.00  0.00     0.116 C 
HETATM   38  C31 UNL     1       8.714   6.174  11.130  1.00  0.00     0.039 C 
BRANCH  37  39
HETATM   39  O7  UNL     1       6.723   6.113  12.528  1.00  0.00    -0.396 OA
ATOM     40  H7  UNL     1       6.657   7.024  12.267  1.00  0.00     0.210 HD
ENDBRANCH  37  39
ENDBRANCH  36  37
ENDBRANCH  20  36
BRANCH   1  41
HETATM   41  C3  UNL     1       7.169   1.094  11.472  1.00  0.00    -0.009 C 
BRANCH  41  42
HETATM   42  C2  UNL     1       6.081   0.365  12.108  1.00  0.00     0.000 C 
HETATM   43  C1  UNL     1       6.240  -1.046  12.523  1.00  0.00     0.005 C 
ENDBRANCH  41  42
BRANCH  41  44
HETATM   44  C4  UNL     1       8.197   0.104  10.936  1.00  0.00     0.000 C 
HETATM   45  C5  UNL     1       9.596   0.264  11.326  1.00  0.00     0.005 C 
ENDBRANCH  41  44
ENDBRANCH   1  41
BRANCH   9  46
HETATM   46  O2  UNL     1       6.295   4.126   3.022  1.00  0.00    -0.345 OA
ATOM     47  H2  UNL     1       5.767   4.791   2.597  1.00  0.00     0.219 HD
ENDBRANCH   9  46
BRANCH   8  48
HETATM   48  C11 UNL     1       8.915   4.461   4.236  1.00  0.00     0.119 C 
BRANCH  48  49
HETATM   49  C12 UNL     1       9.626   5.379   5.192  1.00  0.00     0.021 A 
HETATM   50  C13 UNL     1       9.032   6.552   5.606  1.00  0.00     0.076 A 
HETATM   51  S1  UNL     1      10.229   7.204   6.644  1.00  0.00    -0.095 SA
HETATM   52  C14 UNL     1      11.395   5.968   6.491  1.00  0.00     0.138 A 
HETATM   53  N2  UNL     1      10.808   5.125   5.658  1.00  0.00    -0.363 N 
ATOM     54  H2  UNL     1      11.288   4.269   5.380  1.00  0.00     0.165 HD
ENDBRANCH  48  49
ENDBRANCH   8  48
TORSDOF 17
ENDMDL
MODEL 4
REMARK VINA RESULT: -7.689271305      4.366      8.773
REMARK  17 active torsions:
REMARK  status: ('A' for Active; 'I' for Inactive)
REMARK    1  A    between atoms: C2_2  and  C3_3 
REMARK    2  A    between atoms: C3_3  and  C4_4 
REMARK    3  A    between atoms: C3_3  and  C6_6 
REMARK    4  A    between atoms: C10_13  and  C11_14 
REMARK    5  A    between atoms: C11_14  and  C12_15 
REMARK    6  A    between atoms: C15_21  and  O2_22 
REMARK    7  A    between atoms: C16_26  and  C17_27 
REMARK    8  A    between atoms: C20_30  and  O3_31 
REMARK    9  A    between atoms: C21_35  and  C22_36 
REMARK   10  A    between atoms: C22_36  and  C23_37 
REMARK   11  A    between atoms: C23_37  and  C24_38 
REMARK   12  A    between atoms: C24_38  and  C25_39 
REMARK   13  A    between atoms: C25_39  and  S2_40 
REMARK   14  A    between atoms: C27_44  and  O6_45 
REMARK   15  A    between atoms: C28_49  and  C29_50 
REMARK   16  A    between atoms: C29_50  and  C30_51 
REMARK   17  A    between atoms: C30_51  and  O7_53 
ROOT
HETATM    1  C6  UNL     1       6.784   2.316  10.538  1.00  0.00     0.013 C 
HETATM    2  C7  UNL     1       7.374   1.532   9.340  1.00  0.00     0.016 C 
HETATM    3  C8  UNL     1       8.076   2.354   8.313  1.00  0.00     0.103 C 
HETATM    4  C9  UNL     1       7.737   1.926   6.889  1.00  0.00     0.222 C 
HETATM    5  O1  UNL     1       6.897   0.989   6.818  1.00  0.00    -0.273 OA
HETATM    6  N1  UNL     1       8.385   2.613   5.908  1.00  0.00    -0.327 N 
ATOM      7  H1  UNL     1       9.366   2.362   6.029  1.00  0.00     0.168 HD
HETATM    8  C10 UNL     1       8.383   3.391   4.942  1.00  0.00     0.068 C 
HETATM    9  C15 UNL     1       7.297   4.088   4.254  1.00  0.00     0.160 C 
HETATM   10  N3  UNL     1       6.288   4.986   4.544  1.00  0.00    -0.357 N 
ATOM     11  H3  UNL     1       6.199   5.657   3.781  1.00  0.00     0.162 HD
HETATM   12  C16 UNL     1       5.333   5.287   5.551  1.00  0.00     0.161 C 
HETATM   13  C20 UNL     1       4.809   4.246   6.408  1.00  0.00     0.135 C 
HETATM   14  N4  UNL     1       4.728   4.041   7.764  1.00  0.00    -0.361 N 
ATOM     15  H4  UNL     1       5.024   3.098   8.013  1.00  0.00     0.162 HD
HETATM   16  C21 UNL     1       4.351   4.770   8.897  1.00  0.00     0.157 C 
HETATM   17  C27 UNL     1       5.381   5.053   9.918  1.00  0.00     0.135 C 
HETATM   18  N5  UNL     1       6.686   4.746  10.143  1.00  0.00    -0.368 N 
ATOM     19  H5  UNL     1       7.306   5.507   9.867  1.00  0.00     0.161 HD
HETATM   20  C28 UNL     1       7.437   3.596  10.685  1.00  0.00     0.090 C 
ENDROOT
BRANCH  16  21
HETATM   21  C22 UNL     1       3.176   4.136   9.668  1.00  0.00     0.033 C 
BRANCH  21  22
HETATM   22  C23 UNL     1       1.865   4.529   9.046  1.00  0.00     0.003 C 
BRANCH  22  23
HETATM   23  C24 UNL     1       0.848   3.429   9.021  1.00  0.00     0.015 C 
BRANCH  23  24
HETATM   24  C25 UNL     1       1.252   2.259   9.876  1.00  0.00     0.140 C 
BRANCH  24  25
HETATM   25  S2  UNL     1       0.162   2.235  11.300  1.00  0.00     0.140 S 
HETATM   26  C26 UNL     1       0.508   0.814  12.289  1.00  0.00     0.161 C 
HETATM   27  O4  UNL     1       0.447   3.494  12.092  1.00  0.00    -0.228 OA
HETATM   28  O5  UNL     1      -1.259   2.220  10.823  1.00  0.00    -0.228 OA
ENDBRANCH  24  25
ENDBRANCH  23  24
ENDBRANCH  22  23
ENDBRANCH  21  22
ENDBRANCH  16  21
BRANCH  17  29
HETATM   29  O6  UNL     1       4.816   5.813  10.829  1.00  0.00    -0.348 OA
ATOM     30  H6  UNL     1       5.496   6.060  11.443  1.00  0.00     0.219 HD
ENDBRANCH  17  29
BRANCH  13  31
HETATM   31  O3  UNL     1       4.298   3.285   5.681  1.00  0.00    -0.348 OA
ATOM     32  H3  UNL     1       4.937   2.983   5.046  1.00  0.00     0.219 HD
ENDBRANCH  13  31
BRANCH  12  33
HETATM   33  C17 UNL     1       5.814   6.535   6.270  1.00  0.00     0.008 C 
HETATM   34  C18 UNL     1       6.022   7.559   5.121  1.00  0.00     0.012 C 
HETATM   35  C19 UNL     1       7.166   6.369   6.875  1.00  0.00     0.012 C 
ENDBRANCH  12  33
BRANCH  20  36
HETATM   36  C29 UNL     1       7.953   4.009  12.054  1.00  0.00     0.056 C 
BRANCH  36  37
HETATM   37  C30 UNL     1       8.096   5.506  12.232  1.00  0.00     0.116 C 
HETATM   38  C31 UNL     1       8.844   6.197  11.153  1.00  0.00     0.039 C 
BRANCH  37  39
HETATM   39  O7  UNL     1       6.962   6.150  12.694  1.00  0.00    -0.396 OA
ATOM     40  H7  UNL     1       6.984   6.388  13.613  1.00  0.00     0.210 HD
ENDBRANCH  37  39
ENDBRANCH  36  37
ENDBRANCH  20  36
BRANCH   1  41
HETATM   41  C3  UNL     1       6.717   1.304  11.646  1.00  0.00    -0.009 C 
BRANCH  41  42
HETATM   42  C2  UNL     1       5.453   0.682  12.015  1.00  0.00     0.000 C 
HETATM   43  C1  UNL     1       4.183   1.440  11.976  1.00  0.00     0.005 C 
ENDBRANCH  41  42
BRANCH  41  44
HETATM   44  C4  UNL     1       7.772   0.223  11.442  1.00  0.00     0.000 C 
HETATM   45  C5  UNL     1       7.948  -0.792  12.479  1.00  0.00     0.005 C 
ENDBRANCH  41  44
ENDBRANCH   1  41
BRANCH   9  46
HETATM   46  O2  UNL     1       7.316   3.733   2.981  1.00  0.00    -0.345 OA
ATOM     47  H2  UNL     1       7.441   4.514   2.455  1.00  0.00     0.219 HD
ENDBRANCH   9  46
BRANCH   8  48
HETATM   48  C11 UNL     1       9.826   3.568   4.439  1.00  0.00     0.119 C 
BRANCH  48  49
HETATM   49  C12 UNL     1      10.292   2.358   3.679  1.00  0.00     0.021 A 
HETATM   50  C13 UNL     1      11.635   2.064   3.588  1.00  0.00     0.076 A 
HETATM   51  S1  UNL     1      11.619   0.638   2.638  1.00  0.00    -0.095 SA
HETATM   52  C14 UNL     1       9.933   0.503   2.415  1.00  0.00     0.138 A 
HETATM   53  N2  UNL     1       9.474   1.552   3.078  1.00  0.00    -0.363 N 
ATOM     54  H2  UNL     1       8.470   1.728   3.116  1.00  0.00     0.165 HD
ENDBRANCH  48  49
ENDBRANCH   8  48
TORSDOF 17
ENDMDL
MODEL 5
REMARK VINA RESULT: -7.677959959      4.867      9.227
REMARK  17 active torsions:
REMARK  status: ('A' for Active; 'I' for Inactive)
REMARK    1  A    between atoms: C2_2  and  C3_3 
REMARK    2  A    between atoms: C3_3  and  C4_4 
REMARK    3  A    between atoms: C3_3  and  C6_6 
REMARK    4  A    between atoms: C10_13  and  C11_14 
REMARK    5  A    between atoms: C11_14  and  C12_15 
REMARK    6  A    between atoms: C15_21  and  O2_22 
REMARK    7  A    between atoms: C16_26  and  C17_27 
REMARK    8  A    between atoms: C20_30  and  O3_31 
REMARK    9  A    between atoms: C21_35  and  C22_36 
REMARK   10  A    between atoms: C22_36  and  C23_37 
REMARK   11  A    between atoms: C23_37  and  C24_38 
REMARK   12  A    between atoms: C24_38  and  C25_39 
REMARK   13  A    between atoms: C25_39  and  S2_40 
REMARK   14  A    between atoms: C27_44  and  O6_45 
REMARK   15  A    between atoms: C28_49  and  C29_50 
REMARK   16  A    between atoms: C29_50  and  C30_51 
REMARK   17  A    between atoms: C30_51  and  O7_53 
ROOT
HETATM    1  C6  UNL     1       7.108   2.577   9.653  1.00  0.00     0.013 C 
HETATM    2  C7  UNL     1       7.496   1.857   8.339  1.00  0.00     0.016 C 
HETATM    3  C8  UNL     1       7.850   2.747   7.196  1.00  0.00     0.103 C 
HETATM    4  C9  UNL     1       7.248   2.272   5.877  1.00  0.00     0.222 C 
HETATM    5  O1  UNL     1       6.526   1.244   5.979  1.00  0.00    -0.273 OA
HETATM    6  N1  UNL     1       7.575   3.022   4.788  1.00  0.00    -0.327 N 
ATOM      7  H1  UNL     1       8.580   2.886   4.680  1.00  0.00     0.168 HD
HETATM    8  C10 UNL     1       7.267   3.787   3.862  1.00  0.00     0.068 C 
HETATM    9  C15 UNL     1       5.981   4.350   3.450  1.00  0.00     0.160 C 
HETATM   10  N3  UNL     1       4.969   5.129   3.977  1.00  0.00    -0.357 N 
ATOM     11  H3  UNL     1       4.635   5.779   3.266  1.00  0.00     0.162 HD
HETATM   12  C16 UNL     1       4.239   5.326   5.179  1.00  0.00     0.161 C 
HETATM   13  C20 UNL     1       4.044   4.238   6.112  1.00  0.00     0.135 C 
HETATM   14  N4  UNL     1       4.295   4.035   7.447  1.00  0.00    -0.361 N 
ATOM     15  H4  UNL     1       4.745   3.133   7.605  1.00  0.00     0.162 HD
HETATM   16  C21 UNL     1       4.104   4.724   8.649  1.00  0.00     0.157 C 
HETATM   17  C27 UNL     1       5.300   5.130   9.418  1.00  0.00     0.135 C 
HETATM   18  N5  UNL     1       6.648   4.977   9.337  1.00  0.00    -0.368 N 
ATOM     19  H5  UNL     1       7.099   5.802   8.942  1.00  0.00     0.161 HD
HETATM   20  C28 UNL     1       7.627   3.924   9.673  1.00  0.00     0.090 C 
ENDROOT
BRANCH  16  21
HETATM   21  C22 UNL     1       3.214   3.965   9.654  1.00  0.00     0.033 C 
BRANCH  21  22
HETATM   22  C23 UNL     1       1.763   4.279   9.413  1.00  0.00     0.003 C 
BRANCH  22  23
HETATM   23  C24 UNL     1       0.912   3.072   9.160  1.00  0.00     0.015 C 
BRANCH  23  24
HETATM   24  C25 UNL     1       1.218   1.948  10.112  1.00  0.00     0.140 C 
BRANCH  24  25
HETATM   25  S2  UNL     1       0.110   2.118  11.513  1.00  0.00     0.140 S 
HETATM   26  C26 UNL     1       0.373   0.786  12.641  1.00  0.00     0.161 C 
HETATM   27  O4  UNL     1       0.448   3.433  12.182  1.00  0.00    -0.228 OA
HETATM   28  O5  UNL     1      -1.304   2.124  11.015  1.00  0.00    -0.228 OA
ENDBRANCH  24  25
ENDBRANCH  23  24
ENDBRANCH  22  23
ENDBRANCH  21  22
ENDBRANCH  16  21
BRANCH  17  29
HETATM   29  O6  UNL     1       4.872   5.827  10.446  1.00  0.00    -0.348 OA
ATOM     30  H6  UNL     1       4.477   5.212  11.051  1.00  0.00     0.219 HD
ENDBRANCH  17  29
BRANCH  13  31
HETATM   31  O3  UNL     1       3.494   3.218   5.501  1.00  0.00    -0.348 OA
ATOM     32  H3  UNL     1       3.860   3.128   4.629  1.00  0.00     0.219 HD
ENDBRANCH  13  31
BRANCH  12  33
HETATM   33  C17 UNL     1       4.726   6.625   5.795  1.00  0.00     0.008 C 
HETATM   34  C18 UNL     1       4.563   7.656   4.643  1.00  0.00     0.012 C 
HETATM   35  C19 UNL     1       6.187   6.616   6.086  1.00  0.00     0.012 C 
ENDBRANCH  12  33
BRANCH  20  36
HETATM   36  C29 UNL     1       8.390   4.404  10.898  1.00  0.00     0.056 C 
BRANCH  36  37
HETATM   37  C30 UNL     1       8.500   5.911  11.004  1.00  0.00     0.116 C 
HETATM   38  C31 UNL     1       8.976   6.412  12.317  1.00  0.00     0.039 C 
BRANCH  37  39
HETATM   39  O7  UNL     1       9.021   6.538   9.888  1.00  0.00    -0.396 OA
ATOM     40  H7  UNL     1       9.379   7.404  10.045  1.00  0.00     0.210 HD
ENDBRANCH  37  39
ENDBRANCH  36  37
ENDBRANCH  20  36
BRANCH   1  41
HETATM   41  C3  UNL     1       7.408   1.572  10.729  1.00  0.00    -0.009 C 
BRANCH  41  42
HETATM   42  C2  UNL     1       6.333   0.927  11.471  1.00  0.00     0.000 C 
HETATM   43  C1  UNL     1       5.070   1.638  11.768  1.00  0.00     0.005 C 
ENDBRANCH  41  42
BRANCH  41  44
HETATM   44  C4  UNL     1       8.371   0.511  10.209  1.00  0.00     0.000 C 
HETATM   45  C5  UNL     1       9.572   0.212  10.986  1.00  0.00     0.005 C 
ENDBRANCH  41  44
ENDBRANCH   1  41
BRANCH   9  46
HETATM   46  O2  UNL     1       5.752   3.990   2.199  1.00  0.00    -0.345 OA
ATOM     47  H2  UNL     1       5.396   3.110   2.202  1.00  0.00     0.219 HD
ENDBRANCH   9  46
BRANCH   8  48
HETATM   48  C11 UNL     1       8.529   4.125   3.051  1.00  0.00     0.119 C 
BRANCH  48  49
HETATM   49  C12 UNL     1       9.527   4.881   3.883  1.00  0.00     0.021 A 
HETATM   50  C13 UNL     1      10.744   4.317   4.199  1.00  0.00     0.076 A 
HETATM   51  S1  UNL     1      11.471   5.553   5.138  1.00  0.00    -0.095 SA
HETATM   52  C14 UNL     1      10.204   6.694   5.075  1.00  0.00     0.138 A 
HETATM   53  N2  UNL     1       9.296   6.071   4.340  1.00  0.00    -0.363 N 
ATOM     54  H2  UNL     1       8.409   6.531   4.133  1.00  0.00     0.165 HD
ENDBRANCH  48  49
ENDBRANCH   8  48
TORSDOF 17
ENDMDL
