MODEL 1
REMARK VINA RESULT: -7.726835965      0.000      0.000
REMARK  12 active torsions:
REMARK  status: ('A' for Active; 'I' for Inactive)
REMARK    1  A    between atoms: C2_2  and  C4_4 
REMARK    2  A    between atoms: C4_4  and  C5_5 
REMARK    3  A    between atoms: C6_6  and  O1_7 
REMARK    4  A    between atoms: C14_24  and  C15_25 
REMARK    5  A    between atoms: C15_25  and  C16_26 
REMARK    6  A    between atoms: C18_33  and  C19_34 
REMARK    7  A    between atoms: C19_34  and  C21_36 
REMARK    8  A    between atoms: C21_36  and  C22_37 
REMARK    9  A    between atoms: C22_37  and  C23_38 
REMARK   10  A    between atoms: C23_38  and  C24_39 
REMARK   11  A    between atoms: C24_39  and  N5_40 
REMARK   12  A    between atoms: C30_46  and  O7_47 
ROOT
HETATM    1  C5  UNL     1      11.243   2.240   7.757  1.00  0.00     0.083 C 
HETATM    2  C6  UNL     1      11.611   1.927   9.135  1.00  0.00     0.164 C 
HETATM    3  N1  UNL     1      12.345   2.706  10.056  1.00  0.00    -0.352 N 
ATOM      4  H1  UNL     1      13.030   2.140  10.557  1.00  0.00     0.163 HD
HETATM    5  C7  UNL     1      12.389   4.032  10.467  1.00  0.00     0.105 C 
HETATM    6  C8  UNL     1      11.649   4.250  11.819  1.00  0.00     0.048 C 
HETATM    7  C9  UNL     1      11.855   5.121   9.592  1.00  0.00     0.048 C 
HETATM    8  C10 UNL     1      13.824   4.447  10.751  1.00  0.00     0.246 C 
HETATM    9  O2  UNL     1      13.997   5.490  11.475  1.00  0.00    -0.271 OA
HETATM   10  N2  UNL     1      14.965   3.794  10.298  1.00  0.00    -0.346 N 
ATOM     11  H2  UNL     1      15.668   3.588  11.007  1.00  0.00     0.163 HD
HETATM   12  C11 UNL     1      15.283   3.370   8.951  1.00  0.00     0.172 C 
HETATM   13  C12 UNL     1      15.563   4.598   8.064  1.00  0.00     0.042 C 
HETATM   14  C13 UNL     1      16.511   2.533   8.929  1.00  0.00     0.240 C 
HETATM   15  O3  UNL     1      17.643   3.019   9.279  1.00  0.00    -0.271 OA
HETATM   16  N3  UNL     1      16.521   1.155   8.525  1.00  0.00    -0.346 N 
ATOM     17  H3  UNL     1      17.299   0.778   7.982  1.00  0.00     0.163 HD
HETATM   18  C14 UNL     1      15.408   0.309   8.901  1.00  0.00     0.186 C 
HETATM   19  C17 UNL     1      15.117  -0.769   7.927  1.00  0.00     0.241 C 
HETATM   20  O6  UNL     1      16.184  -1.179   7.337  1.00  0.00    -0.271 OA
HETATM   21  N4  UNL     1      13.922  -1.363   7.591  1.00  0.00    -0.344 N 
ATOM     22  H4  UNL     1      13.827  -2.330   7.901  1.00  0.00     0.163 HD
HETATM   23  C18 UNL     1      12.751  -0.834   6.856  1.00  0.00     0.188 C 
HETATM   24  C30 UNL     1      12.879   0.573   6.548  1.00  0.00     0.145 C 
HETATM   25  N6  UNL     1      12.069   1.692   6.696  1.00  0.00    -0.330 N 
HETATM   26  C31 UNL     1      12.042   2.571   5.479  1.00  0.00     0.158 C 
ENDROOT
BRANCH  23  27
HETATM   27  C19 UNL     1      12.526  -1.824   5.757  1.00  0.00    -0.057 C 
HETATM   28  C20 UNL     1      11.774  -1.277   4.566  1.00  0.00     0.046 C 
BRANCH  27  29
HETATM   29  C21 UNL     1      12.187  -3.207   6.026  1.00  0.00    -0.022 C 
BRANCH  29  30
HETATM   30  C22 UNL     1      11.075  -3.630   6.874  1.00  0.00     0.029 C 
BRANCH  30  31
HETATM   31  C23 UNL     1       9.689  -3.578   6.373  1.00  0.00     0.032 C 
BRANCH  31  32
HETATM   32  C24 UNL     1       9.274  -4.569   5.357  1.00  0.00     0.237 C 
BRANCH  32  33
HETATM   33  N5  UNL     1       8.288  -4.029   4.440  1.00  0.00    -0.071 N 
HETATM   34  C25 UNL     1       8.760  -4.295   3.080  1.00  0.00     0.272 C 
HETATM   35  C26 UNL     1       6.976  -4.545   4.623  1.00  0.00     0.237 C 
HETATM   36  C27 UNL     1       6.007  -3.382   4.460  1.00  0.00     0.029 C 
HETATM   37  C28 UNL     1       6.842  -2.156   4.191  1.00  0.00     0.029 C 
HETATM   38  C29 UNL     1       8.223  -2.602   4.596  1.00  0.00     0.237 C 
ENDBRANCH  32  33
ENDBRANCH  31  32
ENDBRANCH  30  31
ENDBRANCH  29  30
ENDBRANCH  27  29
ENDBRANCH  23  27
BRANCH  24  39
HETATM   39  O7  UNL     1      14.059   0.831   5.994  1.00  0.00    -0.347 OA
ATOM     40  H7  UNL     1      13.982   0.903   5.050  1.00  0.00     0.219 HD
ENDBRANCH  24  39
BRANCH  18  41
HETATM   41  C15 UNL     1      15.789  -0.267  10.276  1.00  0.00     0.147 C 
BRANCH  41  42
HETATM   42  C16 UNL     1      16.935  -1.176  10.217  1.00  0.00     0.175 C 
HETATM   43  O4  UNL     1      16.851  -2.376  10.583  1.00  0.00    -0.648 OA
HETATM   44  O5  UNL     1      18.190  -0.765   9.752  1.00  0.00    -0.648 OA
ENDBRANCH  41  42
ENDBRANCH  18  41
BRANCH   1  45
HETATM   45  C4  UNL     1       9.849   2.471   7.376  1.00  0.00     0.011 C 
BRANCH  45  46
HETATM   46  C2  UNL     1       8.863   1.505   6.970  1.00  0.00     0.002 C 
HETATM   47  C1  UNL     1       8.537   1.378   5.515  1.00  0.00     0.013 C 
HETATM   48  C3  UNL     1       9.315   0.082   7.401  1.00  0.00     0.013 C 
ENDBRANCH  45  46
ENDBRANCH   1  45
BRANCH   2  49
HETATM   49  O1  UNL     1      11.211   0.765   9.568  1.00  0.00    -0.345 OA
ATOM     50  H1  UNL     1      11.380   0.595  10.487  1.00  0.00     0.219 HD
ENDBRANCH   2  49
TORSDOF 12
ENDMDL
MODEL 2
REMARK VINA RESULT: -7.725937934      0.590      1.237
REMARK  12 active torsions:
REMARK  status: ('A' for Active; 'I' for Inactive)
REMARK    1  A    between atoms: C2_2  and  C4_4 
REMARK    2  A    between atoms: C4_4  and  C5_5 
REMARK    3  A    between atoms: C6_6  and  O1_7 
REMARK    4  A    between atoms: C14_24  and  C15_25 
REMARK    5  A    between atoms: C15_25  and  C16_26 
REMARK    6  A    between atoms: C18_33  and  C19_34 
REMARK    7  A    between atoms: C19_34  and  C21_36 
REMARK    8  A    between atoms: C21_36  and  C22_37 
REMARK    9  A    between atoms: C22_37  and  C23_38 
REMARK   10  A    between atoms: C23_38  and  C24_39 
REMARK   11  A    between atoms: C24_39  and  N5_40 
REMARK   12  A    between atoms: C30_46  and  O7_47 
ROOT
HETATM    1  C5  UNL     1      11.253   2.295   7.807  1.00  0.00     0.083 C 
HETATM    2  C6  UNL     1      11.637   1.977   9.179  1.00  0.00     0.164 C 
HETATM    3  N1  UNL     1      12.371   2.757  10.099  1.00  0.00    -0.352 N 
ATOM      4  H1  UNL     1      13.066   2.194  10.590  1.00  0.00     0.163 HD
HETATM    5  C7  UNL     1      12.406   4.080  10.519  1.00  0.00     0.105 C 
HETATM    6  C8  UNL     1      11.677   4.282  11.879  1.00  0.00     0.048 C 
HETATM    7  C9  UNL     1      11.854   5.170   9.657  1.00  0.00     0.048 C 
HETATM    8  C10 UNL     1      13.840   4.507  10.793  1.00  0.00     0.246 C 
HETATM    9  O2  UNL     1      14.010   5.547  11.522  1.00  0.00    -0.271 OA
HETATM   10  N2  UNL     1      14.983   3.869  10.325  1.00  0.00    -0.346 N 
ATOM     11  H2  UNL     1      15.695   3.664  11.026  1.00  0.00     0.163 HD
HETATM   12  C11 UNL     1      15.293   3.456   8.972  1.00  0.00     0.172 C 
HETATM   13  C12 UNL     1      15.552   4.693   8.091  1.00  0.00     0.042 C 
HETATM   14  C13 UNL     1      16.528   2.632   8.933  1.00  0.00     0.240 C 
HETATM   15  O3  UNL     1      17.658   3.126   9.275  1.00  0.00    -0.271 OA
HETATM   16  N3  UNL     1      16.548   1.256   8.519  1.00  0.00    -0.346 N 
ATOM     17  H3  UNL     1      17.324   0.891   7.967  1.00  0.00     0.163 HD
HETATM   18  C14 UNL     1      15.446   0.397   8.899  1.00  0.00     0.186 C 
HETATM   19  C17 UNL     1      15.156  -0.677   7.921  1.00  0.00     0.241 C 
HETATM   20  O6  UNL     1      16.222  -1.072   7.318  1.00  0.00    -0.271 OA
HETATM   21  N4  UNL     1      13.964  -1.280   7.592  1.00  0.00    -0.344 N 
ATOM     22  H4  UNL     1      13.882  -2.250   7.895  1.00  0.00     0.163 HD
HETATM   23  C18 UNL     1      12.781  -0.758   6.871  1.00  0.00     0.188 C 
HETATM   24  C30 UNL     1      12.894   0.653   6.571  1.00  0.00     0.145 C 
HETATM   25  N6  UNL     1      12.073   1.763   6.735  1.00  0.00    -0.330 N 
HETATM   26  C31 UNL     1      12.028   2.650   5.524  1.00  0.00     0.158 C 
ENDROOT
BRANCH  23  27
HETATM   27  C19 UNL     1      12.555  -1.742   5.768  1.00  0.00    -0.057 C 
HETATM   28  C20 UNL     1      11.841  -1.178   4.562  1.00  0.00     0.046 C 
BRANCH  27  29
HETATM   29  C21 UNL     1      12.180  -3.116   6.029  1.00  0.00    -0.022 C 
BRANCH  29  30
HETATM   30  C22 UNL     1      11.177  -3.521   7.013  1.00  0.00     0.029 C 
BRANCH  30  31
HETATM   31  C23 UNL     1       9.930  -4.180   6.582  1.00  0.00     0.032 C 
BRANCH  31  32
HETATM   32  C24 UNL     1       9.049  -3.462   5.636  1.00  0.00     0.237 C 
BRANCH  32  33
HETATM   33  N5  UNL     1       8.666  -4.294   4.511  1.00  0.00    -0.071 N 
HETATM   34  C25 UNL     1       7.425  -3.746   3.960  1.00  0.00     0.272 C 
HETATM   35  C26 UNL     1       9.658  -4.399   3.497  1.00  0.00     0.237 C 
HETATM   36  C27 UNL     1       9.668  -5.845   3.024  1.00  0.00     0.029 C 
HETATM   37  C28 UNL     1       8.633  -6.576   3.841  1.00  0.00     0.029 C 
HETATM   38  C29 UNL     1       8.375  -5.622   4.977  1.00  0.00     0.237 C 
ENDBRANCH  32  33
ENDBRANCH  31  32
ENDBRANCH  30  31
ENDBRANCH  29  30
ENDBRANCH  27  29
ENDBRANCH  23  27
BRANCH  24  39
HETATM   39  O7  UNL     1      14.066   0.926   6.009  1.00  0.00    -0.347 OA
ATOM     40  H7  UNL     1      14.224   1.862   5.993  1.00  0.00     0.219 HD
ENDBRANCH  24  39
BRANCH  18  41
HETATM   41  C15 UNL     1      15.845  -0.185  10.267  1.00  0.00     0.147 C 
BRANCH  41  42
HETATM   42  C16 UNL     1      16.969  -1.121  10.184  1.00  0.00     0.175 C 
HETATM   43  O4  UNL     1      16.860  -2.322  10.539  1.00  0.00    -0.648 OA
HETATM   44  O5  UNL     1      18.227  -0.735   9.707  1.00  0.00    -0.648 OA
ENDBRANCH  41  42
ENDBRANCH  18  41
BRANCH   1  45
HETATM   45  C4  UNL     1       9.853   2.515   7.441  1.00  0.00     0.011 C 
BRANCH  45  46
HETATM   46  C2  UNL     1       8.878   1.546   7.017  1.00  0.00     0.002 C 
HETATM   47  C1  UNL     1       8.540   1.454   5.562  1.00  0.00     0.013 C 
HETATM   48  C3  UNL     1       9.356   0.119   7.405  1.00  0.00     0.013 C 
ENDBRANCH  45  46
ENDBRANCH   1  45
BRANCH   2  49
HETATM   49  O1  UNL     1      11.252   0.808   9.608  1.00  0.00    -0.345 OA
ATOM     50  H1  UNL     1      10.570   0.823  10.269  1.00  0.00     0.219 HD
ENDBRANCH   2  49
TORSDOF 12
ENDMDL
MODEL 3
REMARK VINA RESULT: -7.553062170      5.090      8.403
REMARK  12 active torsions:
REMARK  status: ('A' for Active; 'I' for Inactive)
REMARK    1  A    between atoms: C2_2  and  C4_4 
REMARK    2  A    between atoms: C4_4  and  C5_5 
REMARK    3  A    between atoms: C6_6  and  O1_7 
REMARK    4  A    between atoms: C14_24  and  C15_25 
REMARK    5  A    between atoms: C15_25  and  C16_26 
REMARK    6  A    between atoms: C18_33  and  C19_34 
REMARK    7  A    between atoms: C19_34  and  C21_36 
REMARK    8  A    between atoms: C21_36  and  C22_37 
REMARK    9  A    between atoms: C22_37  and  C23_38 
REMARK   10  A    between atoms: C23_38  and  C24_39 
REMARK   11  A    between atoms: C24_39  and  N5_40 
REMARK   12  A    between atoms: C30_46  and  O7_47 
ROOT
HETATM    1  C5  UNL     1      14.067   6.973  14.264  1.00  0.00     0.083 C 
HETATM    2  C6  UNL     1      14.916   5.961  14.883  1.00  0.00     0.164 C 
HETATM    3  N1  UNL     1      16.175   6.116  15.505  1.00  0.00    -0.352 N 
ATOM      4  H1  UNL     1      16.822   5.381  15.221  1.00  0.00     0.163 HD
HETATM    5  C7  UNL     1      16.772   6.997  16.396  1.00  0.00     0.105 C 
HETATM    6  C8  UNL     1      16.824   6.421  17.842  1.00  0.00     0.048 C 
HETATM    7  C9  UNL     1      16.231   8.378  16.586  1.00  0.00     0.048 C 
HETATM    8  C10 UNL     1      18.231   7.212  16.025  1.00  0.00     0.246 C 
HETATM    9  O2  UNL     1      19.000   7.688  16.933  1.00  0.00    -0.271 OA
HETATM   10  N2  UNL     1      18.805   6.938  14.789  1.00  0.00    -0.346 N 
ATOM     11  H2  UNL     1      19.664   6.388  14.811  1.00  0.00     0.163 HD
HETATM   12  C11 UNL     1      18.342   7.332  13.475  1.00  0.00     0.172 C 
HETATM   13  C12 UNL     1      18.521   8.850  13.286  1.00  0.00     0.042 C 
HETATM   14  C13 UNL     1      19.134   6.669  12.407  1.00  0.00     0.240 C 
HETATM   15  O3  UNL     1      20.385   6.901  12.276  1.00  0.00    -0.271 OA
HETATM   16  N3  UNL     1      18.570   5.741  11.465  1.00  0.00    -0.346 N 
ATOM     17  H3  UNL     1      18.874   5.740  10.491  1.00  0.00     0.163 HD
HETATM   18  C14 UNL     1      17.561   4.808  11.923  1.00  0.00     0.186 C 
HETATM   19  C17 UNL     1      16.569   4.440  10.886  1.00  0.00     0.241 C 
HETATM   20  O6  UNL     1      17.088   4.443   9.709  1.00  0.00    -0.271 OA
HETATM   21  N4  UNL     1      15.239   4.107  11.009  1.00  0.00    -0.344 N 
ATOM     22  H4  UNL     1      15.028   3.128  10.818  1.00  0.00     0.163 HD
HETATM   23  C18 UNL     1      14.065   4.933  11.371  1.00  0.00     0.188 C 
HETATM   24  C30 UNL     1      14.430   6.279  11.753  1.00  0.00     0.145 C 
HETATM   25  N6  UNL     1      14.128   7.116  12.821  1.00  0.00    -0.330 N 
HETATM   26  C31 UNL     1      13.800   8.519  12.399  1.00  0.00     0.158 C 
ENDROOT
BRANCH  23  27
HETATM   27  C19 UNL     1      13.096   4.708  10.254  1.00  0.00    -0.057 C 
HETATM   28  C20 UNL     1      11.649   4.649  10.683  1.00  0.00     0.046 C 
BRANCH  27  29
HETATM   29  C21 UNL     1      13.378   3.796   9.164  1.00  0.00    -0.022 C 
BRANCH  29  30
HETATM   30  C22 UNL     1      12.853   2.435   9.076  1.00  0.00     0.029 C 
BRANCH  30  31
HETATM   31  C23 UNL     1      13.732   1.319   8.676  1.00  0.00     0.032 C 
BRANCH  31  32
HETATM   32  C24 UNL     1      15.124   1.629   8.286  1.00  0.00     0.237 C 
BRANCH  32  33
HETATM   33  N5  UNL     1      16.077   0.733   8.913  1.00  0.00    -0.071 N 
HETATM   34  C25 UNL     1      17.419   1.217   8.585  1.00  0.00     0.272 C 
HETATM   35  C26 UNL     1      15.923   0.607  10.321  1.00  0.00     0.237 C 
HETATM   36  C27 UNL     1      16.131  -0.860  10.669  1.00  0.00     0.029 C 
HETATM   37  C28 UNL     1      16.398  -1.579   9.372  1.00  0.00     0.029 C 
HETATM   38  C29 UNL     1      15.947  -0.579   8.340  1.00  0.00     0.237 C 
ENDBRANCH  32  33
ENDBRANCH  31  32
ENDBRANCH  30  31
ENDBRANCH  29  30
ENDBRANCH  27  29
ENDBRANCH  23  27
BRANCH  24  39
HETATM   39  O7  UNL     1      15.248   6.821  10.857  1.00  0.00    -0.347 OA
ATOM     40  H7  UNL     1      15.077   6.474   9.990  1.00  0.00     0.219 HD
ENDBRANCH  24  39
BRANCH  18  41
HETATM   41  C15 UNL     1      18.346   3.576  12.409  1.00  0.00     0.147 C 
BRANCH  41  42
HETATM   42  C16 UNL     1      18.844   3.721  13.779  1.00  0.00     0.175 C 
HETATM   43  O4  UNL     1      20.069   3.646  14.052  1.00  0.00    -0.648 OA
HETATM   44  O5  UNL     1      17.988   3.949  14.863  1.00  0.00    -0.648 OA
ENDBRANCH  41  42
ENDBRANCH  18  41
BRANCH   1  45
HETATM   45  C4  UNL     1      12.781   7.351  14.852  1.00  0.00     0.011 C 
BRANCH  45  46
HETATM   46  C2  UNL     1      12.458   7.547  16.240  1.00  0.00     0.002 C 
HETATM   47  C1  UNL     1      11.553   8.679  16.615  1.00  0.00     0.013 C 
HETATM   48  C3  UNL     1      11.759   6.277  16.800  1.00  0.00     0.013 C 
ENDBRANCH  45  46
ENDBRANCH   1  45
BRANCH   2  49
HETATM   49  O1  UNL     1      14.448   4.745  14.849  1.00  0.00    -0.345 OA
ATOM     50  H1  UNL     1      15.010   4.105  14.428  1.00  0.00     0.219 HD
ENDBRANCH   2  49
TORSDOF 12
ENDMDL
MODEL 4
REMARK VINA RESULT: -7.497297693      5.598      9.301
REMARK  12 active torsions:
REMARK  status: ('A' for Active; 'I' for Inactive)
REMARK    1  A    between atoms: C2_2  and  C4_4 
REMARK    2  A    between atoms: C4_4  and  C5_5 
REMARK    3  A    between atoms: C6_6  and  O1_7 
REMARK    4  A    between atoms: C14_24  and  C15_25 
REMARK    5  A    between atoms: C15_25  and  C16_26 
REMARK    6  A    between atoms: C18_33  and  C19_34 
REMARK    7  A    between atoms: C19_34  and  C21_36 
REMARK    8  A    between atoms: C21_36  and  C22_37 
REMARK    9  A    between atoms: C22_37  and  C23_38 
REMARK   10  A    between atoms: C23_38  and  C24_39 
REMARK   11  A    between atoms: C24_39  and  N5_40 
REMARK   12  A    between atoms: C30_46  and  O7_47 
ROOT
HETATM    1  C5  UNL     1      15.355   5.622  14.749  1.00  0.00     0.083 C 
HETATM    2  C6  UNL     1      16.482   5.300  15.618  1.00  0.00     0.164 C 
HETATM    3  N1  UNL     1      17.156   6.129  16.542  1.00  0.00    -0.352 N 
ATOM      4  H1  UNL     1      18.166   6.013  16.475  1.00  0.00     0.163 HD
HETATM    5  C7  UNL     1      16.818   7.058  17.517  1.00  0.00     0.105 C 
HETATM    6  C8  UNL     1      16.890   6.456  18.951  1.00  0.00     0.048 C 
HETATM    7  C9  UNL     1      15.490   7.747  17.490  1.00  0.00     0.048 C 
HETATM    8  C10 UNL     1      17.829   8.193  17.534  1.00  0.00     0.246 C 
HETATM    9  O2  UNL     1      17.874   8.919  18.589  1.00  0.00    -0.271 OA
HETATM   10  N2  UNL     1      18.712   8.513  16.509  1.00  0.00    -0.346 N 
ATOM     11  H2  UNL     1      19.687   8.631  16.783  1.00  0.00     0.163 HD
HETATM   12  C11 UNL     1      18.426   8.699  15.101  1.00  0.00     0.172 C 
HETATM   13  C12 UNL     1      17.623   9.997  14.894  1.00  0.00     0.042 C 
HETATM   14  C13 UNL     1      19.679   8.836  14.314  1.00  0.00     0.240 C 
HETATM   15  O3  UNL     1      20.472   9.820  14.508  1.00  0.00    -0.271 OA
HETATM   16  N3  UNL     1      20.083   7.898  13.302  1.00  0.00    -0.346 N 
ATOM     17  H3  UNL     1      20.532   8.221  12.445  1.00  0.00     0.163 HD
HETATM   18  C14 UNL     1      19.841   6.487  13.522  1.00  0.00     0.186 C 
HETATM   19  C17 UNL     1      19.595   5.720  12.279  1.00  0.00     0.241 C 
HETATM   20  O6  UNL     1      20.245   6.208  11.282  1.00  0.00    -0.271 OA
HETATM   21  N4  UNL     1      18.810   4.610  12.061  1.00  0.00    -0.344 N 
ATOM     22  H4  UNL     1      19.330   3.754  11.869  1.00  0.00     0.163 HD
HETATM   23  C18 UNL     1      17.338   4.451  12.060  1.00  0.00     0.188 C 
HETATM   24  C30 UNL     1      16.650   5.659  12.460  1.00  0.00     0.145 C 
HETATM   25  N6  UNL     1      15.642   5.964  13.368  1.00  0.00    -0.330 N 
HETATM   26  C31 UNL     1      14.598   6.886  12.807  1.00  0.00     0.158 C 
ENDROOT
BRANCH  23  27
HETATM   27  C19 UNL     1      17.036   3.819  10.739  1.00  0.00    -0.057 C 
HETATM   28  C20 UNL     1      18.250   3.319   9.992  1.00  0.00     0.046 C 
BRANCH  27  29
HETATM   29  C21 UNL     1      16.028   4.351   9.844  1.00  0.00    -0.022 C 
BRANCH  29  30
HETATM   30  C22 UNL     1      14.684   3.797   9.699  1.00  0.00     0.029 C 
BRANCH  30  31
HETATM   31  C23 UNL     1      14.490   2.354   9.464  1.00  0.00     0.032 C 
BRANCH  31  32
HETATM   32  C24 UNL     1      15.082   1.757   8.248  1.00  0.00     0.237 C 
BRANCH  32  33
HETATM   33  N5  UNL     1      15.582   0.417   8.487  1.00  0.00    -0.071 N 
HETATM   34  C25 UNL     1      14.903  -0.481   7.550  1.00  0.00     0.272 C 
HETATM   35  C26 UNL     1      16.993   0.289   8.366  1.00  0.00     0.237 C 
HETATM   36  C27 UNL     1      17.461  -0.629   9.487  1.00  0.00     0.029 C 
HETATM   37  C28 UNL     1      16.234  -1.009  10.276  1.00  0.00     0.029 C 
HETATM   38  C29 UNL     1      15.217   0.001   9.814  1.00  0.00     0.237 C 
ENDBRANCH  32  33
ENDBRANCH  31  32
ENDBRANCH  30  31
ENDBRANCH  29  30
ENDBRANCH  27  29
ENDBRANCH  23  27
BRANCH  24  39
HETATM   39  O7  UNL     1      17.106   6.709  11.787  1.00  0.00    -0.347 OA
ATOM     40  H7  UNL     1      17.286   6.480  10.883  1.00  0.00     0.219 HD
ENDBRANCH  24  39
BRANCH  18  41
HETATM   41  C15 UNL     1      21.093   5.976  14.257  1.00  0.00     0.147 C 
BRANCH  41  42
HETATM   42  C16 UNL     1      20.796   4.908  15.214  1.00  0.00     0.175 C 
HETATM   43  O4  UNL     1      21.435   4.784  16.290  1.00  0.00    -0.648 OA
HETATM   44  O5  UNL     1      19.788   3.963  14.989  1.00  0.00    -0.648 OA
ENDBRANCH  41  42
ENDBRANCH  18  41
BRANCH   1  45
HETATM   45  C4  UNL     1      14.037   5.019  14.957  1.00  0.00     0.011 C 
BRANCH  45  46
HETATM   46  C2  UNL     1      13.092   5.283  16.009  1.00  0.00     0.002 C 
HETATM   47  C1  UNL     1      12.324   6.568  15.981  1.00  0.00     0.013 C 
HETATM   48  C3  UNL     1      12.006   4.172  16.028  1.00  0.00     0.013 C 
ENDBRANCH  45  46
ENDBRANCH   1  45
BRANCH   2  49
HETATM   49  O1  UNL     1      16.930   4.080  15.521  1.00  0.00    -0.345 OA
ATOM     50  H1  UNL     1      17.870   4.001  15.411  1.00  0.00     0.219 HD
ENDBRANCH   2  49
TORSDOF 12
ENDMDL
MODEL 5
REMARK VINA RESULT: -7.450614912      2.462      5.778
REMARK  12 active torsions:
REMARK  status: ('A' for Active; 'I' for Inactive)
REMARK    1  A    between atoms: C2_2  and  C4_4 
REMARK    2  A    between atoms: C4_4  and  C5_5 
REMARK    3  A    between atoms: C6_6  and  O1_7 
REMARK    4  A    between atoms: C14_24  and  C15_25 
REMARK    5  A    between atoms: C15_25  and  C16_26 
REMARK    6  A    between atoms: C18_33  and  C19_34 
REMARK    7  A    between atoms: C19_34  and  C21_36 
REMARK    8  A    between atoms: C21_36  and  C22_37 
REMARK    9  A    between atoms: C22_37  and  C23_38 
REMARK   10  A    between atoms: C23_38  and  C24_39 
REMARK   11  A    between atoms: C24_39  and  N5_40 
REMARK   12  A    between atoms: C30_46  and  O7_47 
ROOT
HETATM    1  C5  UNL     1      16.076   2.170  10.009  1.00  0.00     0.083 C 
HETATM    2  C6  UNL     1      16.310   3.575   9.690  1.00  0.00     0.164 C 
HETATM    3  N1  UNL     1      16.224   4.703  10.535  1.00  0.00    -0.352 N 
ATOM      4  H1  UNL     1      15.742   5.475  10.075  1.00  0.00     0.163 HD
HETATM    5  C7  UNL     1      16.615   5.048  11.822  1.00  0.00     0.105 C 
HETATM    6  C8  UNL     1      17.907   5.918  11.827  1.00  0.00     0.048 C 
HETATM    7  C9  UNL     1      16.896   3.994  12.845  1.00  0.00     0.048 C 
HETATM    8  C10 UNL     1      15.564   5.933  12.472  1.00  0.00     0.246 C 
HETATM    9  O2  UNL     1      15.929   6.625  13.487  1.00  0.00    -0.271 OA
HETATM   10  N2  UNL     1      14.241   6.061  12.063  1.00  0.00    -0.346 N 
ATOM     11  H2  UNL     1      13.903   7.016  11.947  1.00  0.00     0.163 HD
HETATM   12  C11 UNL     1      13.282   5.013  11.780  1.00  0.00     0.172 C 
HETATM   13  C12 UNL     1      12.871   4.308  13.086  1.00  0.00     0.042 C 
HETATM   14  C13 UNL     1      12.042   5.570  11.181  1.00  0.00     0.240 C 
HETATM   15  O3  UNL     1      11.298   6.375  11.841  1.00  0.00    -0.271 OA
HETATM   16  N3  UNL     1      11.596   5.256   9.852  1.00  0.00    -0.346 N 
ATOM     17  H3  UNL     1      10.603   5.132   9.653  1.00  0.00     0.163 HD
HETATM   18  C14 UNL     1      12.580   5.119   8.799  1.00  0.00     0.186 C 
HETATM   19  C17 UNL     1      12.200   4.152   7.743  1.00  0.00     0.241 C 
HETATM   20  O6  UNL     1      10.926   4.117   7.567  1.00  0.00    -0.271 OA
HETATM   21  N4  UNL     1      12.985   3.334   6.963  1.00  0.00    -0.344 N 
ATOM     22  H4  UNL     1      13.026   3.598   5.979  1.00  0.00     0.163 HD
HETATM   23  C18 UNL     1      13.781   2.136   7.313  1.00  0.00     0.188 C 
HETATM   24  C30 UNL     1      13.793   1.875   8.736  1.00  0.00     0.145 C 
HETATM   25  N6  UNL     1      14.778   1.609   9.680  1.00  0.00    -0.330 N 
HETATM   26  C31 UNL     1      14.421   0.483  10.607  1.00  0.00     0.158 C 
ENDROOT
BRANCH  23  27
HETATM   27  C19 UNL     1      13.304   1.084   6.362  1.00  0.00    -0.057 C 
HETATM   28  C20 UNL     1      12.221   1.544   5.414  1.00  0.00     0.046 C 
BRANCH  27  29
HETATM   29  C21 UNL     1      13.122  -0.294   6.768  1.00  0.00    -0.022 C 
BRANCH  29  30
HETATM   30  C22 UNL     1      12.501  -1.321   5.934  1.00  0.00     0.029 C 
BRANCH  30  31
HETATM   31  C23 UNL     1      11.336  -2.081   6.425  1.00  0.00     0.032 C 
BRANCH  31  32
HETATM   32  C24 UNL     1      10.088  -2.037   5.633  1.00  0.00     0.237 C 
BRANCH  32  33
HETATM   33  N5  UNL     1       9.154  -1.052   6.145  1.00  0.00    -0.071 N 
HETATM   34  C25 UNL     1       7.841  -1.695   6.236  1.00  0.00     0.272 C 
HETATM   35  C26 UNL     1       9.523  -0.492   7.399  1.00  0.00     0.237 C 
HETATM   36  C27 UNL     1       9.205   0.996   7.340  1.00  0.00     0.029 C 
HETATM   37  C28 UNL     1       8.645   1.265   5.967  1.00  0.00     0.029 C 
HETATM   38  C29 UNL     1       9.033   0.027   5.203  1.00  0.00     0.237 C 
ENDBRANCH  32  33
ENDBRANCH  31  32
ENDBRANCH  30  31
ENDBRANCH  29  30
ENDBRANCH  27  29
ENDBRANCH  23  27
BRANCH  24  39
HETATM   39  O7  UNL     1      12.561   1.902   9.233  1.00  0.00    -0.347 OA
ATOM     40  H7  UNL     1      12.286   2.794   9.406  1.00  0.00     0.219 HD
ENDBRANCH  24  39
BRANCH  18  41
HETATM   41  C15 UNL     1      12.753   6.536   8.224  1.00  0.00     0.147 C 
BRANCH  41  42
HETATM   42  C16 UNL     1      14.122   7.040   8.351  1.00  0.00     0.175 C 
HETATM   43  O4  UNL     1      14.782   6.909   9.413  1.00  0.00    -0.648 OA
HETATM   44  O5  UNL     1      14.776   7.697   7.302  1.00  0.00    -0.648 OA
ENDBRANCH  41  42
ENDBRANCH  18  41
BRANCH   1  45
HETATM   45  C4  UNL     1      17.169   1.197  10.006  1.00  0.00     0.011 C 
BRANCH  45  46
HETATM   46  C2  UNL     1      17.841   0.612   8.875  1.00  0.00     0.002 C 
HETATM   47  C1  UNL     1      18.939  -0.374   9.122  1.00  0.00     0.013 C 
HETATM   48  C3  UNL     1      16.813  -0.149   7.992  1.00  0.00     0.013 C 
ENDBRANCH  45  46
ENDBRANCH   1  45
BRANCH   2  49
HETATM   49  O1  UNL     1      16.636   3.818   8.453  1.00  0.00    -0.345 OA
ATOM     50  H1  UNL     1      16.868   4.720   8.264  1.00  0.00     0.219 HD
ENDBRANCH   2  49
TORSDOF 12
ENDMDL
