MODEL 1
REMARK VINA RESULT: -7.271851551      0.000      0.000
REMARK  14 active torsions:
REMARK  status: ('A' for Active; 'I' for Inactive)
REMARK    1  A    between atoms: C2_2  and  C3_3 
REMARK    2  A    between atoms: C3_3  and  N1_5 
REMARK    3  A    between atoms: C5_6  and  O1_7 
REMARK    4  A    between atoms: C6_9  and  C7_10 
REMARK    5  A    between atoms: C7_10  and  C8_11 
REMARK    6  A    between atoms: C15_24  and  C16_25 
REMARK    7  A    between atoms: C16_25  and  C17_26 
REMARK    8  A    between atoms: C21_33  and  C22_34 
REMARK    9  A    between atoms: C25_39  and  O5_40 
REMARK   10  A    between atoms: C26_42  and  C27_43 
REMARK   11  A    between atoms: C27_43  and  C28_44 
REMARK   12  A    between atoms: C28_44  and  C29_45 
REMARK   13  A    between atoms: C29_45  and  N6_46 
REMARK       I    between atoms: C30_48  and  N8_50 
REMARK   14  A    between atoms: N8_50  and  C31_52 
ROOT
HETATM    1  N1  UNL     1       8.647  -4.862   4.414  1.00  0.00    -0.341 N 
HETATM    2  C5  UNL     1       7.272  -4.972   4.120  1.00  0.00     0.162 C 
HETATM    3  C6  UNL     1       6.125  -4.046   4.200  1.00  0.00     0.063 C 
HETATM    4  N2  UNL     1       6.440  -2.711   3.805  1.00  0.00    -0.325 N 
ATOM      5  H2  UNL     1       6.846  -2.659   2.871  1.00  0.00     0.169 HD
HETATM    6  C11 UNL     1       6.315  -1.462   4.413  1.00  0.00     0.244 C 
HETATM    7  O2  UNL     1       5.579  -0.571   3.832  1.00  0.00    -0.271 OA
HETATM    8  C12 UNL     1       6.920  -0.967   5.673  1.00  0.00     0.172 C 
HETATM    9  C13 UNL     1       6.010   0.144   6.197  1.00  0.00     0.042 C 
HETATM   10  N3  UNL     1       8.202  -0.402   5.302  1.00  0.00    -0.346 N 
ATOM     11  H3  UNL     1       8.692  -0.875   4.542  1.00  0.00     0.163 HD
HETATM   12  C14 UNL     1       8.854   0.703   5.846  1.00  0.00     0.241 C 
HETATM   13  O3  UNL     1       9.360   1.524   4.998  1.00  0.00    -0.271 OA
HETATM   14  C15 UNL     1       9.021   1.022   7.295  1.00  0.00     0.177 C 
HETATM   15  N4  UNL     1       9.902   0.094   7.945  1.00  0.00    -0.346 N 
ATOM     16  H4  UNL     1      10.231   0.375   8.869  1.00  0.00     0.163 HD
HETATM   17  C20 UNL     1      10.378  -1.156   7.483  1.00  0.00     0.241 C 
HETATM   18  O4  UNL     1       9.969  -2.153   8.158  1.00  0.00    -0.271 OA
HETATM   19  C21 UNL     1      11.259  -1.472   6.363  1.00  0.00     0.179 C 
HETATM   20  N5  UNL     1      11.058  -2.620   5.571  1.00  0.00    -0.359 N 
ATOM     21  H5  UNL     1      11.387  -2.468   4.617  1.00  0.00     0.162 HD
HETATM   22  C25 UNL     1      10.537  -3.905   5.720  1.00  0.00     0.135 C 
HETATM   23  C26 UNL     1       9.171  -4.443   5.737  1.00  0.00     0.161 C 
ENDROOT
BRANCH  23  24
HETATM   24  C27 UNL     1       9.186  -5.748   6.547  1.00  0.00     0.035 C 
BRANCH  24  25
HETATM   25  C28 UNL     1       7.908  -6.481   6.589  1.00  0.00     0.022 C 
BRANCH  25  26
HETATM   26  C29 UNL     1       7.964  -7.652   7.545  1.00  0.00     0.122 C 
BRANCH  26  27
HETATM   27  N6  UNL     1       7.901  -7.237   8.925  1.00  0.00    -0.365 N 
HETATM   28  C30 UNL     1       7.746  -8.050   9.908  1.00  0.00     0.183 C 
HETATM   29  N7  UNL     1       7.617  -9.451   9.744  1.00  0.00    -0.064 NA
HETATM   30  N8  UNL     1       7.725  -7.523  11.224  1.00  0.00    -0.365 N 
ATOM     31  H8  UNL     1       7.350  -6.592  11.403  1.00  0.00     0.162 HD
ATOM     32  H6  UNL     1       7.984  -6.241   9.132  1.00  0.00     0.162 HD
BRANCH  30  33
HETATM   33  C31 UNL     1       8.245  -8.330  12.315  1.00  0.00     0.118 C 
HETATM   34  C32 UNL     1       9.740  -8.207  12.429  1.00  0.00     0.026 C 
ENDBRANCH  30  33
ENDBRANCH  26  27
ENDBRANCH  25  26
ENDBRANCH  24  25
ENDBRANCH  23  24
BRANCH   1  35
HETATM   35  C3  UNL     1       9.609  -5.214   3.406  1.00  0.00     0.105 C 
HETATM   36  C4  UNL     1       9.737  -6.670   3.101  1.00  0.00     0.037 C 
BRANCH  35  37
HETATM   37  C2  UNL     1       9.343  -4.514   2.121  1.00  0.00    -0.012 C 
HETATM   38  C1  UNL     1      10.123  -4.546   1.082  1.00  0.00     0.009 C 
ENDBRANCH  35  37
ENDBRANCH   1  35
BRANCH  22  39
HETATM   39  O5  UNL     1      11.453  -4.844   5.884  1.00  0.00    -0.348 OA
ATOM     40  H5  UNL     1      11.283  -5.431   6.612  1.00  0.00     0.219 HD
ENDBRANCH  22  39
BRANCH   2  41
HETATM   41  O1  UNL     1       6.874  -6.149   3.662  1.00  0.00    -0.345 OA
ATOM     42  H1  UNL     1       5.971  -6.195   3.371  1.00  0.00     0.219 HD
ENDBRANCH   2  41
BRANCH   3  43
HETATM   43  C7  UNL     1       5.269  -4.279   5.380  1.00  0.00     0.065 C 
BRANCH  43  44
HETATM   44  C8  UNL     1       4.058  -5.124   5.172  1.00  0.00    -0.017 C 
HETATM   45  C9  UNL     1       4.067  -6.390   6.019  1.00  0.00     0.010 C 
HETATM   46  C10 UNL     1       2.798  -4.375   5.640  1.00  0.00     0.010 C 
ENDBRANCH  43  44
ENDBRANCH   3  43
BRANCH  19  47
HETATM   47  C22 UNL     1      12.723  -1.339   6.836  1.00  0.00     0.009 C 
HETATM   48  C23 UNL     1      12.903  -0.210   7.787  1.00  0.00     0.012 C 
HETATM   49  C24 UNL     1      13.612  -1.178   5.657  1.00  0.00     0.012 C 
ENDBRANCH  19  47
BRANCH  14  50
HETATM   50  C16 UNL     1       9.307   2.449   7.379  1.00  0.00     0.038 C 
BRANCH  50  51
HETATM   51  C17 UNL     1      10.452   3.037   8.051  1.00  0.00    -0.020 C 
HETATM   52  C18 UNL     1       9.847   3.928   9.186  1.00  0.00     0.009 C 
HETATM   53  C19 UNL     1      11.203   4.043   7.215  1.00  0.00     0.009 C 
ENDBRANCH  50  51
ENDBRANCH  14  50
TORSDOF 14
ENDMDL
MODEL 2
REMARK VINA RESULT: -7.214750839      1.699      2.366
REMARK  14 active torsions:
REMARK  status: ('A' for Active; 'I' for Inactive)
REMARK    1  A    between atoms: C2_2  and  C3_3 
REMARK    2  A    between atoms: C3_3  and  N1_5 
REMARK    3  A    between atoms: C5_6  and  O1_7 
REMARK    4  A    between atoms: C6_9  and  C7_10 
REMARK    5  A    between atoms: C7_10  and  C8_11 
REMARK    6  A    between atoms: C15_24  and  C16_25 
REMARK    7  A    between atoms: C16_25  and  C17_26 
REMARK    8  A    between atoms: C21_33  and  C22_34 
REMARK    9  A    between atoms: C25_39  and  O5_40 
REMARK   10  A    between atoms: C26_42  and  C27_43 
REMARK   11  A    between atoms: C27_43  and  C28_44 
REMARK   12  A    between atoms: C28_44  and  C29_45 
REMARK   13  A    between atoms: C29_45  and  N6_46 
REMARK       I    between atoms: C30_48  and  N8_50 
REMARK   14  A    between atoms: N8_50  and  C31_52 
ROOT
HETATM    1  N1  UNL     1       8.866  -4.390   3.935  1.00  0.00    -0.341 N 
HETATM    2  C5  UNL     1       7.480  -4.621   3.824  1.00  0.00     0.162 C 
HETATM    3  C6  UNL     1       6.275  -3.841   4.172  1.00  0.00     0.063 C 
HETATM    4  N2  UNL     1       6.398  -2.447   3.897  1.00  0.00    -0.325 N 
ATOM      5  H2  UNL     1       6.651  -2.254   2.928  1.00  0.00     0.169 HD
HETATM    6  C11 UNL     1       6.248  -1.287   4.658  1.00  0.00     0.244 C 
HETATM    7  O2  UNL     1       5.352  -0.429   4.294  1.00  0.00    -0.271 OA
HETATM    8  C12 UNL     1       6.987  -0.859   5.871  1.00  0.00     0.172 C 
HETATM    9  C13 UNL     1       6.065   0.084   6.643  1.00  0.00     0.042 C 
HETATM   10  N3  UNL     1       8.139  -0.121   5.392  1.00  0.00    -0.346 N 
ATOM     11  H3  UNL     1       8.550  -0.456   4.522  1.00  0.00     0.163 HD
HETATM   12  C14 UNL     1       8.757   0.988   5.966  1.00  0.00     0.241 C 
HETATM   13  O3  UNL     1       9.049   1.943   5.158  1.00  0.00    -0.271 OA
HETATM   14  C15 UNL     1       9.111   1.175   7.405  1.00  0.00     0.177 C 
HETATM   15  N4  UNL     1      10.164   0.289   7.812  1.00  0.00    -0.346 N 
ATOM     16  H4  UNL     1      10.601   0.509   8.708  1.00  0.00     0.163 HD
HETATM   17  C20 UNL     1      10.681  -0.847   7.144  1.00  0.00     0.241 C 
HETATM   18  O4  UNL     1      10.476  -1.947   7.748  1.00  0.00    -0.271 OA
HETATM   19  C21 UNL     1      11.408  -0.946   5.884  1.00  0.00     0.179 C 
HETATM   20  N5  UNL     1      11.201  -2.023   4.998  1.00  0.00    -0.359 N 
ATOM     21  H5  UNL     1      11.365  -1.739   4.032  1.00  0.00     0.162 HD
HETATM   22  C25 UNL     1      10.833  -3.367   5.067  1.00  0.00     0.135 C 
HETATM   23  C26 UNL     1       9.542  -4.052   5.211  1.00  0.00     0.161 C 
ENDROOT
BRANCH  23  24
HETATM   24  C27 UNL     1       9.803  -5.423   5.853  1.00  0.00     0.035 C 
BRANCH  24  25
HETATM   25  C28 UNL     1       8.913  -5.777   6.972  1.00  0.00     0.022 C 
BRANCH  25  26
HETATM   26  C29 UNL     1       8.384  -7.189   6.844  1.00  0.00     0.122 C 
BRANCH  26  27
HETATM   27  N6  UNL     1       7.003  -7.295   7.246  1.00  0.00    -0.365 N 
HETATM   28  C30 UNL     1       6.062  -7.693   6.466  1.00  0.00     0.183 C 
HETATM   29  N7  UNL     1       6.278  -8.071   5.118  1.00  0.00    -0.064 NA
HETATM   30  N8  UNL     1       4.746  -7.781   6.985  1.00  0.00    -0.365 N 
ATOM     31  H8  UNL     1       4.430  -7.133   7.707  1.00  0.00     0.162 HD
ATOM     32  H6  UNL     1       6.760  -7.040   8.203  1.00  0.00     0.162 HD
BRANCH  30  33
HETATM   33  C31 UNL     1       3.852  -8.805   6.474  1.00  0.00     0.118 C 
HETATM   34  C32 UNL     1       2.430  -8.318   6.414  1.00  0.00     0.026 C 
ENDBRANCH  30  33
ENDBRANCH  26  27
ENDBRANCH  25  26
ENDBRANCH  24  25
ENDBRANCH  23  24
BRANCH   1  35
HETATM   35  C3  UNL     1       9.694  -4.527   2.767  1.00  0.00     0.105 C 
HETATM   36  C4  UNL     1      10.126  -5.916   2.430  1.00  0.00     0.037 C 
BRANCH  35  37
HETATM   37  C2  UNL     1       9.041  -3.960   1.558  1.00  0.00    -0.012 C 
HETATM   38  C1  UNL     1       9.619  -3.808   0.404  1.00  0.00     0.009 C 
ENDBRANCH  35  37
ENDBRANCH   1  35
BRANCH  22  39
HETATM   39  O5  UNL     1      11.848  -4.210   4.989  1.00  0.00    -0.348 OA
ATOM     40  H5  UNL     1      11.608  -5.120   5.122  1.00  0.00     0.219 HD
ENDBRANCH  22  39
BRANCH   2  41
HETATM   41  O1  UNL     1       7.130  -5.782   3.292  1.00  0.00    -0.345 OA
ATOM     42  H1  UNL     1       6.984  -5.778   2.353  1.00  0.00     0.219 HD
ENDBRANCH   2  41
BRANCH   3  43
HETATM   43  C7  UNL     1       5.633  -4.288   5.425  1.00  0.00     0.065 C 
BRANCH  43  44
HETATM   44  C8  UNL     1       4.181  -4.615   5.352  1.00  0.00    -0.017 C 
HETATM   45  C9  UNL     1       3.316  -3.404   5.028  1.00  0.00     0.010 C 
HETATM   46  C10 UNL     1       3.910  -5.585   4.188  1.00  0.00     0.010 C 
ENDBRANCH  43  44
ENDBRANCH   3  43
BRANCH  19  47
HETATM   47  C22 UNL     1      12.908  -0.700   6.159  1.00  0.00     0.009 C 
HETATM   48  C23 UNL     1      13.389  -1.456   7.346  1.00  0.00     0.012 C 
HETATM   49  C24 UNL     1      13.148   0.756   6.332  1.00  0.00     0.012 C 
ENDBRANCH  19  47
BRANCH  14  50
HETATM   50  C16 UNL     1       9.268   2.609   7.615  1.00  0.00     0.038 C 
BRANCH  50  51
HETATM   51  C17 UNL     1      10.422   3.245   8.226  1.00  0.00    -0.020 C 
HETATM   52  C18 UNL     1       9.843   4.094   9.406  1.00  0.00     0.009 C 
HETATM   53  C19 UNL     1      11.074   4.294   7.360  1.00  0.00     0.009 C 
ENDBRANCH  50  51
ENDBRANCH  14  50
TORSDOF 14
ENDMDL
MODEL 3
REMARK VINA RESULT: -7.060319210      9.251     15.383
REMARK  14 active torsions:
REMARK  status: ('A' for Active; 'I' for Inactive)
REMARK    1  A    between atoms: C2_2  and  C3_3 
REMARK    2  A    between atoms: C3_3  and  N1_5 
REMARK    3  A    between atoms: C5_6  and  O1_7 
REMARK    4  A    between atoms: C6_9  and  C7_10 
REMARK    5  A    between atoms: C7_10  and  C8_11 
REMARK    6  A    between atoms: C15_24  and  C16_25 
REMARK    7  A    between atoms: C16_25  and  C17_26 
REMARK    8  A    between atoms: C21_33  and  C22_34 
REMARK    9  A    between atoms: C25_39  and  O5_40 
REMARK   10  A    between atoms: C26_42  and  C27_43 
REMARK   11  A    between atoms: C27_43  and  C28_44 
REMARK   12  A    between atoms: C28_44  and  C29_45 
REMARK   13  A    between atoms: C29_45  and  N6_46 
REMARK       I    between atoms: C30_48  and  N8_50 
REMARK   14  A    between atoms: N8_50  and  C31_52 
ROOT
HETATM    1  N1  UNL     1      18.261   5.253  13.432  1.00  0.00    -0.341 N 
HETATM    2  C5  UNL     1      18.018   6.480  14.082  1.00  0.00     0.162 C 
HETATM    3  C6  UNL     1      16.898   7.442  14.081  1.00  0.00     0.063 C 
HETATM    4  N2  UNL     1      15.613   6.823  14.060  1.00  0.00    -0.325 N 
ATOM      5  H2  UNL     1      15.480   6.158  14.822  1.00  0.00     0.169 HD
HETATM    6  C11 UNL     1      14.497   6.924  13.229  1.00  0.00     0.244 C 
HETATM    7  O2  UNL     1      13.379   7.310  13.752  1.00  0.00    -0.271 OA
HETATM    8  C12 UNL     1      14.379   6.646  11.777  1.00  0.00     0.172 C 
HETATM    9  C13 UNL     1      13.213   7.485  11.256  1.00  0.00     0.042 C 
HETATM   10  N3  UNL     1      14.045   5.240  11.669  1.00  0.00    -0.346 N 
ATOM     11  H3  UNL     1      14.466   4.629  12.369  1.00  0.00     0.163 HD
HETATM   12  C14 UNL     1      13.223   4.613  10.735  1.00  0.00     0.241 C 
HETATM   13  O3  UNL     1      12.389   3.759  11.211  1.00  0.00    -0.271 OA
HETATM   14  C15 UNL     1      13.215   4.830   9.257  1.00  0.00     0.177 C 
HETATM   15  N4  UNL     1      14.412   4.334   8.641  1.00  0.00    -0.346 N 
ATOM     16  H4  UNL     1      14.380   4.250   7.625  1.00  0.00     0.163 HD
HETATM   17  C20 UNL     1      15.630   3.943   9.247  1.00  0.00     0.241 C 
HETATM   18  O4  UNL     1      16.621   4.682   8.950  1.00  0.00    -0.271 OA
HETATM   19  C21 UNL     1      15.919   2.833  10.149  1.00  0.00     0.179 C 
HETATM   20  N5  UNL     1      16.834   2.968  11.212  1.00  0.00    -0.359 N 
ATOM     21  H5  UNL     1      16.586   2.355  11.988  1.00  0.00     0.162 HD
HETATM   22  C25 UNL     1      17.983   3.703  11.504  1.00  0.00     0.135 C 
HETATM   23  C26 UNL     1      18.210   5.081  11.960  1.00  0.00     0.161 C 
ENDROOT
BRANCH  23  24
HETATM   24  C27 UNL     1      19.613   5.507  11.500  1.00  0.00     0.035 C 
BRANCH  24  25
HETATM   25  C28 UNL     1      19.918   6.941  11.649  1.00  0.00     0.022 C 
BRANCH  25  26
HETATM   26  C29 UNL     1      21.408   7.203  11.612  1.00  0.00     0.122 C 
BRANCH  26  27
HETATM   27  N6  UNL     1      22.018   6.730  10.394  1.00  0.00    -0.365 N 
HETATM   28  C30 UNL     1      22.305   7.491   9.398  1.00  0.00     0.183 C 
HETATM   29  N7  UNL     1      22.051   8.884   9.386  1.00  0.00    -0.064 NA
HETATM   30  N8  UNL     1      22.928   6.912   8.263  1.00  0.00    -0.365 N 
ATOM     31  H8  UNL     1      22.723   5.949   7.996  1.00  0.00     0.162 HD
ATOM     32  H6  UNL     1      22.233   5.736  10.318  1.00  0.00     0.162 HD
BRANCH  30  33
HETATM   33  C31 UNL     1      23.861   7.710   7.487  1.00  0.00     0.118 C 
HETATM   34  C32 UNL     1      23.355   7.947   6.090  1.00  0.00     0.026 C 
ENDBRANCH  30  33
ENDBRANCH  26  27
ENDBRANCH  25  26
ENDBRANCH  24  25
ENDBRANCH  23  24
BRANCH   1  35
HETATM   35  C3  UNL     1      18.621   4.104  14.217  1.00  0.00     0.105 C 
HETATM   36  C4  UNL     1      20.071   3.966  14.550  1.00  0.00     0.037 C 
BRANCH  35  37
HETATM   37  C2  UNL     1      17.865   4.051  15.497  1.00  0.00    -0.012 C 
HETATM   38  C1  UNL     1      18.401   3.891  16.670  1.00  0.00     0.009 C 
ENDBRANCH  35  37
ENDBRANCH   1  35
BRANCH  22  39
HETATM   39  O5  UNL     1      19.111   3.034  11.338  1.00  0.00    -0.348 OA
ATOM     40  H5  UNL     1      18.992   2.135  11.053  1.00  0.00     0.219 HD
ENDBRANCH  22  39
BRANCH   2  41
HETATM   41  O1  UNL     1      18.979   6.905  14.888  1.00  0.00    -0.345 OA
ATOM     42  H1  UNL     1      18.932   7.819  15.140  1.00  0.00     0.219 HD
ENDBRANCH   2  41
BRANCH   3  43
HETATM   43  C7  UNL     1      17.152   8.632  13.244  1.00  0.00     0.065 C 
BRANCH  43  44
HETATM   44  C8  UNL     1      16.931   9.960  13.885  1.00  0.00    -0.017 C 
HETATM   45  C9  UNL     1      15.508  10.473  13.707  1.00  0.00     0.010 C 
HETATM   46  C10 UNL     1      17.097   9.850  15.411  1.00  0.00     0.010 C 
ENDBRANCH  43  44
ENDBRANCH   3  43
BRANCH  19  47
HETATM   47  C22 UNL     1      16.190   1.570   9.303  1.00  0.00     0.009 C 
HETATM   48  C23 UNL     1      16.092   0.325  10.110  1.00  0.00     0.012 C 
HETATM   49  C24 UNL     1      17.529   1.678   8.666  1.00  0.00     0.012 C 
ENDBRANCH  19  47
BRANCH  14  50
HETATM   50  C16 UNL     1      11.921   4.364   8.773  1.00  0.00     0.038 C 
BRANCH  50  51
HETATM   51  C17 UNL     1      11.721   3.280   7.827  1.00  0.00    -0.020 C 
HETATM   52  C18 UNL     1      10.170   3.098   7.737  1.00  0.00     0.009 C 
HETATM   53  C19 UNL     1      12.178   1.934   8.331  1.00  0.00     0.009 C 
ENDBRANCH  50  51
ENDBRANCH  14  50
TORSDOF 14
ENDMDL
MODEL 4
REMARK VINA RESULT: -6.931412475      5.463     11.678
REMARK  14 active torsions:
REMARK  status: ('A' for Active; 'I' for Inactive)
REMARK    1  A    between atoms: C2_2  and  C3_3 
REMARK    2  A    between atoms: C3_3  and  N1_5 
REMARK    3  A    between atoms: C5_6  and  O1_7 
REMARK    4  A    between atoms: C6_9  and  C7_10 
REMARK    5  A    between atoms: C7_10  and  C8_11 
REMARK    6  A    between atoms: C15_24  and  C16_25 
REMARK    7  A    between atoms: C16_25  and  C17_26 
REMARK    8  A    between atoms: C21_33  and  C22_34 
REMARK    9  A    between atoms: C25_39  and  O5_40 
REMARK   10  A    between atoms: C26_42  and  C27_43 
REMARK   11  A    between atoms: C27_43  and  C28_44 
REMARK   12  A    between atoms: C28_44  and  C29_45 
REMARK   13  A    between atoms: C29_45  and  N6_46 
REMARK       I    between atoms: C30_48  and  N8_50 
REMARK   14  A    between atoms: N8_50  and  C31_52 
ROOT
HETATM    1  N1  UNL     1      13.911   5.470   9.432  1.00  0.00    -0.341 N 
HETATM    2  C5  UNL     1      15.154   5.429  10.098  1.00  0.00     0.162 C 
HETATM    3  C6  UNL     1      16.196   4.398  10.271  1.00  0.00     0.063 C 
HETATM    4  N2  UNL     1      16.427   3.616   9.100  1.00  0.00    -0.325 N 
ATOM      5  H2  UNL     1      16.651   4.183   8.282  1.00  0.00     0.169 HD
HETATM    6  C11 UNL     1      16.413   2.248   8.824  1.00  0.00     0.244 C 
HETATM    7  O2  UNL     1      17.502   1.702   8.389  1.00  0.00    -0.271 OA
HETATM    8  C12 UNL     1      15.300   1.276   8.953  1.00  0.00     0.172 C 
HETATM    9  C13 UNL     1      15.934  -0.101   9.151  1.00  0.00     0.042 C 
HETATM   10  N3  UNL     1      14.601   1.305   7.683  1.00  0.00    -0.346 N 
ATOM     11  H3  UNL     1      14.559   2.213   7.221  1.00  0.00     0.163 HD
HETATM   12  C14 UNL     1      13.979   0.254   7.012  1.00  0.00     0.241 C 
HETATM   13  O3  UNL     1      14.221   0.178   5.753  1.00  0.00    -0.271 OA
HETATM   14  C15 UNL     1      13.073  -0.776   7.601  1.00  0.00     0.177 C 
HETATM   15  N4  UNL     1      11.822  -0.209   8.016  1.00  0.00    -0.346 N 
ATOM     16  H4  UNL     1      11.082  -0.880   8.221  1.00  0.00     0.163 HD
HETATM   17  C20 UNL     1      11.473   1.153   8.179  1.00  0.00     0.241 C 
HETATM   18  O4  UNL     1      11.220   1.488   9.380  1.00  0.00    -0.271 OA
HETATM   19  C21 UNL     1      11.356   2.220   7.191  1.00  0.00     0.179 C 
HETATM   20  N5  UNL     1      11.754   3.540   7.482  1.00  0.00    -0.359 N 
ATOM     21  H5  UNL     1      12.069   4.022   6.641  1.00  0.00     0.162 HD
HETATM   22  C25 UNL     1      11.838   4.375   8.597  1.00  0.00     0.135 C 
HETATM   23  C26 UNL     1      12.813   4.506   9.687  1.00  0.00     0.161 C 
ENDROOT
BRANCH  23  24
HETATM   24  C27 UNL     1      12.088   5.102  10.903  1.00  0.00     0.035 C 
BRANCH  24  25
HETATM   25  C28 UNL     1      11.939   4.197  12.056  1.00  0.00     0.022 C 
BRANCH  25  26
HETATM   26  C29 UNL     1      12.456   4.825  13.332  1.00  0.00     0.122 C 
BRANCH  26  27
HETATM   27  N6  UNL     1      11.965   4.155  14.511  1.00  0.00    -0.365 N 
HETATM   28  C30 UNL     1      11.853   4.723  15.659  1.00  0.00     0.183 C 
HETATM   29  N7  UNL     1      12.206   6.074  15.894  1.00  0.00    -0.064 NA
HETATM   30  N8  UNL     1      11.332   3.966  16.738  1.00  0.00    -0.365 N 
ATOM     31  H8  UNL     1      11.498   2.962  16.795  1.00  0.00     0.162 HD
ATOM     32  H6  UNL     1      11.690   3.176  14.429  1.00  0.00     0.162 HD
BRANCH  30  33
HETATM   33  C31 UNL     1      10.557   4.643  17.765  1.00  0.00     0.118 C 
HETATM   34  C32 UNL     1       9.108   4.759  17.376  1.00  0.00     0.026 C 
ENDBRANCH  30  33
ENDBRANCH  26  27
ENDBRANCH  25  26
ENDBRANCH  24  25
ENDBRANCH  23  24
BRANCH   1  35
HETATM   35  C3  UNL     1      13.660   6.520   8.484  1.00  0.00     0.105 C 
HETATM   36  C4  UNL     1      13.208   7.824   9.055  1.00  0.00     0.037 C 
BRANCH  35  37
HETATM   37  C2  UNL     1      14.850   6.795   7.636  1.00  0.00    -0.012 C 
HETATM   38  C1  UNL     1      14.921   7.731   6.737  1.00  0.00     0.009 C 
ENDBRANCH  35  37
ENDBRANCH   1  35
BRANCH  22  39
HETATM   39  O5  UNL     1      10.837   5.232   8.708  1.00  0.00    -0.348 OA
ATOM     40  H5  UNL     1      11.098   6.100   8.994  1.00  0.00     0.219 HD
ENDBRANCH  22  39
BRANCH   2  41
HETATM   41  O1  UNL     1      15.511   6.543  10.719  1.00  0.00    -0.345 OA
ATOM     42  H1  UNL     1      15.669   6.463  11.652  1.00  0.00     0.219 HD
ENDBRANCH   2  41
BRANCH   3  43
HETATM   43  C7  UNL     1      16.154   3.742  11.594  1.00  0.00     0.065 C 
BRANCH  43  44
HETATM   44  C8  UNL     1      17.316   3.982  12.496  1.00  0.00    -0.017 C 
HETATM   45  C9  UNL     1      18.453   4.730  11.811  1.00  0.00     0.010 C 
HETATM   46  C10 UNL     1      16.909   4.909  13.655  1.00  0.00     0.010 C 
ENDBRANCH  43  44
ENDBRANCH   3  43
BRANCH  19  47
HETATM   47  C22 UNL     1       9.944   2.161   6.567  1.00  0.00     0.009 C 
HETATM   48  C23 UNL     1       8.903   1.822   7.572  1.00  0.00     0.012 C 
HETATM   49  C24 UNL     1       9.935   1.180   5.451  1.00  0.00     0.012 C 
ENDBRANCH  19  47
BRANCH  14  50
HETATM   50  C16 UNL     1      13.069  -1.906   6.679  1.00  0.00     0.038 C 
BRANCH  50  51
HETATM   51  C17 UNL     1      11.924  -2.352   5.905  1.00  0.00    -0.020 C 
HETATM   52  C18 UNL     1      11.639  -3.808   6.401  1.00  0.00     0.009 C 
HETATM   53  C19 UNL     1      12.217  -2.558   4.440  1.00  0.00     0.009 C 
ENDBRANCH  50  51
ENDBRANCH  14  50
TORSDOF 14
ENDMDL
MODEL 5
REMARK VINA RESULT: -6.870410522      5.580     12.157
REMARK  14 active torsions:
REMARK  status: ('A' for Active; 'I' for Inactive)
REMARK    1  A    between atoms: C2_2  and  C3_3 
REMARK    2  A    between atoms: C3_3  and  N1_5 
REMARK    3  A    between atoms: C5_6  and  O1_7 
REMARK    4  A    between atoms: C6_9  and  C7_10 
REMARK    5  A    between atoms: C7_10  and  C8_11 
REMARK    6  A    between atoms: C15_24  and  C16_25 
REMARK    7  A    between atoms: C16_25  and  C17_26 
REMARK    8  A    between atoms: C21_33  and  C22_34 
REMARK    9  A    between atoms: C25_39  and  O5_40 
REMARK   10  A    between atoms: C26_42  and  C27_43 
REMARK   11  A    between atoms: C27_43  and  C28_44 
REMARK   12  A    between atoms: C28_44  and  C29_45 
REMARK   13  A    between atoms: C29_45  and  N6_46 
REMARK       I    between atoms: C30_48  and  N8_50 
REMARK   14  A    between atoms: N8_50  and  C31_52 
ROOT
HETATM    1  N1  UNL     1      13.892   5.469   9.403  1.00  0.00    -0.341 N 
HETATM    2  C5  UNL     1      15.133   5.431  10.072  1.00  0.00     0.162 C 
HETATM    3  C6  UNL     1      16.175   4.400  10.251  1.00  0.00     0.063 C 
HETATM    4  N2  UNL     1      16.407   3.613   9.084  1.00  0.00    -0.325 N 
ATOM      5  H2  UNL     1      16.633   4.176   8.264  1.00  0.00     0.169 HD
HETATM    6  C11 UNL     1      16.394   2.244   8.815  1.00  0.00     0.244 C 
HETATM    7  O2  UNL     1      17.484   1.696   8.384  1.00  0.00    -0.271 OA
HETATM    8  C12 UNL     1      15.281   1.273   8.945  1.00  0.00     0.172 C 
HETATM    9  C13 UNL     1      15.914  -0.103   9.151  1.00  0.00     0.042 C 
HETATM   10  N3  UNL     1      14.584   1.297   7.674  1.00  0.00    -0.346 N 
ATOM     11  H3  UNL     1      14.544   2.203   7.207  1.00  0.00     0.163 HD
HETATM   12  C14 UNL     1      13.963   0.243   7.006  1.00  0.00     0.241 C 
HETATM   13  O3  UNL     1      14.207   0.161   5.748  1.00  0.00    -0.271 OA
HETATM   14  C15 UNL     1      13.056  -0.785   7.598  1.00  0.00     0.177 C 
HETATM   15  N4  UNL     1      11.804  -0.215   8.008  1.00  0.00    -0.346 N 
ATOM     16  H4  UNL     1      11.063  -0.885   8.215  1.00  0.00     0.163 HD
HETATM   17  C20 UNL     1      11.455   1.148   8.165  1.00  0.00     0.241 C 
HETATM   18  O4  UNL     1      11.200   1.488   9.363  1.00  0.00    -0.271 OA
HETATM   19  C21 UNL     1      11.340   2.210   7.171  1.00  0.00     0.179 C 
HETATM   20  N5  UNL     1      11.738   3.532   7.458  1.00  0.00    -0.359 N 
ATOM     21  H5  UNL     1      12.055   4.009   6.615  1.00  0.00     0.162 HD
HETATM   22  C25 UNL     1      11.820   4.372   8.568  1.00  0.00     0.135 C 
HETATM   23  C26 UNL     1      12.793   4.507   9.660  1.00  0.00     0.161 C 
ENDROOT
BRANCH  23  24
HETATM   24  C27 UNL     1      12.065   5.108  10.872  1.00  0.00     0.035 C 
BRANCH  24  25
HETATM   25  C28 UNL     1      11.946   4.221  12.042  1.00  0.00     0.022 C 
BRANCH  25  26
HETATM   26  C29 UNL     1      12.482   4.872  13.297  1.00  0.00     0.122 C 
BRANCH  26  27
HETATM   27  N6  UNL     1      13.487   5.867  13.012  1.00  0.00    -0.365 N 
HETATM   28  C30 UNL     1      13.753   6.855  13.791  1.00  0.00     0.183 C 
HETATM   29  N7  UNL     1      13.084   7.078  15.019  1.00  0.00    -0.064 NA
HETATM   30  N8  UNL     1      14.781   7.755  13.413  1.00  0.00    -0.365 N 
ATOM     31  H8  UNL     1      14.962   7.951  12.429  1.00  0.00     0.162 HD
ATOM     32  H6  UNL     1      14.016   5.782  12.144  1.00  0.00     0.162 HD
BRANCH  30  33
HETATM   33  C31 UNL     1      15.575   8.394  14.449  1.00  0.00     0.118 C 
HETATM   34  C32 UNL     1      17.014   8.536  14.032  1.00  0.00     0.026 C 
ENDBRANCH  30  33
ENDBRANCH  26  27
ENDBRANCH  25  26
ENDBRANCH  24  25
ENDBRANCH  23  24
BRANCH   1  35
HETATM   35  C3  UNL     1      13.643   6.515   8.449  1.00  0.00     0.105 C 
HETATM   36  C4  UNL     1      13.226   7.833   9.016  1.00  0.00     0.037 C 
BRANCH  35  37
HETATM   37  C2  UNL     1      14.822   6.761   7.578  1.00  0.00    -0.012 C 
HETATM   38  C1  UNL     1      14.939   7.755   6.749  1.00  0.00     0.009 C 
ENDBRANCH  35  37
ENDBRANCH   1  35
BRANCH  22  39
HETATM   39  O5  UNL     1      10.819   5.229   8.674  1.00  0.00    -0.348 OA
ATOM     40  H5  UNL     1      10.125   4.946   9.258  1.00  0.00     0.219 HD
ENDBRANCH  22  39
BRANCH   2  41
HETATM   41  O1  UNL     1      15.489   6.548  10.688  1.00  0.00    -0.345 OA
ATOM     42  H1  UNL     1      15.643   6.472  11.623  1.00  0.00     0.219 HD
ENDBRANCH   2  41
BRANCH   3  43
HETATM   43  C7  UNL     1      16.130   3.751  11.577  1.00  0.00     0.065 C 
BRANCH  43  44
HETATM   44  C8  UNL     1      17.313   3.952  12.461  1.00  0.00    -0.017 C 
HETATM   45  C9  UNL     1      18.425   4.749  11.789  1.00  0.00     0.010 C 
HETATM   46  C10 UNL     1      16.928   4.809  13.680  1.00  0.00     0.010 C 
ENDBRANCH  43  44
ENDBRANCH   3  43
BRANCH  19  47
HETATM   47  C22 UNL     1       9.930   2.149   6.545  1.00  0.00     0.009 C 
HETATM   48  C23 UNL     1       8.885   1.823   7.551  1.00  0.00     0.012 C 
HETATM   49  C24 UNL     1       9.921   1.157   5.439  1.00  0.00     0.012 C 
ENDBRANCH  19  47
BRANCH  14  50
HETATM   50  C16 UNL     1      13.053  -1.918   6.681  1.00  0.00     0.038 C 
BRANCH  50  51
HETATM   51  C17 UNL     1      11.910  -2.366   5.904  1.00  0.00    -0.020 C 
HETATM   52  C18 UNL     1      11.623  -3.821   6.402  1.00  0.00     0.009 C 
HETATM   53  C19 UNL     1      12.208  -2.575   4.441  1.00  0.00     0.009 C 
ENDBRANCH  50  51
ENDBRANCH  14  50
TORSDOF 14
ENDMDL
