MODEL 1
REMARK VINA RESULT: -7.096343374      0.000      0.000
REMARK  11 active torsions:
REMARK  status: ('A' for Active; 'I' for Inactive)
REMARK    1  A    between atoms: C2_2  and  C3_3 
REMARK    2  A    between atoms: C3_3  and  C4_4 
REMARK    3  A    between atoms: C6_9  and  C7_10 
REMARK    4  A    between atoms: C12_17  and  C13_18 
REMARK    5  A    between atoms: C13_18  and  C14_19 
REMARK    6  A    between atoms: C18_26  and  C19_27 
REMARK    7  A    between atoms: C19_27  and  C20_28 
REMARK    8  A    between atoms: C24_35  and  C25_36 
REMARK    9  A    between atoms: C25_36  and  C26_37 
REMARK   10  A    between atoms: C30_44  and  C31_45 
REMARK   11  A    between atoms: C31_45  and  N6_46 
REMARK       I    between atoms: N6_46  and  C32_48 
ROOT
HETATM    1  C4  UNL     1      12.707   5.166   8.974  1.00  0.00     0.105 C 
HETATM    2  C5  UNL     1      13.498   6.352   9.280  1.00  0.00     0.224 C 
HETATM    3  O1  UNL     1      13.585   7.194   8.293  1.00  0.00    -0.273 OA
HETATM    4  N1  UNL     1      14.173   6.740  10.428  1.00  0.00    -0.347 N 
ATOM      5  H1  UNL     1      15.146   6.992  10.255  1.00  0.00     0.163 HD
HETATM    6  C6  UNL     1      13.804   6.862  11.788  1.00  0.00     0.180 C 
HETATM    7  C10 UNL     1      14.371   8.074  12.474  1.00  0.00     0.243 C 
HETATM    8  O2  UNL     1      13.961   9.221  12.148  1.00  0.00    -0.271 OA
HETATM    9  N2  UNL     1      15.366   8.024  13.499  1.00  0.00    -0.341 N 
HETATM   10  C11 UNL     1      15.188   8.859  14.705  1.00  0.00     0.153 C 
HETATM   11  C12 UNL     1      16.545   7.187  13.489  1.00  0.00     0.179 C 
HETATM   12  C17 UNL     1      16.304   5.978  14.329  1.00  0.00     0.241 C 
HETATM   13  O3  UNL     1      15.748   6.256  15.469  1.00  0.00    -0.271 OA
HETATM   14  N3  UNL     1      16.578   4.648  14.079  1.00  0.00    -0.346 N 
ATOM     15  H3  UNL     1      15.889   4.014  14.484  1.00  0.00     0.163 HD
HETATM   16  C18 UNL     1      17.615   3.969  13.377  1.00  0.00     0.177 C 
HETATM   17  C23 UNL     1      17.876   4.466  11.977  1.00  0.00     0.241 C 
HETATM   18  O4  UNL     1      18.994   5.099  11.857  1.00  0.00    -0.271 OA
HETATM   19  N4  UNL     1      17.048   4.298  10.876  1.00  0.00    -0.346 N 
ATOM     20  H4  UNL     1      16.773   5.157  10.398  1.00  0.00     0.163 HD
HETATM   21  C24 UNL     1      16.513   3.054  10.306  1.00  0.00     0.177 C 
HETATM   22  C29 UNL     1      16.037   3.418   8.948  1.00  0.00     0.240 C 
HETATM   23  O5  UNL     1      16.778   3.001   7.980  1.00  0.00    -0.271 OA
HETATM   24  N5  UNL     1      14.907   4.148   8.574  1.00  0.00    -0.352 N 
ATOM     25  H5  UNL     1      15.108   5.007   8.061  1.00  0.00     0.163 HD
HETATM   26  C30 UNL     1      13.508   3.894   8.790  1.00  0.00     0.115 C 
ENDROOT
BRANCH  26  27
HETATM   27  C31 UNL     1      13.217   2.910   9.908  1.00  0.00     0.148 C 
BRANCH  27  28
HETATM   28  N6  UNL     1      13.043   1.558   9.368  1.00  0.00    -0.363 N 
HETATM   29  C32 UNL     1      12.962   1.255   7.998  1.00  0.00     0.181 C 
HETATM   30  N7  UNL     1      11.738   1.130   7.489  1.00  0.00    -0.374 N 
HETATM   31  N8  UNL     1      14.047   1.080   7.127  1.00  0.00    -0.064 NA
ATOM     32  H72 UNL     1      10.949   1.257   8.124  1.00  0.00     0.158 HD
ATOM     33  H71 UNL     1      11.679   0.910   6.495  1.00  0.00     0.158 HD
ATOM     34  H6  UNL     1      12.976   0.785  10.031  1.00  0.00     0.162 HD
ENDBRANCH  27  28
ENDBRANCH  26  27
BRANCH   1  35
HETATM   35  C3  UNL     1      11.853   5.351   7.708  1.00  0.00     0.042 C 
BRANCH  35  36
HETATM   36  C2  UNL     1      10.617   4.542   7.745  1.00  0.00    -0.036 C 
HETATM   37  C1  UNL     1      10.009   4.214   8.824  1.00  0.00     0.007 C 
ENDBRANCH  35  36
ENDBRANCH   1  35
BRANCH  21  38
HETATM   38  C25 UNL     1      17.604   2.017  10.207  1.00  0.00     0.038 C 
BRANCH  38  39
HETATM   39  C26 UNL     1      17.182   0.784   9.508  1.00  0.00    -0.020 C 
HETATM   40  C27 UNL     1      16.267  -0.084  10.345  1.00  0.00     0.009 C 
HETATM   41  C28 UNL     1      18.455  -0.070   9.288  1.00  0.00     0.009 C 
ENDBRANCH  38  39
ENDBRANCH  21  38
BRANCH   6  42
HETATM   42  C7  UNL     1      12.320   6.902  12.059  1.00  0.00     0.009 C 
HETATM   43  C8  UNL     1      11.819   5.463  12.258  1.00  0.00     0.012 C 
HETATM   44  C9  UNL     1      12.063   7.680  13.300  1.00  0.00     0.012 C 
ENDBRANCH   6  42
BRANCH  16  45
HETATM   45  C19 UNL     1      18.885   3.799  14.118  1.00  0.00     0.038 C 
BRANCH  45  46
HETATM   46  C20 UNL     1      19.155   4.670  15.283  1.00  0.00    -0.020 C 
HETATM   47  C21 UNL     1      18.678   3.970  16.584  1.00  0.00     0.009 C 
HETATM   48  C22 UNL     1      20.660   4.802  15.505  1.00  0.00     0.009 C 
ENDBRANCH  45  46
ENDBRANCH  16  45
BRANCH  11  49
HETATM   49  C13 UNL     1      17.803   7.887  13.836  1.00  0.00     0.039 C 
BRANCH  49  50
HETATM   50  C14 UNL     1      18.684   8.417  12.806  1.00  0.00    -0.020 C 
HETATM   51  C15 UNL     1      20.122   7.942  13.170  1.00  0.00     0.009 C 
HETATM   52  C16 UNL     1      18.819   9.861  12.557  1.00  0.00     0.009 C 
ENDBRANCH  49  50
ENDBRANCH  11  49
TORSDOF 11
ENDMDL
MODEL 2
REMARK VINA RESULT: -6.397356888      2.097      5.383
REMARK  11 active torsions:
REMARK  status: ('A' for Active; 'I' for Inactive)
REMARK    1  A    between atoms: C2_2  and  C3_3 
REMARK    2  A    between atoms: C3_3  and  C4_4 
REMARK    3  A    between atoms: C6_9  and  C7_10 
REMARK    4  A    between atoms: C12_17  and  C13_18 
REMARK    5  A    between atoms: C13_18  and  C14_19 
REMARK    6  A    between atoms: C18_26  and  C19_27 
REMARK    7  A    between atoms: C19_27  and  C20_28 
REMARK    8  A    between atoms: C24_35  and  C25_36 
REMARK    9  A    between atoms: C25_36  and  C26_37 
REMARK   10  A    between atoms: C30_44  and  C31_45 
REMARK   11  A    between atoms: C31_45  and  N6_46 
REMARK       I    between atoms: N6_46  and  C32_48 
ROOT
HETATM    1  C4  UNL     1      13.012   8.130  13.369  1.00  0.00     0.105 C 
HETATM    2  C5  UNL     1      14.397   8.525  13.141  1.00  0.00     0.224 C 
HETATM    3  O1  UNL     1      14.537   9.767  12.784  1.00  0.00    -0.273 OA
HETATM    4  N1  UNL     1      15.586   7.816  13.235  1.00  0.00    -0.347 N 
ATOM      5  H1  UNL     1      16.161   7.887  12.395  1.00  0.00     0.163 HD
HETATM    6  C6  UNL     1      16.173   7.016  14.242  1.00  0.00     0.180 C 
HETATM    7  C10 UNL     1      17.657   7.209  14.395  1.00  0.00     0.243 C 
HETATM    8  O2  UNL     1      18.098   8.299  14.852  1.00  0.00    -0.271 OA
HETATM    9  N2  UNL     1      18.634   6.223  14.055  1.00  0.00    -0.341 N 
HETATM   10  C11 UNL     1      19.743   5.965  14.997  1.00  0.00     0.153 C 
HETATM   11  C12 UNL     1      18.625   5.404  12.863  1.00  0.00     0.179 C 
HETATM   12  C17 UNL     1      18.076   4.056  13.190  1.00  0.00     0.241 C 
HETATM   13  O3  UNL     1      18.569   3.559  14.283  1.00  0.00    -0.271 OA
HETATM   14  N3  UNL     1      17.148   3.284  12.519  1.00  0.00    -0.346 N 
ATOM     15  H3  UNL     1      16.562   2.730  13.144  1.00  0.00     0.163 HD
HETATM   16  C18 UNL     1      16.831   3.094  11.144  1.00  0.00     0.177 C 
HETATM   17  C23 UNL     1      16.606   4.360  10.355  1.00  0.00     0.241 C 
HETATM   18  O4  UNL     1      17.549   4.614   9.511  1.00  0.00    -0.271 OA
HETATM   19  N4  UNL     1      15.521   5.217  10.466  1.00  0.00    -0.346 N 
ATOM     20  H4  UNL     1      15.748   6.191  10.666  1.00  0.00     0.163 HD
HETATM   21  C24 UNL     1      14.089   4.913  10.335  1.00  0.00     0.177 C 
HETATM   22  C29 UNL     1      13.424   6.227  10.152  1.00  0.00     0.240 C 
HETATM   23  O5  UNL     1      13.011   6.468   8.955  1.00  0.00    -0.271 OA
HETATM   24  N5  UNL     1      13.188   7.236  11.088  1.00  0.00    -0.352 N 
ATOM     25  H5  UNL     1      13.635   8.127  10.873  1.00  0.00     0.163 HD
HETATM   26  C30 UNL     1      12.421   7.230  12.304  1.00  0.00     0.115 C 
ENDROOT
BRANCH  26  27
HETATM   27  C31 UNL     1      12.145   5.847  12.863  1.00  0.00     0.148 C 
BRANCH  27  28
HETATM   28  N6  UNL     1      12.919   5.624  14.088  1.00  0.00    -0.363 N 
HETATM   29  C32 UNL     1      12.367   5.201  15.309  1.00  0.00     0.181 C 
HETATM   30  N7  UNL     1      12.087   6.155  16.195  1.00  0.00    -0.374 N 
HETATM   31  N8  UNL     1      12.082   3.877  15.671  1.00  0.00    -0.064 NA
ATOM     32  H72 UNL     1      12.295   7.119  15.932  1.00  0.00     0.158 HD
ATOM     33  H71 UNL     1      11.686   5.848  17.082  1.00  0.00     0.158 HD
ATOM     34  H6  UNL     1      13.925   5.787  14.052  1.00  0.00     0.162 HD
ENDBRANCH  27  28
ENDBRANCH  26  27
BRANCH   1  35
HETATM   35  C3  UNL     1      12.080   9.346  13.505  1.00  0.00     0.042 C 
BRANCH  35  36
HETATM   36  C2  UNL     1      11.677   9.587  14.906  1.00  0.00    -0.036 C 
HETATM   37  C1  UNL     1      12.457  10.068  15.802  1.00  0.00     0.007 C 
ENDBRANCH  35  36
ENDBRANCH   1  35
BRANCH  21  38
HETATM   38  C25 UNL     1      13.851   4.044   9.125  1.00  0.00     0.038 C 
BRANCH  38  39
HETATM   39  C26 UNL     1      13.231   2.741   9.451  1.00  0.00    -0.020 C 
HETATM   40  C27 UNL     1      13.353   1.733   8.329  1.00  0.00     0.009 C 
HETATM   41  C28 UNL     1      11.709   2.990   9.603  1.00  0.00     0.009 C 
ENDBRANCH  38  39
ENDBRANCH  21  38
BRANCH   6  42
HETATM   42  C7  UNL     1      15.599   7.187  15.626  1.00  0.00     0.009 C 
HETATM   43  C8  UNL     1      16.174   6.089  16.535  1.00  0.00     0.012 C 
HETATM   44  C9  UNL     1      15.993   8.517  16.167  1.00  0.00     0.012 C 
ENDBRANCH   6  42
BRANCH  16  45
HETATM   45  C19 UNL     1      17.718   2.167  10.405  1.00  0.00     0.038 C 
BRANCH  45  46
HETATM   46  C20 UNL     1      17.110   1.141   9.530  1.00  0.00    -0.020 C 
HETATM   47  C21 UNL     1      18.175   0.076   9.151  1.00  0.00     0.009 C 
HETATM   48  C22 UNL     1      16.082   0.325  10.309  1.00  0.00     0.009 C 
ENDBRANCH  45  46
ENDBRANCH  16  45
BRANCH  11  49
HETATM   49  C13 UNL     1      19.921   5.340  12.148  1.00  0.00     0.039 C 
BRANCH  49  50
HETATM   50  C14 UNL     1      20.463   6.498  11.455  1.00  0.00    -0.020 C 
HETATM   51  C15 UNL     1      21.968   6.579  11.843  1.00  0.00     0.009 C 
HETATM   52  C16 UNL     1      19.945   7.858  11.677  1.00  0.00     0.009 C 
ENDBRANCH  49  50
ENDBRANCH  11  49
TORSDOF 11
ENDMDL
MODEL 3
REMARK VINA RESULT: -6.126811883     11.094     17.350
REMARK  11 active torsions:
REMARK  status: ('A' for Active; 'I' for Inactive)
REMARK    1  A    between atoms: C2_2  and  C3_3 
REMARK    2  A    between atoms: C3_3  and  C4_4 
REMARK    3  A    between atoms: C6_9  and  C7_10 
REMARK    4  A    between atoms: C12_17  and  C13_18 
REMARK    5  A    between atoms: C13_18  and  C14_19 
REMARK    6  A    between atoms: C18_26  and  C19_27 
REMARK    7  A    between atoms: C19_27  and  C20_28 
REMARK    8  A    between atoms: C24_35  and  C25_36 
REMARK    9  A    between atoms: C25_36  and  C26_37 
REMARK   10  A    between atoms: C30_44  and  C31_45 
REMARK   11  A    between atoms: C31_45  and  N6_46 
REMARK       I    between atoms: N6_46  and  C32_48 
ROOT
HETATM    1  C4  UNL     1       9.751  -4.548   4.309  1.00  0.00     0.105 C 
HETATM    2  C5  UNL     1       9.031  -5.401   3.370  1.00  0.00     0.224 C 
HETATM    3  O1  UNL     1       9.519  -5.385   2.165  1.00  0.00    -0.273 OA
HETATM    4  N1  UNL     1       7.924  -6.221   3.531  1.00  0.00    -0.347 N 
ATOM      5  H1  UNL     1       7.189  -6.040   2.847  1.00  0.00     0.163 HD
HETATM    6  C6  UNL     1       7.593  -7.254   4.439  1.00  0.00     0.180 C 
HETATM    7  C10 UNL     1       6.884  -8.423   3.810  1.00  0.00     0.243 C 
HETATM    8  O2  UNL     1       7.511  -9.174   3.014  1.00  0.00    -0.271 OA
HETATM    9  N2  UNL     1       5.517  -8.758   4.054  1.00  0.00    -0.341 N 
HETATM   10  C11 UNL     1       5.164 -10.170   4.309  1.00  0.00     0.153 C 
HETATM   11  C12 UNL     1       4.417  -7.820   4.114  1.00  0.00     0.179 C 
HETATM   12  C17 UNL     1       4.099  -7.517   5.539  1.00  0.00     0.241 C 
HETATM   13  O3  UNL     1       4.053  -8.577   6.285  1.00  0.00    -0.271 OA
HETATM   14  N3  UNL     1       3.853  -6.307   6.160  1.00  0.00    -0.346 N 
ATOM     15  H3  UNL     1       4.192  -6.276   7.122  1.00  0.00     0.163 HD
HETATM   16  C18 UNL     1       3.230  -5.095   5.749  1.00  0.00     0.177 C 
HETATM   17  C23 UNL     1       3.734  -4.522   4.449  1.00  0.00     0.241 C 
HETATM   18  O4  UNL     1       2.885  -4.615   3.482  1.00  0.00    -0.271 OA
HETATM   19  N4  UNL     1       4.973  -3.935   4.233  1.00  0.00    -0.346 N 
ATOM     20  H4  UNL     1       5.528  -4.343   3.481  1.00  0.00     0.163 HD
HETATM   21  C24 UNL     1       5.594  -2.806   4.940  1.00  0.00     0.177 C 
HETATM   22  C29 UNL     1       6.705  -2.357   4.064  1.00  0.00     0.240 C 
HETATM   23  O5  UNL     1       6.493  -1.251   3.438  1.00  0.00    -0.271 OA
HETATM   24  N5  UNL     1       7.938  -2.964   3.820  1.00  0.00    -0.352 N 
ATOM     25  H5  UNL     1       8.098  -3.224   2.847  1.00  0.00     0.163 HD
HETATM   26  C30 UNL     1       9.022  -3.284   4.710  1.00  0.00     0.115 C 
ENDROOT
BRANCH  26  27
HETATM   27  C31 UNL     1       8.633  -3.331   6.176  1.00  0.00     0.148 C 
BRANCH  27  28
HETATM   28  N6  UNL     1       8.569  -1.976   6.733  1.00  0.00    -0.363 N 
HETATM   29  C32 UNL     1       9.406  -0.917   6.342  1.00  0.00     0.181 C 
HETATM   30  N7  UNL     1      10.475  -0.694   7.105  1.00  0.00    -0.374 N 
HETATM   31  N8  UNL     1       9.220  -0.085   5.229  1.00  0.00    -0.064 NA
ATOM     32  H72 UNL     1      10.610  -1.299   7.915  1.00  0.00     0.158 HD
ATOM     33  H71 UNL     1      11.084   0.074   6.821  1.00  0.00     0.158 HD
ATOM     34  H6  UNL     1       7.869  -1.789   7.452  1.00  0.00     0.162 HD
ENDBRANCH  27  28
ENDBRANCH  26  27
BRANCH   1  35
HETATM   35  C3  UNL     1      11.127  -4.126   3.766  1.00  0.00     0.042 C 
BRANCH  35  36
HETATM   36  C2  UNL     1      11.819  -3.184   4.671  1.00  0.00    -0.036 C 
HETATM   37  C1  UNL     1      12.334  -2.075   4.289  1.00  0.00     0.007 C 
ENDBRANCH  35  36
ENDBRANCH   1  35
BRANCH  21  38
HETATM   38  C25 UNL     1       4.594  -1.690   5.116  1.00  0.00     0.038 C 
BRANCH  38  39
HETATM   39  C26 UNL     1       5.221  -0.361   5.285  1.00  0.00    -0.020 C 
HETATM   40  C27 UNL     1       5.660  -0.094   6.709  1.00  0.00     0.009 C 
HETATM   41  C28 UNL     1       4.125   0.696   4.999  1.00  0.00     0.009 C 
ENDBRANCH  38  39
ENDBRANCH  21  38
BRANCH   6  42
HETATM   42  C7  UNL     1       8.752  -7.847   5.200  1.00  0.00     0.009 C 
HETATM   43  C8  UNL     1       8.197  -8.743   6.318  1.00  0.00     0.012 C 
HETATM   44  C9  UNL     1       9.578  -8.676   4.282  1.00  0.00     0.012 C 
ENDBRANCH   6  42
BRANCH  16  45
HETATM   45  C19 UNL     1       1.750  -5.092   5.784  1.00  0.00     0.038 C 
BRANCH  45  46
HETATM   46  C20 UNL     1       1.018  -6.228   5.182  1.00  0.00    -0.020 C 
HETATM   47  C21 UNL     1       0.484  -7.161   6.302  1.00  0.00     0.009 C 
HETATM   48  C22 UNL     1      -0.264  -5.736   4.516  1.00  0.00     0.009 C 
ENDBRANCH  45  46
ENDBRANCH  16  45
BRANCH  11  49
HETATM   49  C13 UNL     1       3.225  -8.217   3.330  1.00  0.00     0.039 C 
BRANCH  49  50
HETATM   50  C14 UNL     1       2.975  -7.674   2.003  1.00  0.00    -0.020 C 
HETATM   51  C15 UNL     1       1.462  -7.897   1.714  1.00  0.00     0.009 C 
HETATM   52  C16 UNL     1       3.664  -8.182   0.806  1.00  0.00     0.009 C 
ENDBRANCH  49  50
ENDBRANCH  11  49
TORSDOF 11
ENDMDL
MODEL 4
REMARK VINA RESULT: -5.716986340      2.863      7.530
REMARK  11 active torsions:
REMARK  status: ('A' for Active; 'I' for Inactive)
REMARK    1  A    between atoms: C2_2  and  C3_3 
REMARK    2  A    between atoms: C3_3  and  C4_4 
REMARK    3  A    between atoms: C6_9  and  C7_10 
REMARK    4  A    between atoms: C12_17  and  C13_18 
REMARK    5  A    between atoms: C13_18  and  C14_19 
REMARK    6  A    between atoms: C18_26  and  C19_27 
REMARK    7  A    between atoms: C19_27  and  C20_28 
REMARK    8  A    between atoms: C24_35  and  C25_36 
REMARK    9  A    between atoms: C25_36  and  C26_37 
REMARK   10  A    between atoms: C30_44  and  C31_45 
REMARK   11  A    between atoms: C31_45  and  N6_46 
REMARK       I    between atoms: N6_46  and  C32_48 
ROOT
HETATM    1  C4  UNL     1      17.521   5.345  14.286  1.00  0.00     0.105 C 
HETATM    2  C5  UNL     1      17.167   6.169  15.437  1.00  0.00     0.224 C 
HETATM    3  O1  UNL     1      17.206   5.533  16.569  1.00  0.00    -0.273 OA
HETATM    4  N1  UNL     1      16.796   7.502  15.538  1.00  0.00    -0.347 N 
ATOM      5  H1  UNL     1      15.929   7.638  16.057  1.00  0.00     0.163 HD
HETATM    6  C6  UNL     1      17.361   8.713  15.077  1.00  0.00     0.180 C 
HETATM    7  C10 UNL     1      17.278   9.847  16.062  1.00  0.00     0.243 C 
HETATM    8  O2  UNL     1      17.964   9.803  17.119  1.00  0.00    -0.271 OA
HETATM    9  N2  UNL     1      16.457  11.004  15.887  1.00  0.00    -0.341 N 
HETATM   10  C11 UNL     1      17.033  12.334  16.171  1.00  0.00     0.153 C 
HETATM   11  C12 UNL     1      15.092  11.004  15.411  1.00  0.00     0.179 C 
HETATM   12  C17 UNL     1      15.070  11.359  13.963  1.00  0.00     0.241 C 
HETATM   13  O3  UNL     1      15.829  12.372  13.677  1.00  0.00    -0.271 OA
HETATM   14  N3  UNL     1      14.380  10.782  12.913  1.00  0.00    -0.346 N 
ATOM     15  H3  UNL     1      14.896  10.808  12.034  1.00  0.00     0.163 HD
HETATM   16  C18 UNL     1      13.105  10.160  12.794  1.00  0.00     0.177 C 
HETATM   17  C23 UNL     1      12.822   9.075  13.803  1.00  0.00     0.241 C 
HETATM   18  O4  UNL     1      11.939   9.409  14.682  1.00  0.00    -0.271 OA
HETATM   19  N4  UNL     1      13.410   7.819  13.848  1.00  0.00    -0.346 N 
ATOM     20  H4  UNL     1      13.863   7.577  14.730  1.00  0.00     0.163 HD
HETATM   21  C24 UNL     1      13.469   6.790  12.800  1.00  0.00     0.177 C 
HETATM   22  C29 UNL     1      13.848   5.538  13.501  1.00  0.00     0.240 C 
HETATM   23  O5  UNL     1      12.895   4.682  13.643  1.00  0.00    -0.271 OA
HETATM   24  N5  UNL     1      15.084   5.161  14.027  1.00  0.00    -0.352 N 
ATOM     25  H5  UNL     1      15.084   4.993  15.034  1.00  0.00     0.163 HD
HETATM   26  C30 UNL     1      16.360   4.967  13.391  1.00  0.00     0.115 C 
ENDROOT
BRANCH  26  27
HETATM   27  C31 UNL     1      16.488   5.635  12.035  1.00  0.00     0.148 C 
BRANCH  27  28
HETATM   28  N6  UNL     1      17.208   4.764  11.100  1.00  0.00    -0.363 N 
HETATM   29  C32 UNL     1      16.587   3.881  10.201  1.00  0.00     0.181 C 
HETATM   30  N7  UNL     1      16.478   2.613  10.594  1.00  0.00    -0.374 N 
HETATM   31  N8  UNL     1      16.074   4.214   8.939  1.00  0.00    -0.064 NA
ATOM     32  H72 UNL     1      16.852   2.371  11.512  1.00  0.00     0.158 HD
ATOM     33  H71 UNL     1      16.026   1.972   9.941  1.00  0.00     0.158 HD
ATOM     34  H6  UNL     1      18.227   4.801  11.103  1.00  0.00     0.162 HD
ENDBRANCH  27  28
ENDBRANCH  26  27
BRANCH   1  35
HETATM   35  C3  UNL     1      18.216   4.038  14.703  1.00  0.00     0.042 C 
BRANCH  35  36
HETATM   36  C2  UNL     1      19.669   4.068  14.434  1.00  0.00    -0.036 C 
HETATM   37  C1  UNL     1      20.202   4.707  13.460  1.00  0.00     0.007 C 
ENDBRANCH  35  36
ENDBRANCH   1  35
BRANCH  21  38
HETATM   38  C25 UNL     1      12.114   6.629  12.155  1.00  0.00     0.038 C 
BRANCH  38  39
HETATM   39  C26 UNL     1      12.169   6.589  10.677  1.00  0.00    -0.020 C 
HETATM   40  C27 UNL     1      12.341   5.188  10.131  1.00  0.00     0.009 C 
HETATM   41  C28 UNL     1      13.453   7.345  10.252  1.00  0.00     0.009 C 
ENDBRANCH  38  39
ENDBRANCH  21  38
BRANCH   6  42
HETATM   42  C7  UNL     1      18.811   8.642  14.667  1.00  0.00     0.009 C 
HETATM   43  C8  UNL     1      18.882   8.258  13.181  1.00  0.00     0.012 C 
HETATM   44  C9  UNL     1      19.446   9.974  14.853  1.00  0.00     0.012 C 
ENDBRANCH   6  42
BRANCH  16  45
HETATM   45  C19 UNL     1      11.952  11.080  12.676  1.00  0.00     0.038 C 
BRANCH  45  46
HETATM   46  C20 UNL     1      12.205  12.515  12.422  1.00  0.00    -0.020 C 
HETATM   47  C21 UNL     1      11.165  13.060  11.406  1.00  0.00     0.009 C 
HETATM   48  C22 UNL     1      11.909  13.333  13.677  1.00  0.00     0.009 C 
ENDBRANCH  45  46
ENDBRANCH  16  45
BRANCH  11  49
HETATM   49  C13 UNL     1      14.157  11.823  16.218  1.00  0.00     0.039 C 
BRANCH  49  50
HETATM   50  C14 UNL     1      13.439  11.260  17.351  1.00  0.00    -0.020 C 
HETATM   51  C15 UNL     1      12.072  12.001  17.419  1.00  0.00     0.009 C 
HETATM   52  C16 UNL     1      13.968  11.320  18.723  1.00  0.00     0.009 C 
ENDBRANCH  49  50
ENDBRANCH  11  49
TORSDOF 11
ENDMDL
MODEL 5
REMARK VINA RESULT: -5.643713695      3.088      6.855
REMARK  11 active torsions:
REMARK  status: ('A' for Active; 'I' for Inactive)
REMARK    1  A    between atoms: C2_2  and  C3_3 
REMARK    2  A    between atoms: C3_3  and  C4_4 
REMARK    3  A    between atoms: C6_9  and  C7_10 
REMARK    4  A    between atoms: C12_17  and  C13_18 
REMARK    5  A    between atoms: C13_18  and  C14_19 
REMARK    6  A    between atoms: C18_26  and  C19_27 
REMARK    7  A    between atoms: C19_27  and  C20_28 
REMARK    8  A    between atoms: C24_35  and  C25_36 
REMARK    9  A    between atoms: C25_36  and  C26_37 
REMARK   10  A    between atoms: C30_44  and  C31_45 
REMARK   11  A    between atoms: C31_45  and  N6_46 
REMARK       I    between atoms: N6_46  and  C32_48 
ROOT
HETATM    1  C4  UNL     1      13.657   7.133  17.011  1.00  0.00     0.105 C 
HETATM    2  C5  UNL     1      14.835   7.842  16.523  1.00  0.00     0.224 C 
HETATM    3  O1  UNL     1      14.808   9.121  16.749  1.00  0.00    -0.273 OA
HETATM    4  N1  UNL     1      15.972   7.398  15.864  1.00  0.00    -0.347 N 
ATOM      5  H1  UNL     1      16.167   7.919  15.009  1.00  0.00     0.163 HD
HETATM    6  C6  UNL     1      16.918   6.379  16.120  1.00  0.00     0.180 C 
HETATM    7  C10 UNL     1      18.340   6.769  15.818  1.00  0.00     0.243 C 
HETATM    8  O2  UNL     1      18.913   7.632  16.537  1.00  0.00    -0.271 OA
HETATM    9  N2  UNL     1      19.113   6.218  14.750  1.00  0.00    -0.341 N 
HETATM   10  C11 UNL     1      20.507   5.807  15.019  1.00  0.00     0.153 C 
HETATM   11  C12 UNL     1      18.643   5.983  13.403  1.00  0.00     0.179 C 
HETATM   12  C17 UNL     1      18.283   4.544  13.246  1.00  0.00     0.241 C 
HETATM   13  O3  UNL     1      19.174   3.741  13.743  1.00  0.00    -0.271 OA
HETATM   14  N3  UNL     1      17.173   3.960  12.666  1.00  0.00    -0.346 N 
ATOM     15  H3  UNL     1      16.889   3.096  13.129  1.00  0.00     0.163 HD
HETATM   16  C18 UNL     1      16.341   4.302  11.563  1.00  0.00     0.177 C 
HETATM   17  C23 UNL     1      15.809   5.713  11.572  1.00  0.00     0.241 C 
HETATM   18  O4  UNL     1      16.338   6.469  10.670  1.00  0.00    -0.271 OA
HETATM   19  N4  UNL     1      14.846   6.224  12.431  1.00  0.00    -0.346 N 
ATOM     20  H4  UNL     1      15.123   7.050  12.961  1.00  0.00     0.163 HD
HETATM   21  C24 UNL     1      13.482   5.736  12.683  1.00  0.00     0.177 C 
HETATM   22  C29 UNL     1      12.785   6.855  13.364  1.00  0.00     0.240 C 
HETATM   23  O5  UNL     1      11.930   7.488  12.636  1.00  0.00    -0.271 OA
HETATM   24  N5  UNL     1      12.927   7.319  14.673  1.00  0.00    -0.352 N 
ATOM     25  H5  UNL     1      13.243   8.286  14.748  1.00  0.00     0.163 HD
HETATM   26  C30 UNL     1      12.703   6.663  15.933  1.00  0.00     0.115 C 
ENDROOT
BRANCH  26  27
HETATM   27  C31 UNL     1      12.686   5.148  15.854  1.00  0.00     0.148 C 
BRANCH  27  28
HETATM   28  N6  UNL     1      11.311   4.646  15.925  1.00  0.00    -0.363 N 
HETATM   29  C32 UNL     1      10.791   3.909  17.003  1.00  0.00     0.181 C 
HETATM   30  N7  UNL     1      10.789   2.584  16.869  1.00  0.00    -0.374 N 
HETATM   31  N8  UNL     1      10.282   4.440  18.197  1.00  0.00    -0.064 NA
ATOM     32  H72 UNL     1      11.159   2.197  16.000  1.00  0.00     0.158 HD
ATOM     33  H71 UNL     1      10.412   2.048  17.651  1.00  0.00     0.158 HD
ATOM     34  H6  UNL     1      10.689   4.845  15.141  1.00  0.00     0.162 HD
ENDBRANCH  27  28
ENDBRANCH  26  27
BRANCH   1  35
HETATM   35  C3  UNL     1      12.841   7.981  18.001  1.00  0.00     0.042 C 
BRANCH  35  36
HETATM   36  C2  UNL     1      12.675   7.310  19.307  1.00  0.00    -0.036 C 
HETATM   37  C1  UNL     1      13.595   7.236  20.195  1.00  0.00     0.007 C 
ENDBRANCH  35  36
ENDBRANCH   1  35
BRANCH  21  38
HETATM   38  C25 UNL     1      12.796   5.420  11.377  1.00  0.00     0.038 C 
BRANCH  38  39
HETATM   39  C26 UNL     1      12.132   4.098  11.368  1.00  0.00    -0.020 C 
HETATM   40  C27 UNL     1      12.531   3.246  10.182  1.00  0.00     0.009 C 
HETATM   41  C28 UNL     1      10.615   4.355  11.184  1.00  0.00     0.009 C 
ENDBRANCH  38  39
ENDBRANCH  21  38
BRANCH   6  42
HETATM   42  C7  UNL     1      16.936   5.847  17.531  1.00  0.00     0.009 C 
HETATM   43  C8  UNL     1      18.099   4.851  17.665  1.00  0.00     0.012 C 
HETATM   44  C9  UNL     1      17.151   6.971  18.483  1.00  0.00     0.012 C 
ENDBRANCH   6  42
BRANCH  16  45
HETATM   45  C19 UNL     1      16.874   3.952  10.226  1.00  0.00     0.038 C 
BRANCH  45  46
HETATM   46  C20 UNL     1      16.550   2.629   9.651  1.00  0.00    -0.020 C 
HETATM   47  C21 UNL     1      15.553   2.798   8.473  1.00  0.00     0.009 C 
HETATM   48  C22 UNL     1      17.779   2.035   8.969  1.00  0.00     0.009 C 
ENDBRANCH  45  46
ENDBRANCH  16  45
BRANCH  11  49
HETATM   49  C13 UNL     1      19.551   6.469  12.338  1.00  0.00     0.039 C 
BRANCH  49  50
HETATM   50  C14 UNL     1      19.573   7.868  11.941  1.00  0.00    -0.020 C 
HETATM   51  C15 UNL     1      21.073   8.272  11.834  1.00  0.00     0.009 C 
HETATM   52  C16 UNL     1      18.957   8.925  12.758  1.00  0.00     0.009 C 
ENDBRANCH  49  50
ENDBRANCH  11  49
TORSDOF 11
ENDMDL
