MODEL 1
REMARK VINA RESULT: -8.632699202      0.000      0.000
REMARK  12 active torsions:
REMARK  status: ('A' for Active; 'I' for Inactive)
REMARK    1  A    between atoms: C2_2  and  C3_3 
REMARK    2  A    between atoms: N1_5  and  C5_6 
REMARK    3  A    between atoms: C7_8  and  C8_9 
REMARK    4  A    between atoms: C8_9  and  N2_10 
REMARK       I    between atoms: N2_10  and  C9_12 
REMARK       I    between atoms: C9_12  and  N3_14 
REMARK    5  A    between atoms: C18_27  and  C19_28 
REMARK    6  A    between atoms: C22_32  and  C23_33 
REMARK    7  A    between atoms: C23_33  and  N5_34 
REMARK       I    between atoms: N5_34  and  C24_36 
REMARK       I    between atoms: C24_36  and  N6_38 
REMARK    8  A    between atoms: N6_38  and  C25_40 
REMARK    9  A    between atoms: C25_40  and  C26_41 
REMARK   10  A    between atoms: C26_41  and  C27_42 
REMARK   11  A    between atoms: C27_42  and  C28_43 
REMARK   12  A    between atoms: C28_43  and  N7_44 
REMARK       I    between atoms: N7_44  and  C29_46 
ROOT
HETATM    1  C3  UNL     1      11.621   3.810   8.367  1.00  0.00     0.053 C 
HETATM    2  C4  UNL     1      11.834   5.266   8.230  1.00  0.00     0.067 C 
HETATM    3  N1  UNL     1      12.913   5.669   8.735  1.00  0.00    -0.386 N 
HETATM    4  C7  UNL     1      13.632   4.601   9.317  1.00  0.00     0.107 C 
HETATM    5  C22 UNL     1      12.952   3.357   8.886  1.00  0.00     0.040 C 
ENDROOT
BRANCH   4   6
HETATM    6  C8  UNL     1      13.575   4.826  10.814  1.00  0.00     0.150 C 
BRANCH   6   7
HETATM    7  N2  UNL     1      14.827   4.807  11.491  1.00  0.00    -0.340 N 
HETATM    8  C9  UNL     1      15.531   5.937  11.942  1.00  0.00     0.333 C 
HETATM    9  O1  UNL     1      14.973   7.056  11.711  1.00  0.00    -0.246 OA
HETATM   10  N3  UNL     1      16.783   5.935  12.618  1.00  0.00    -0.182 N 
HETATM   11  C10 UNL     1      17.471   7.099  13.046  1.00  0.00     0.260 A 
HETATM   12  C21 UNL     1      17.609   4.850  13.006  1.00  0.00     0.337 A 
HETATM   13  O2  UNL     1      17.066   8.271  12.803  1.00  0.00    -0.270 OA
HETATM   14  C11 UNL     1      18.688   6.729  13.790  1.00  0.00     0.192 A 
HETATM   15  N4  UNL     1      18.782   5.322  13.657  1.00  0.00    -0.308 N 
HETATM   16  C18 UNL     1      18.543   7.190  15.237  1.00  0.00     0.001 A 
HETATM   17  C12 UNL     1      19.796   4.338  14.042  1.00  0.00     0.237 C 
HETATM   18  S1  UNL     1      20.586   4.758  15.554  1.00  0.00     0.033 S 
HETATM   19  O3  UNL     1      19.629   4.431  16.898  1.00  0.00    -0.256 OA
HETATM   20  C13 UNL     1      20.968   6.508  15.463  1.00  0.00     0.116 C 
HETATM   21  C14 UNL     1      19.757   7.205  16.023  1.00  0.00     0.018 A 
HETATM   22  C15 UNL     1      19.283   8.503  15.482  1.00  0.00    -0.032 A 
HETATM   23  C16 UNL     1      20.057   9.166  14.362  1.00  0.00     0.016 C 
HETATM   24  C17 UNL     1      18.726   9.500  16.485  1.00  0.00     0.016 C 
HETATM   25  O4  UNL     1      17.342   3.608  12.800  1.00  0.00    -0.246 OA
ATOM     26  H2  UNL     1      15.250   3.894  11.664  1.00  0.00     0.164 HD
BRANCH  16  27
HETATM   27  C19 UNL     1      17.184   6.966  15.756  1.00  0.00     0.009 C 
HETATM   28  C20 UNL     1      16.968   6.275  17.032  1.00  0.00     0.006 C 
ENDBRANCH  16  27
ENDBRANCH   6   7
ENDBRANCH   4   6
BRANCH   3  29
HETATM   29  C5  UNL     1      13.336   7.042   8.724  1.00  0.00     0.118 C 
HETATM   30  C6  UNL     1      14.565   7.211   7.876  1.00  0.00     0.026 C 
ENDBRANCH   3  29
BRANCH   5  31
HETATM   31  C23 UNL     1      13.749   2.640   7.829  1.00  0.00     0.132 C 
BRANCH  31  32
HETATM   32  N5  UNL     1      13.015   2.405   6.600  1.00  0.00    -0.343 N 
HETATM   33  C24 UNL     1      12.251   1.228   6.422  1.00  0.00     0.316 C 
HETATM   34  O5  UNL     1      12.222   0.389   7.352  1.00  0.00    -0.247 OA
HETATM   35  N6  UNL     1      11.546   1.013   5.227  1.00  0.00    -0.343 N 
ATOM     36  H6  UNL     1      11.584   1.706   4.479  1.00  0.00     0.164 HD
ATOM     37  H5  UNL     1      13.050   3.099   5.853  1.00  0.00     0.164 HD
BRANCH  35  38
HETATM   38  C25 UNL     1      10.769  -0.186   5.057  1.00  0.00     0.124 C 
BRANCH  38  39
HETATM   39  C26 UNL     1       9.291   0.024   5.060  1.00  0.00     0.021 C 
BRANCH  39  40
HETATM   40  C27 UNL     1       8.720   0.412   6.399  1.00  0.00     0.021 C 
BRANCH  40  41
HETATM   41  C28 UNL     1       7.296   0.897   6.143  1.00  0.00     0.122 C 
BRANCH  41  42
HETATM   42  N7  UNL     1       6.523  -0.159   5.515  1.00  0.00    -0.365 N 
HETATM   43  C29 UNL     1       5.373   0.188   4.779  1.00  0.00     0.181 C 
HETATM   44  N8  UNL     1       4.803   1.329   4.965  1.00  0.00    -0.374 N 
HETATM   45  N9  UNL     1       4.845  -0.722   3.837  1.00  0.00    -0.064 NA
ATOM     46  H82 UNL     1       5.184   1.986   5.645  1.00  0.00     0.158 HD
ATOM     47  H81 UNL     1       3.970   1.580   4.432  1.00  0.00     0.158 HD
ATOM     48  H7  UNL     1       6.807  -1.134   5.605  1.00  0.00     0.162 HD
ENDBRANCH  41  42
ENDBRANCH  40  41
ENDBRANCH  39  40
ENDBRANCH  38  39
ENDBRANCH  35  38
ENDBRANCH  31  32
ENDBRANCH   5  31
BRANCH   1  49
HETATM   49  C2  UNL     1      10.539   3.471   9.336  1.00  0.00    -0.026 C 
HETATM   50  C1  UNL     1       9.774   4.416   9.845  1.00  0.00     0.007 C 
ENDBRANCH   1  49
TORSDOF 12
ENDMDL
MODEL 2
REMARK VINA RESULT: -8.559682305      2.122      3.775
REMARK  12 active torsions:
REMARK  status: ('A' for Active; 'I' for Inactive)
REMARK    1  A    between atoms: C2_2  and  C3_3 
REMARK    2  A    between atoms: N1_5  and  C5_6 
REMARK    3  A    between atoms: C7_8  and  C8_9 
REMARK    4  A    between atoms: C8_9  and  N2_10 
REMARK       I    between atoms: N2_10  and  C9_12 
REMARK       I    between atoms: C9_12  and  N3_14 
REMARK    5  A    between atoms: C18_27  and  C19_28 
REMARK    6  A    between atoms: C22_32  and  C23_33 
REMARK    7  A    between atoms: C23_33  and  N5_34 
REMARK       I    between atoms: N5_34  and  C24_36 
REMARK       I    between atoms: C24_36  and  N6_38 
REMARK    8  A    between atoms: N6_38  and  C25_40 
REMARK    9  A    between atoms: C25_40  and  C26_41 
REMARK   10  A    between atoms: C26_41  and  C27_42 
REMARK   11  A    between atoms: C27_42  and  C28_43 
REMARK   12  A    between atoms: C28_43  and  N7_44 
REMARK       I    between atoms: N7_44  and  C29_46 
ROOT
HETATM    1  C3  UNL     1      14.557   0.157   9.421  1.00  0.00     0.053 C 
HETATM    2  C4  UNL     1      13.718   1.337   9.718  1.00  0.00     0.067 C 
HETATM    3  N1  UNL     1      13.945   2.320   8.968  1.00  0.00    -0.386 N 
HETATM    4  C7  UNL     1      14.967   2.026   8.038  1.00  0.00     0.107 C 
HETATM    5  C22 UNL     1      15.214   0.569   8.137  1.00  0.00     0.040 C 
ENDROOT
BRANCH   4   6
HETATM    6  C8  UNL     1      16.160   2.864   8.450  1.00  0.00     0.150 C 
BRANCH   6   7
HETATM    7  N2  UNL     1      15.907   3.857   9.438  1.00  0.00    -0.340 N 
HETATM    8  C9  UNL     1      16.464   3.888  10.728  1.00  0.00     0.333 C 
HETATM    9  O1  UNL     1      17.258   2.934  11.004  1.00  0.00    -0.246 OA
HETATM   10  N3  UNL     1      16.220   4.871  11.728  1.00  0.00    -0.182 N 
HETATM   11  C10 UNL     1      16.790   4.861  13.027  1.00  0.00     0.260 A 
HETATM   12  C21 UNL     1      15.400   6.028  11.690  1.00  0.00     0.337 A 
HETATM   13  O2  UNL     1      17.527   3.926  13.452  1.00  0.00    -0.270 OA
HETATM   14  C11 UNL     1      16.396   6.072  13.767  1.00  0.00     0.192 A 
HETATM   15  N4  UNL     1      15.455   6.721  12.930  1.00  0.00    -0.308 N 
HETATM   16  C18 UNL     1      17.639   6.912  14.041  1.00  0.00     0.001 A 
HETATM   17  C12 UNL     1      14.592   7.891  13.101  1.00  0.00     0.237 C 
HETATM   18  S1  UNL     1      15.357   9.143  14.068  1.00  0.00     0.033 S 
HETATM   19  O3  UNL     1      16.515  10.010  13.208  1.00  0.00    -0.256 OA
HETATM   20  C13 UNL     1      16.102   8.318  15.475  1.00  0.00     0.116 C 
HETATM   21  C14 UNL     1      17.495   7.958  15.028  1.00  0.00     0.018 A 
HETATM   22  C15 UNL     1      18.155   6.703  15.463  1.00  0.00    -0.032 A 
HETATM   23  C16 UNL     1      17.426   5.773  16.411  1.00  0.00     0.016 C 
HETATM   24  C17 UNL     1      19.648   6.773  15.737  1.00  0.00     0.016 C 
HETATM   25  O4  UNL     1      14.700   6.403  10.677  1.00  0.00    -0.246 OA
ATOM     26  H2  UNL     1      15.266   4.611   9.189  1.00  0.00     0.164 HD
BRANCH  16  27
HETATM   27  C19 UNL     1      18.556   6.936  12.889  1.00  0.00     0.009 C 
HETATM   28  C20 UNL     1      19.077   8.204  12.366  1.00  0.00     0.006 C 
ENDBRANCH  16  27
ENDBRANCH   6   7
ENDBRANCH   4   6
BRANCH   3  29
HETATM   29  C5  UNL     1      13.253   3.577   9.067  1.00  0.00     0.118 C 
HETATM   30  C6  UNL     1      12.232   3.707   7.971  1.00  0.00     0.026 C 
ENDBRANCH   3  29
BRANCH   5  31
HETATM   31  C23 UNL     1      14.635  -0.163   6.955  1.00  0.00     0.132 C 
BRANCH  31  32
HETATM   32  N5  UNL     1      13.731   0.639   6.154  1.00  0.00    -0.343 N 
HETATM   33  C24 UNL     1      12.364   0.293   6.034  1.00  0.00     0.316 C 
HETATM   34  O5  UNL     1      11.951  -0.724   6.637  1.00  0.00    -0.247 OA
HETATM   35  N6  UNL     1      11.499   1.078   5.254  1.00  0.00    -0.343 N 
ATOM     36  H6  UNL     1      11.855   1.901   4.769  1.00  0.00     0.164 HD
ATOM     37  H5  UNL     1      14.085   1.464   5.670  1.00  0.00     0.164 HD
BRANCH  35  38
HETATM   38  C25 UNL     1      10.110   0.720   5.142  1.00  0.00     0.124 C 
BRANCH  38  39
HETATM   39  C26 UNL     1       9.212   1.390   6.128  1.00  0.00     0.021 C 
BRANCH  39  40
HETATM   40  C27 UNL     1       8.165   0.488   6.728  1.00  0.00     0.021 C 
BRANCH  40  41
HETATM   41  C28 UNL     1       6.829   0.907   6.121  1.00  0.00     0.122 C 
BRANCH  41  42
HETATM   42  N7  UNL     1       6.208  -0.231   5.469  1.00  0.00    -0.365 N 
HETATM   43  C29 UNL     1       5.062  -0.017   4.678  1.00  0.00     0.181 C 
HETATM   44  N8  UNL     1       4.361   1.053   4.827  1.00  0.00    -0.374 N 
HETATM   45  N9  UNL     1       4.683  -0.985   3.721  1.00  0.00    -0.064 NA
ATOM     46  H82 UNL     1       4.635   1.752   5.518  1.00  0.00     0.158 HD
ATOM     47  H81 UNL     1       3.531   1.208   4.254  1.00  0.00     0.158 HD
ATOM     48  H7  UNL     1       6.594  -1.169   5.582  1.00  0.00     0.162 HD
ENDBRANCH  41  42
ENDBRANCH  40  41
ENDBRANCH  39  40
ENDBRANCH  38  39
ENDBRANCH  35  38
ENDBRANCH  31  32
ENDBRANCH   5  31
BRANCH   1  49
HETATM   49  C2  UNL     1      15.581  -0.106  10.472  1.00  0.00    -0.026 C 
HETATM   50  C1  UNL     1      16.334  -1.187  10.419  1.00  0.00     0.007 C 
ENDBRANCH   1  49
TORSDOF 12
ENDMDL
MODEL 3
REMARK VINA RESULT: -8.442452767      3.300      8.118
REMARK  12 active torsions:
REMARK  status: ('A' for Active; 'I' for Inactive)
REMARK    1  A    between atoms: C2_2  and  C3_3 
REMARK    2  A    between atoms: N1_5  and  C5_6 
REMARK    3  A    between atoms: C7_8  and  C8_9 
REMARK    4  A    between atoms: C8_9  and  N2_10 
REMARK       I    between atoms: N2_10  and  C9_12 
REMARK       I    between atoms: C9_12  and  N3_14 
REMARK    5  A    between atoms: C18_27  and  C19_28 
REMARK    6  A    between atoms: C22_32  and  C23_33 
REMARK    7  A    between atoms: C23_33  and  N5_34 
REMARK       I    between atoms: N5_34  and  C24_36 
REMARK       I    between atoms: C24_36  and  N6_38 
REMARK    8  A    between atoms: N6_38  and  C25_40 
REMARK    9  A    between atoms: C25_40  and  C26_41 
REMARK   10  A    between atoms: C26_41  and  C27_42 
REMARK   11  A    between atoms: C27_42  and  C28_43 
REMARK   12  A    between atoms: C28_43  and  N7_44 
REMARK       I    between atoms: N7_44  and  C29_46 
ROOT
HETATM    1  C3  UNL     1      17.175   5.323  15.493  1.00  0.00     0.053 C 
HETATM    2  C4  UNL     1      17.977   6.565  15.470  1.00  0.00     0.067 C 
HETATM    3  N1  UNL     1      17.794   7.265  14.442  1.00  0.00    -0.386 N 
HETATM    4  C7  UNL     1      16.864   6.655  13.570  1.00  0.00     0.107 C 
HETATM    5  C22 UNL     1      16.263   5.530  14.322  1.00  0.00     0.040 C 
ENDROOT
BRANCH   4   6
HETATM    6  C8  UNL     1      17.659   6.209  12.360  1.00  0.00     0.150 C 
BRANCH   6   7
HETATM    7  N2  UNL     1      16.961   5.391  11.427  1.00  0.00    -0.340 N 
HETATM    8  C9  UNL     1      17.427   4.179  10.891  1.00  0.00     0.333 C 
HETATM    9  O1  UNL     1      18.574   3.808  11.296  1.00  0.00    -0.246 OA
HETATM   10  N3  UNL     1      16.743   3.352   9.957  1.00  0.00    -0.182 N 
HETATM   11  C10 UNL     1      17.253   2.139   9.426  1.00  0.00     0.260 A 
HETATM   12  C21 UNL     1      15.470   3.516   9.354  1.00  0.00     0.337 A 
HETATM   13  O2  UNL     1      18.412   1.705   9.683  1.00  0.00    -0.270 OA
HETATM   14  C11 UNL     1      16.248   1.498   8.560  1.00  0.00     0.192 A 
HETATM   15  N4  UNL     1      15.192   2.437   8.470  1.00  0.00    -0.308 N 
HETATM   16  C18 UNL     1      15.827   0.174   9.189  1.00  0.00     0.001 A 
HETATM   17  C12 UNL     1      13.956   2.492   7.688  1.00  0.00     0.237 C 
HETATM   18  S1  UNL     1      13.241   0.903   7.466  1.00  0.00     0.033 S 
HETATM   19  O3  UNL     1      12.450   0.350   8.844  1.00  0.00    -0.256 OA
HETATM   20  C13 UNL     1      14.580  -0.203   7.021  1.00  0.00     0.116 C 
HETATM   21  C14 UNL     1      15.102  -0.735   8.329  1.00  0.00     0.018 A 
HETATM   22  C15 UNL     1      16.545  -1.008   8.542  1.00  0.00    -0.032 A 
HETATM   23  C16 UNL     1      17.517  -0.781   7.402  1.00  0.00     0.016 C 
HETATM   24  C17 UNL     1      16.897  -2.224   9.382  1.00  0.00     0.016 C 
HETATM   25  O4  UNL     1      14.672   4.502   9.571  1.00  0.00    -0.246 OA
ATOM     26  H2  UNL     1      16.042   5.714  11.121  1.00  0.00     0.164 HD
BRANCH  16  27
HETATM   27  C19 UNL     1      15.682   0.276  10.650  1.00  0.00     0.009 C 
HETATM   28  C20 UNL     1      15.755  -0.917  11.501  1.00  0.00     0.006 C 
ENDBRANCH  16  27
ENDBRANCH   6   7
ENDBRANCH   4   6
BRANCH   3  29
HETATM   29  C5  UNL     1      18.462   8.514  14.198  1.00  0.00     0.118 C 
HETATM   30  C6  UNL     1      17.505   9.664  14.342  1.00  0.00     0.026 C 
ENDBRANCH   3  29
BRANCH   5  31
HETATM   31  C23 UNL     1      14.859   5.857  14.759  1.00  0.00     0.132 C 
BRANCH  31  32
HETATM   32  N5  UNL     1      13.847   5.001  14.172  1.00  0.00    -0.343 N 
HETATM   33  C24 UNL     1      13.192   5.367  12.972  1.00  0.00     0.316 C 
HETATM   34  O5  UNL     1      13.505   6.449  12.427  1.00  0.00    -0.247 OA
HETATM   35  N6  UNL     1      12.213   4.528  12.414  1.00  0.00    -0.343 N 
ATOM     36  H6  UNL     1      11.969   3.651  12.875  1.00  0.00     0.164 HD
ATOM     37  H5  UNL     1      13.605   4.122  14.629  1.00  0.00     0.164 HD
BRANCH  35  38
HETATM   38  C25 UNL     1      11.555   4.907  11.193  1.00  0.00     0.124 C 
BRANCH  38  39
HETATM   39  C26 UNL     1      11.253   3.773  10.270  1.00  0.00     0.021 C 
BRANCH  39  40
HETATM   40  C27 UNL     1      10.055   3.994   9.384  1.00  0.00     0.021 C 
BRANCH  40  41
HETATM   41  C28 UNL     1      10.336   3.259   8.077  1.00  0.00     0.122 C 
BRANCH  41  42
HETATM   42  N7  UNL     1       9.799   1.913   8.145  1.00  0.00    -0.365 N 
HETATM   43  C29 UNL     1       9.555   1.218   6.943  1.00  0.00     0.181 C 
HETATM   44  N8  UNL     1       9.442   1.862   5.833  1.00  0.00    -0.374 N 
HETATM   45  N9  UNL     1       9.435  -0.189   6.961  1.00  0.00    -0.064 NA
ATOM     46  H82 UNL     1       9.528   2.878   5.820  1.00  0.00     0.158 HD
ATOM     47  H81 UNL     1       9.265   1.359   4.963  1.00  0.00     0.158 HD
ATOM     48  H7  UNL     1       9.600   1.477   9.046  1.00  0.00     0.162 HD
ENDBRANCH  41  42
ENDBRANCH  40  41
ENDBRANCH  39  40
ENDBRANCH  38  39
ENDBRANCH  35  38
ENDBRANCH  31  32
ENDBRANCH   5  31
BRANCH   1  49
HETATM   49  C2  UNL     1      18.001   4.096  15.303  1.00  0.00    -0.026 C 
HETATM   50  C1  UNL     1      19.301   4.186  15.105  1.00  0.00     0.007 C 
ENDBRANCH   1  49
TORSDOF 12
ENDMDL
MODEL 4
REMARK VINA RESULT: -8.342460712      7.134     15.786
REMARK  12 active torsions:
REMARK  status: ('A' for Active; 'I' for Inactive)
REMARK    1  A    between atoms: C2_2  and  C3_3 
REMARK    2  A    between atoms: N1_5  and  C5_6 
REMARK    3  A    between atoms: C7_8  and  C8_9 
REMARK    4  A    between atoms: C8_9  and  N2_10 
REMARK       I    between atoms: N2_10  and  C9_12 
REMARK       I    between atoms: C9_12  and  N3_14 
REMARK    5  A    between atoms: C18_27  and  C19_28 
REMARK    6  A    between atoms: C22_32  and  C23_33 
REMARK    7  A    between atoms: C23_33  and  N5_34 
REMARK       I    between atoms: N5_34  and  C24_36 
REMARK       I    between atoms: C24_36  and  N6_38 
REMARK    8  A    between atoms: N6_38  and  C25_40 
REMARK    9  A    between atoms: C25_40  and  C26_41 
REMARK   10  A    between atoms: C26_41  and  C27_42 
REMARK   11  A    between atoms: C27_42  and  C28_43 
REMARK   12  A    between atoms: C28_43  and  N7_44 
REMARK       I    between atoms: N7_44  and  C29_46 
ROOT
HETATM    1  C3  UNL     1       9.525   0.673   6.302  1.00  0.00     0.053 C 
HETATM    2  C4  UNL     1       8.103   1.028   6.496  1.00  0.00     0.067 C 
HETATM    3  N1  UNL     1       7.333   0.035   6.523  1.00  0.00    -0.386 N 
HETATM    4  C7  UNL     1       8.050  -1.170   6.345  1.00  0.00     0.107 C 
HETATM    5  C22 UNL     1       9.486  -0.819   6.445  1.00  0.00     0.040 C 
ENDROOT
BRANCH   4   6
HETATM    6  C8  UNL     1       7.656  -1.692   4.979  1.00  0.00     0.150 C 
BRANCH   6   7
HETATM    7  N2  UNL     1       6.854  -2.868   4.973  1.00  0.00    -0.340 N 
HETATM    8  C9  UNL     1       7.285  -4.150   4.592  1.00  0.00     0.333 C 
HETATM    9  O1  UNL     1       8.500  -4.233   4.228  1.00  0.00    -0.246 OA
HETATM   10  N3  UNL     1       6.496  -5.334   4.578  1.00  0.00    -0.182 N 
HETATM   11  C10 UNL     1       6.962  -6.611   4.171  1.00  0.00     0.260 A 
HETATM   12  C21 UNL     1       5.137  -5.531   4.935  1.00  0.00     0.337 A 
HETATM   13  O2  UNL     1       8.122  -6.809   3.710  1.00  0.00    -0.270 OA
HETATM   14  C11 UNL     1       5.912  -7.625   4.369  1.00  0.00     0.192 A 
HETATM   15  N4  UNL     1       4.764  -6.891   4.756  1.00  0.00    -0.308 N 
HETATM   16  C18 UNL     1       6.377  -8.620   5.428  1.00  0.00     0.001 A 
HETATM   17  C12 UNL     1       3.366  -7.255   4.987  1.00  0.00     0.237 C 
HETATM   18  S1  UNL     1       3.205  -8.855   5.696  1.00  0.00     0.033 S 
HETATM   19  O3  UNL     1       3.577  -8.877   7.337  1.00  0.00    -0.256 OA
HETATM   20  C13 UNL     1       4.312  -9.931   4.784  1.00  0.00     0.116 C 
HETATM   21  C14 UNL     1       5.627  -9.853   5.514  1.00  0.00     0.018 A 
HETATM   22  C15 UNL     1       6.924  -9.897   4.794  1.00  0.00    -0.032 A 
HETATM   23  C16 UNL     1       6.930 -10.062   3.289  1.00  0.00     0.016 C 
HETATM   24  C17 UNL     1       8.059 -10.644   5.474  1.00  0.00     0.016 C 
HETATM   25  O4  UNL     1       4.346  -4.609   5.361  1.00  0.00    -0.246 OA
ATOM     26  H2  UNL     1       5.883  -2.772   5.271  1.00  0.00     0.164 HD
BRANCH  16  27
HETATM   27  C19 UNL     1       7.074  -7.957   6.542  1.00  0.00     0.009 C 
HETATM   28  C20 UNL     1       6.615  -8.123   7.925  1.00  0.00     0.006 C 
ENDBRANCH  16  27
ENDBRANCH   6   7
ENDBRANCH   4   6
BRANCH   3  29
HETATM   29  C5  UNL     1       5.910   0.132   6.700  1.00  0.00     0.118 C 
HETATM   30  C6  UNL     1       5.316   1.085   5.701  1.00  0.00     0.026 C 
ENDBRANCH   3  29
BRANCH   5  31
HETATM   31  C23 UNL     1      10.066  -1.268   7.760  1.00  0.00     0.132 C 
BRANCH  31  32
HETATM   32  N5  UNL     1      11.168  -0.450   8.226  1.00  0.00    -0.343 N 
HETATM   33  C24 UNL     1      12.461  -0.583   7.666  1.00  0.00     0.316 C 
HETATM   34  O5  UNL     1      12.633  -1.426   6.756  1.00  0.00    -0.247 OA
HETATM   35  N6  UNL     1      13.520   0.216   8.127  1.00  0.00    -0.343 N 
ATOM     36  H6  UNL     1      13.361   0.895   8.871  1.00  0.00     0.164 HD
ATOM     37  H5  UNL     1      11.010   0.232   8.968  1.00  0.00     0.164 HD
BRANCH  35  38
HETATM   38  C25 UNL     1      14.829   0.076   7.549  1.00  0.00     0.124 C 
BRANCH  38  39
HETATM   39  C26 UNL     1      15.701  -0.935   8.217  1.00  0.00     0.021 C 
BRANCH  39  40
HETATM   40  C27 UNL     1      17.150  -0.873   7.810  1.00  0.00     0.021 C 
BRANCH  40  41
HETATM   41  C28 UNL     1      17.908  -0.260   8.984  1.00  0.00     0.122 C 
BRANCH  41  42
HETATM   42  N7  UNL     1      18.239   1.121   8.688  1.00  0.00    -0.365 N 
HETATM   43  C29 UNL     1      17.707   2.137   9.506  1.00  0.00     0.181 C 
HETATM   44  N8  UNL     1      16.674   1.905  10.240  1.00  0.00    -0.374 N 
HETATM   45  N9  UNL     1      18.311   3.414   9.518  1.00  0.00    -0.064 NA
ATOM     46  H82 UNL     1      16.237   0.983  10.232  1.00  0.00     0.158 HD
ATOM     47  H81 UNL     1      16.288   2.641  10.833  1.00  0.00     0.158 HD
ATOM     48  H7  UNL     1      18.846   1.353   7.901  1.00  0.00     0.162 HD
ENDBRANCH  41  42
ENDBRANCH  40  41
ENDBRANCH  39  40
ENDBRANCH  38  39
ENDBRANCH  35  38
ENDBRANCH  31  32
ENDBRANCH   5  31
BRANCH   1  49
HETATM   49  C2  UNL     1      10.041   1.057   4.957  1.00  0.00    -0.026 C 
HETATM   50  C1  UNL     1      11.179   0.563   4.509  1.00  0.00     0.007 C 
ENDBRANCH   1  49
TORSDOF 12
ENDMDL
MODEL 5
REMARK VINA RESULT: -8.338445883      3.562      6.302
REMARK  12 active torsions:
REMARK  status: ('A' for Active; 'I' for Inactive)
REMARK    1  A    between atoms: C2_2  and  C3_3 
REMARK    2  A    between atoms: N1_5  and  C5_6 
REMARK    3  A    between atoms: C7_8  and  C8_9 
REMARK    4  A    between atoms: C8_9  and  N2_10 
REMARK       I    between atoms: N2_10  and  C9_12 
REMARK       I    between atoms: C9_12  and  N3_14 
REMARK    5  A    between atoms: C18_27  and  C19_28 
REMARK    6  A    between atoms: C22_32  and  C23_33 
REMARK    7  A    between atoms: C23_33  and  N5_34 
REMARK       I    between atoms: N5_34  and  C24_36 
REMARK       I    between atoms: C24_36  and  N6_38 
REMARK    8  A    between atoms: N6_38  and  C25_40 
REMARK    9  A    between atoms: C25_40  and  C26_41 
REMARK   10  A    between atoms: C26_41  and  C27_42 
REMARK   11  A    between atoms: C27_42  and  C28_43 
REMARK   12  A    between atoms: C28_43  and  N7_44 
REMARK       I    between atoms: N7_44  and  C29_46 
ROOT
HETATM    1  C3  UNL     1      11.298   1.071   7.107  1.00  0.00     0.053 C 
HETATM    2  C4  UNL     1      10.665   2.399   6.961  1.00  0.00     0.067 C 
HETATM    3  N1  UNL     1      11.275   3.318   7.564  1.00  0.00    -0.386 N 
HETATM    4  C7  UNL     1      12.411   2.818   8.238  1.00  0.00     0.107 C 
HETATM    5  C22 UNL     1      12.596   1.426   7.767  1.00  0.00     0.040 C 
ENDROOT
BRANCH   4   6
HETATM    6  C8  UNL     1      12.095   2.913   9.716  1.00  0.00     0.150 C 
BRANCH   6   7
HETATM    7  N2  UNL     1      12.892   3.825  10.464  1.00  0.00    -0.340 N 
HETATM    8  C9  UNL     1      12.434   5.011  11.063  1.00  0.00     0.333 C 
HETATM    9  O1  UNL     1      11.197   5.261  10.906  1.00  0.00    -0.246 OA
HETATM   10  N3  UNL     1      13.218   5.934  11.810  1.00  0.00    -0.182 N 
HETATM   11  C10 UNL     1      12.723   7.131  12.388  1.00  0.00     0.260 A 
HETATM   12  C21 UNL     1      14.596   5.902  12.142  1.00  0.00     0.337 A 
HETATM   13  O2  UNL     1      11.535   7.535  12.234  1.00  0.00    -0.270 OA
HETATM   14  C11 UNL     1      13.782   7.799  13.165  1.00  0.00     0.192 A 
HETATM   15  N4  UNL     1      14.954   7.047  12.906  1.00  0.00    -0.308 N 
HETATM   16  C18 UNL     1      13.384   7.806  14.638  1.00  0.00     0.001 A 
HETATM   17  C12 UNL     1      16.364   7.226  13.255  1.00  0.00     0.237 C 
HETATM   18  S1  UNL     1      16.567   7.945  14.846  1.00  0.00     0.033 S 
HETATM   19  O3  UNL     1      16.303   6.845  16.092  1.00  0.00    -0.256 OA
HETATM   20  C13 UNL     1      15.400   9.303  14.946  1.00  0.00     0.116 C 
HETATM   21  C14 UNL     1      14.136   8.696  15.495  1.00  0.00     0.018 A 
HETATM   22  C15 UNL     1      12.794   9.152  15.053  1.00  0.00    -0.032 A 
HETATM   23  C16 UNL     1      12.689  10.282  14.050  1.00  0.00     0.016 C 
HETATM   24  C17 UNL     1      11.704   9.199  16.110  1.00  0.00     0.016 C 
HETATM   25  O4  UNL     1      15.416   4.970  11.802  1.00  0.00    -0.246 OA
ATOM     26  H2  UNL     1      13.880   3.598  10.574  1.00  0.00     0.164 HD
BRANCH  16  27
HETATM   27  C19 UNL     1      12.763   6.537  15.050  1.00  0.00     0.009 C 
HETATM   28  C20 UNL     1      13.499   5.566  15.867  1.00  0.00     0.006 C 
ENDBRANCH  16  27
ENDBRANCH   6   7
ENDBRANCH   4   6
BRANCH   3  29
HETATM   29  C5  UNL     1      10.848   4.691   7.566  1.00  0.00     0.118 C 
HETATM   30  C6  UNL     1      12.031   5.613   7.477  1.00  0.00     0.026 C 
ENDBRANCH   3  29
BRANCH   5  31
HETATM   31  C23 UNL     1      13.754   1.324   6.811  1.00  0.00     0.132 C 
BRANCH  31  32
HETATM   32  N5  UNL     1      14.585   0.153   7.018  1.00  0.00    -0.343 N 
HETATM   33  C24 UNL     1      15.110  -0.150   8.297  1.00  0.00     0.316 C 
HETATM   34  O5  UNL     1      14.840   0.617   9.249  1.00  0.00    -0.247 OA
HETATM   35  N6  UNL     1      15.913  -1.287   8.483  1.00  0.00    -0.343 N 
ATOM     36  H6  UNL     1      16.124  -1.898   7.694  1.00  0.00     0.164 HD
ATOM     37  H5  UNL     1      14.794  -0.460   6.230  1.00  0.00     0.164 HD
BRANCH  35  38
HETATM   38  C25 UNL     1      16.438  -1.589   9.787  1.00  0.00     0.124 C 
BRANCH  38  39
HETATM   39  C26 UNL     1      17.855  -1.171  10.001  1.00  0.00     0.021 C 
BRANCH  39  40
HETATM   40  C27 UNL     1      18.449  -0.379   8.865  1.00  0.00     0.021 C 
BRANCH  40  41
HETATM   41  C28 UNL     1      18.634   1.046   9.376  1.00  0.00     0.122 C 
BRANCH  41  42
HETATM   42  N7  UNL     1      17.752   1.945   8.655  1.00  0.00    -0.365 N 
HETATM   43  C29 UNL     1      16.951   2.842   9.389  1.00  0.00     0.181 C 
HETATM   44  N8  UNL     1      16.711   2.627  10.636  1.00  0.00    -0.374 N 
HETATM   45  N9  UNL     1      16.411   3.980   8.750  1.00  0.00    -0.064 NA
ATOM     46  H82 UNL     1      17.101   1.805  11.098  1.00  0.00     0.158 HD
ATOM     47  H81 UNL     1      16.130   3.276  11.168  1.00  0.00     0.158 HD
ATOM     48  H7  UNL     1      17.713   1.928   7.636  1.00  0.00     0.162 HD
ENDBRANCH  41  42
ENDBRANCH  40  41
ENDBRANCH  39  40
ENDBRANCH  38  39
ENDBRANCH  35  38
ENDBRANCH  31  32
ENDBRANCH   5  31
BRANCH   1  49
HETATM   49  C2  UNL     1      10.509   0.143   7.967  1.00  0.00    -0.026 C 
HETATM   50  C1  UNL     1      11.114  -0.653   8.826  1.00  0.00     0.007 C 
ENDBRANCH   1  49
TORSDOF 12
ENDMDL
