MODEL 1
REMARK VINA RESULT: -9.809816041      0.000      0.000
REMARK  11 active torsions:
REMARK  status: ('A' for Active; 'I' for Inactive)
REMARK    1  A    between atoms: C2_2  and  N1_3 
REMARK    2  A    between atoms: C2_2  and  C11_17 
REMARK       I    between atoms: N1_3  and  C3_5 
REMARK       I    between atoms: C3_5  and  N3_9 
REMARK    3  A    between atoms: C11_17  and  N4_19 
REMARK    4  A    between atoms: N4_19  and  C13_21 
REMARK    5  A    between atoms: C13_21  and  C14_22 
REMARK    6  A    between atoms: C13_21  and  C19_27 
REMARK    7  A    between atoms: C14_22  and  C15_23 
REMARK       I    between atoms: C19_27  and  N5_29 
REMARK    8  A    between atoms: C26_36  and  C27_37 
REMARK    9  A    between atoms: C27_37  and  C28_38 
REMARK   10  A    between atoms: C28_38  and  C29_39 
REMARK   11  A    between atoms: C29_39  and  N6_40 
ROOT
HETATM    1  C13 UNL     1      -6.730  15.931  28.516  1.00  0.00     0.093 C 
ENDROOT
BRANCH   1   2
HETATM    2  N4  UNL     1      -7.831  16.142  29.354  1.00  0.00    -0.379 N 
ATOM      3  H4  UNL     1      -8.740  16.252  28.905  1.00  0.00     0.160 HD
BRANCH   2   4
HETATM    4  C11 UNL     1      -7.799  16.215  30.734  1.00  0.00     0.100 C 
HETATM    5  C12 UNL     1      -7.721  14.791  31.356  1.00  0.00     0.034 C 
BRANCH   4   6
HETATM    6  C2  UNL     1      -8.991  16.815  31.484  1.00  0.00     0.117 C 
HETATM    7  C1  UNL     1      -8.707  17.316  32.841  1.00  0.00     0.035 C 
BRANCH   6   8
HETATM    8  N1  UNL     1      -9.947  15.685  31.629  1.00  0.00    -0.220 N 
HETATM    9  C3  UNL     1     -11.306  15.765  31.324  1.00  0.00     0.670 C 
HETATM   10  N2  UNL     1     -12.091  16.238  32.301  1.00  0.00    -0.235 N 
HETATM   11  N3  UNL     1     -11.997  15.413  30.155  1.00  0.00    -0.209 N 
ATOM     12  H22 UNL     1     -11.588  16.494  33.151  1.00  0.00     0.174 HD
ATOM     13  H21 UNL     1     -13.084  16.296  32.078  1.00  0.00     0.174 HD
HETATM   14  C4  UNL     1     -12.289  16.263  29.036  1.00  0.00     0.147 C 
HETATM   15  C8  UNL     1     -12.598  14.144  29.852  1.00  0.00     0.046 C 
HETATM   16  C5  UNL     1     -13.817  16.059  28.958  1.00  0.00     0.011 A 
HETATM   17  C6  UNL     1     -14.284  15.019  28.043  1.00  0.00     0.014 A 
HETATM   18  C7  UNL     1     -13.981  14.574  29.407  1.00  0.00     0.020 A 
HETATM   19  C9  UNL     1     -11.900  13.313  28.838  1.00  0.00     0.039 C 
HETATM   20  C10 UNL     1     -12.751  13.271  31.109  1.00  0.00     0.039 C 
ATOM     21  H1  UNL     1      -9.586  14.796  31.974  1.00  0.00     0.178 HD
ENDBRANCH   6   8
ENDBRANCH   4   6
ENDBRANCH   2   4
ENDBRANCH   1   2
BRANCH   1  22
HETATM   22  C14 UNL     1      -5.585  16.806  28.350  1.00  0.00     0.013 C 
BRANCH  22  23
HETATM   23  C15 UNL     1      -5.566  18.149  27.809  1.00  0.00     0.010 C 
HETATM   24  C16 UNL     1      -5.459  18.517  26.392  1.00  0.00     0.009 C 
HETATM   25  C17 UNL     1      -6.207  19.821  26.763  1.00  0.00     0.001 C 
HETATM   26  C18 UNL     1      -6.787  19.024  27.933  1.00  0.00     0.009 C 
ENDBRANCH  22  23
ENDBRANCH   1  22
BRANCH   1  27
HETATM   27  C19 UNL     1      -7.005  15.111  27.313  1.00  0.00     0.269 C 
HETATM   28  O1  UNL     1      -6.712  13.863  27.314  1.00  0.00    -0.266 OA
HETATM   29  N5  UNL     1      -7.591  15.533  26.061  1.00  0.00    -0.347 N 
HETATM   30  C20 UNL     1      -7.503  14.545  24.998  1.00  0.00     0.127 C 
HETATM   31  C24 UNL     1      -8.277  16.765  25.849  1.00  0.00     0.127 C 
HETATM   32  C21 UNL     1      -8.465  14.594  23.902  1.00  0.00     0.039 C 
HETATM   33  C22 UNL     1      -9.008  15.954  23.572  1.00  0.00     0.046 C 
HETATM   34  C23 UNL     1      -9.438  16.566  24.853  1.00  0.00     0.039 C 
HETATM   35  C25 UNL     1      -7.979  16.692  22.785  1.00  0.00     0.044 C 
HETATM   36  C31 UNL     1     -10.203  15.934  22.682  1.00  0.00     0.227 C 
HETATM   37  C26 UNL     1      -8.746  17.532  21.755  1.00  0.00     0.085 C 
HETATM   38  N9  UNL     1     -10.037  16.912  21.651  1.00  0.00    -0.356 N 
ATOM     39  H9  UNL     1     -10.735  17.136  20.944  1.00  0.00     0.162 HD
HETATM   40  O2  UNL     1     -11.205  15.209  22.776  1.00  0.00    -0.273 OA
BRANCH  37  41
HETATM   41  C27 UNL     1      -7.983  17.664  20.483  1.00  0.00     0.027 C 
BRANCH  41  42
HETATM   42  C28 UNL     1      -6.991  16.627  20.137  1.00  0.00     0.022 C 
BRANCH  42  43
HETATM   43  C29 UNL     1      -5.582  17.132  19.889  1.00  0.00     0.122 C 
BRANCH  43  44
HETATM   44  N6  UNL     1      -5.241  18.111  20.912  1.00  0.00    -0.367 N 
HETATM   45  C30 UNL     1      -4.350  17.905  21.808  1.00  0.00     0.196 C 
HETATM   46  N7  UNL     1      -4.098  18.938  22.771  1.00  0.00    -0.067 NA
HETATM   47  N8  UNL     1      -3.627  16.704  21.845  1.00  0.00    -0.067 NA
ATOM     48  H6  UNL     1      -5.736  19.002  20.915  1.00  0.00     0.161 HD
ENDBRANCH  43  44
ENDBRANCH  42  43
ENDBRANCH  41  42
ENDBRANCH  37  41
ENDBRANCH   1  27
TORSDOF 11
ENDMDL
MODEL 2
REMARK VINA RESULT: -9.764201050      2.414      9.071
REMARK  11 active torsions:
REMARK  status: ('A' for Active; 'I' for Inactive)
REMARK    1  A    between atoms: C2_2  and  N1_3 
REMARK    2  A    between atoms: C2_2  and  C11_17 
REMARK       I    between atoms: N1_3  and  C3_5 
REMARK       I    between atoms: C3_5  and  N3_9 
REMARK    3  A    between atoms: C11_17  and  N4_19 
REMARK    4  A    between atoms: N4_19  and  C13_21 
REMARK    5  A    between atoms: C13_21  and  C14_22 
REMARK    6  A    between atoms: C13_21  and  C19_27 
REMARK    7  A    between atoms: C14_22  and  C15_23 
REMARK       I    between atoms: C19_27  and  N5_29 
REMARK    8  A    between atoms: C26_36  and  C27_37 
REMARK    9  A    between atoms: C27_37  and  C28_38 
REMARK   10  A    between atoms: C28_38  and  C29_39 
REMARK   11  A    between atoms: C29_39  and  N6_40 
ROOT
HETATM    1  C13 UNL     1      -8.410  17.714  29.337  1.00  0.00     0.093 C 
ENDROOT
BRANCH   1   2
HETATM    2  N4  UNL     1      -7.373  17.252  28.519  1.00  0.00    -0.379 N 
ATOM      3  H4  UNL     1      -7.262  16.241  28.440  1.00  0.00     0.160 HD
BRANCH   2   4
HETATM    4  C11 UNL     1      -6.486  18.039  27.809  1.00  0.00     0.100 C 
HETATM    5  C12 UNL     1      -6.982  19.513  27.757  1.00  0.00     0.034 C 
BRANCH   4   6
HETATM    6  C2  UNL     1      -6.237  17.744  26.327  1.00  0.00     0.117 C 
HETATM    7  C1  UNL     1      -6.218  18.917  25.435  1.00  0.00     0.035 C 
BRANCH   6   8
HETATM    8  N1  UNL     1      -7.393  16.904  25.915  1.00  0.00    -0.220 N 
HETATM    9  C3  UNL     1      -8.274  17.234  24.885  1.00  0.00     0.670 C 
HETATM   10  N2  UNL     1      -9.289  18.038  25.229  1.00  0.00    -0.235 N 
HETATM   11  N3  UNL     1      -8.282  16.848  23.537  1.00  0.00    -0.209 N 
ATOM     12  H22 UNL     1      -9.283  18.319  26.210  1.00  0.00     0.174 HD
ATOM     13  H21 UNL     1      -9.933  18.280  24.476  1.00  0.00     0.174 HD
HETATM   14  C4  UNL     1      -7.658  17.531  22.440  1.00  0.00     0.147 C 
HETATM   15  C8  UNL     1      -8.954  15.715  22.963  1.00  0.00     0.046 C 
HETATM   16  C5  UNL     1      -8.877  17.668  21.503  1.00  0.00     0.011 A 
HETATM   17  C6  UNL     1      -9.044  16.617  20.501  1.00  0.00     0.014 A 
HETATM   18  C7  UNL     1      -9.677  16.362  21.800  1.00  0.00     0.020 A 
HETATM   19  C9  UNL     1      -8.089  14.582  22.545  1.00  0.00     0.039 C 
HETATM   20  C10 UNL     1     -10.011  15.135  23.919  1.00  0.00     0.039 C 
ATOM     21  H1  UNL     1      -7.551  16.031  26.418  1.00  0.00     0.178 HD
ENDBRANCH   6   8
ENDBRANCH   4   6
ENDBRANCH   2   4
ENDBRANCH   1   2
BRANCH   1  22
HETATM   22  C14 UNL     1      -8.327  18.024  30.752  1.00  0.00     0.013 C 
BRANCH  22  23
HETATM   23  C15 UNL     1      -7.727  17.227  31.800  1.00  0.00     0.010 C 
HETATM   24  C16 UNL     1      -8.440  16.447  32.820  1.00  0.00     0.009 C 
HETATM   25  C17 UNL     1      -7.187  15.538  32.876  1.00  0.00     0.001 C 
HETATM   26  C18 UNL     1      -6.921  16.004  31.444  1.00  0.00     0.009 C 
ENDBRANCH  22  23
ENDBRANCH   1  22
BRANCH   1  27
HETATM   27  C19 UNL     1      -9.771  17.306  28.917  1.00  0.00     0.269 C 
HETATM   28  O1  UNL     1     -10.426  18.034  28.090  1.00  0.00    -0.266 OA
HETATM   29  N5  UNL     1     -10.515  16.136  29.325  1.00  0.00    -0.347 N 
HETATM   30  C20 UNL     1     -11.913  16.149  28.923  1.00  0.00     0.127 C 
HETATM   31  C24 UNL     1      -9.966  15.004  29.995  1.00  0.00     0.127 C 
HETATM   32  C21 UNL     1     -12.625  14.882  28.788  1.00  0.00     0.039 C 
HETATM   33  C22 UNL     1     -12.144  13.767  29.672  1.00  0.00     0.046 C 
HETATM   34  C23 UNL     1     -10.668  13.712  29.528  1.00  0.00     0.039 C 
HETATM   35  C25 UNL     1     -12.678  13.993  31.046  1.00  0.00     0.044 C 
HETATM   36  C31 UNL     1     -12.663  12.423  29.295  1.00  0.00     0.227 C 
HETATM   37  C26 UNL     1     -12.996  12.606  31.616  1.00  0.00     0.085 C 
HETATM   38  N9  UNL     1     -13.111  11.746  30.472  1.00  0.00    -0.356 N 
ATOM     39  H9  UNL     1     -13.462  10.789  30.496  1.00  0.00     0.162 HD
HETATM   40  O2  UNL     1     -12.720  11.924  28.160  1.00  0.00    -0.273 OA
BRANCH  37  41
HETATM   41  C27 UNL     1     -14.179  12.647  32.521  1.00  0.00     0.027 C 
BRANCH  41  42
HETATM   42  C28 UNL     1     -13.960  12.811  33.971  1.00  0.00     0.022 C 
BRANCH  42  43
HETATM   43  C29 UNL     1     -12.533  13.118  34.384  1.00  0.00     0.122 C 
BRANCH  43  44
HETATM   44  N6  UNL     1     -12.382  14.559  34.534  1.00  0.00    -0.367 N 
HETATM   45  C30 UNL     1     -11.558  15.094  35.355  1.00  0.00     0.196 C 
HETATM   46  N7  UNL     1     -11.494  16.525  35.423  1.00  0.00    -0.067 NA
HETATM   47  N8  UNL     1     -10.726  14.304  36.162  1.00  0.00    -0.067 NA
ATOM     48  H6  UNL     1     -12.960  15.170  33.959  1.00  0.00     0.161 HD
ENDBRANCH  43  44
ENDBRANCH  42  43
ENDBRANCH  41  42
ENDBRANCH  37  41
ENDBRANCH   1  27
TORSDOF 11
ENDMDL
MODEL 3
REMARK VINA RESULT: -9.633852044      1.156      1.478
REMARK  11 active torsions:
REMARK  status: ('A' for Active; 'I' for Inactive)
REMARK    1  A    between atoms: C2_2  and  N1_3 
REMARK    2  A    between atoms: C2_2  and  C11_17 
REMARK       I    between atoms: N1_3  and  C3_5 
REMARK       I    between atoms: C3_5  and  N3_9 
REMARK    3  A    between atoms: C11_17  and  N4_19 
REMARK    4  A    between atoms: N4_19  and  C13_21 
REMARK    5  A    between atoms: C13_21  and  C14_22 
REMARK    6  A    between atoms: C13_21  and  C19_27 
REMARK    7  A    between atoms: C14_22  and  C15_23 
REMARK       I    between atoms: C19_27  and  N5_29 
REMARK    8  A    between atoms: C26_36  and  C27_37 
REMARK    9  A    between atoms: C27_37  and  C28_38 
REMARK   10  A    between atoms: C28_38  and  C29_39 
REMARK   11  A    between atoms: C29_39  and  N6_40 
ROOT
HETATM    1  C13 UNL     1      -6.838  15.752  28.517  1.00  0.00     0.093 C 
ENDROOT
BRANCH   1   2
HETATM    2  N4  UNL     1      -7.917  15.926  29.391  1.00  0.00    -0.379 N 
ATOM      3  H4  UNL     1      -8.851  15.924  28.981  1.00  0.00     0.160 HD
BRANCH   2   4
HETATM    4  C11 UNL     1      -7.833  16.102  30.760  1.00  0.00     0.100 C 
HETATM    5  C12 UNL     1      -7.719  14.730  31.483  1.00  0.00     0.034 C 
BRANCH   4   6
HETATM    6  C2  UNL     1      -9.001  16.750  31.509  1.00  0.00     0.117 C 
HETATM    7  C1  UNL     1      -8.688  17.276  32.850  1.00  0.00     0.035 C 
BRANCH   6   8
HETATM    8  N1  UNL     1      -9.983  15.648  31.693  1.00  0.00    -0.220 N 
HETATM    9  C3  UNL     1     -11.337  15.744  31.372  1.00  0.00     0.670 C 
HETATM   10  N2  UNL     1     -12.119  16.275  32.321  1.00  0.00    -0.235 N 
HETATM   11  N3  UNL     1     -12.026  15.359  30.212  1.00  0.00    -0.209 N 
ATOM     12  H22 UNL     1     -11.618  16.555  33.164  1.00  0.00     0.174 HD
ATOM     13  H21 UNL     1     -13.109  16.345  32.086  1.00  0.00     0.174 HD
HETATM   14  C4  UNL     1     -12.290  16.167  29.056  1.00  0.00     0.147 C 
HETATM   15  C8  UNL     1     -12.652  14.092  29.957  1.00  0.00     0.046 C 
HETATM   16  C5  UNL     1     -13.821  15.993  28.972  1.00  0.00     0.011 A 
HETATM   17  C6  UNL     1     -14.303  14.926  28.097  1.00  0.00     0.014 A 
HETATM   18  C7  UNL     1     -14.021  14.532  29.482  1.00  0.00     0.020 A 
HETATM   19  C9  UNL     1     -11.963  13.203  28.985  1.00  0.00     0.039 C 
HETATM   20  C10 UNL     1     -12.835  13.275  31.248  1.00  0.00     0.039 C 
ATOM     21  H1  UNL     1      -9.644  14.767  32.077  1.00  0.00     0.178 HD
ENDBRANCH   6   8
ENDBRANCH   4   6
ENDBRANCH   2   4
ENDBRANCH   1   2
BRANCH   1  22
HETATM   22  C14 UNL     1      -5.710  16.647  28.341  1.00  0.00     0.013 C 
BRANCH  22  23
HETATM   23  C15 UNL     1      -5.737  18.044  27.962  1.00  0.00     0.010 C 
HETATM   24  C16 UNL     1      -5.597  18.582  26.604  1.00  0.00     0.009 C 
HETATM   25  C17 UNL     1      -6.421  19.799  27.093  1.00  0.00     0.001 C 
HETATM   26  C18 UNL     1      -7.003  18.843  28.137  1.00  0.00     0.009 C 
ENDBRANCH  22  23
ENDBRANCH   1  22
BRANCH   1  27
HETATM   27  C19 UNL     1      -7.137  14.958  27.303  1.00  0.00     0.269 C 
HETATM   28  O1  UNL     1      -6.896  13.699  27.290  1.00  0.00    -0.266 OA
HETATM   29  N5  UNL     1      -7.694  15.420  26.052  1.00  0.00    -0.347 N 
HETATM   30  C20 UNL     1      -7.639  14.442  24.977  1.00  0.00     0.127 C 
HETATM   31  C24 UNL     1      -8.327  16.682  25.849  1.00  0.00     0.127 C 
HETATM   32  C21 UNL     1      -8.589  14.544  23.874  1.00  0.00     0.039 C 
HETATM   33  C22 UNL     1      -9.073  15.929  23.557  1.00  0.00     0.046 C 
HETATM   34  C23 UNL     1      -9.488  16.543  24.843  1.00  0.00     0.039 C 
HETATM   35  C25 UNL     1      -8.008  16.634  22.787  1.00  0.00     0.044 C 
HETATM   36  C31 UNL     1     -10.260  15.970  22.658  1.00  0.00     0.227 C 
HETATM   37  C26 UNL     1      -8.731  17.516  21.762  1.00  0.00     0.085 C 
HETATM   38  N9  UNL     1     -10.046  16.952  21.641  1.00  0.00    -0.356 N 
ATOM     39  H9  UNL     1     -10.729  17.214  20.930  1.00  0.00     0.162 HD
HETATM   40  O2  UNL     1     -11.293  15.285  22.735  1.00  0.00    -0.273 OA
BRANCH  37  41
HETATM   41  C27 UNL     1      -7.953  17.632  20.497  1.00  0.00     0.027 C 
BRANCH  41  42
HETATM   42  C28 UNL     1      -7.068  16.520  20.101  1.00  0.00     0.022 C 
BRANCH  42  43
HETATM   43  C29 UNL     1      -5.676  16.923  19.654  1.00  0.00     0.122 C 
BRANCH  43  44
HETATM   44  N6  UNL     1      -5.461  16.455  18.291  1.00  0.00    -0.367 N 
HETATM   45  C30 UNL     1      -4.409  15.825  17.925  1.00  0.00     0.196 C 
HETATM   46  N7  UNL     1      -4.301  15.414  16.555  1.00  0.00    -0.067 NA
HETATM   47  N8  UNL     1      -3.388  15.531  18.840  1.00  0.00    -0.067 NA
ATOM     48  H6  UNL     1      -6.184  16.639  17.595  1.00  0.00     0.161 HD
ENDBRANCH  43  44
ENDBRANCH  42  43
ENDBRANCH  41  42
ENDBRANCH  37  41
ENDBRANCH   1  27
TORSDOF 11
ENDMDL
MODEL 4
REMARK VINA RESULT: -9.576951105      1.251      2.007
REMARK  11 active torsions:
REMARK  status: ('A' for Active; 'I' for Inactive)
REMARK    1  A    between atoms: C2_2  and  N1_3 
REMARK    2  A    between atoms: C2_2  and  C11_17 
REMARK       I    between atoms: N1_3  and  C3_5 
REMARK       I    between atoms: C3_5  and  N3_9 
REMARK    3  A    between atoms: C11_17  and  N4_19 
REMARK    4  A    between atoms: N4_19  and  C13_21 
REMARK    5  A    between atoms: C13_21  and  C14_22 
REMARK    6  A    between atoms: C13_21  and  C19_27 
REMARK    7  A    between atoms: C14_22  and  C15_23 
REMARK       I    between atoms: C19_27  and  N5_29 
REMARK    8  A    between atoms: C26_36  and  C27_37 
REMARK    9  A    between atoms: C27_37  and  C28_38 
REMARK   10  A    between atoms: C28_38  and  C29_39 
REMARK   11  A    between atoms: C29_39  and  N6_40 
ROOT
HETATM    1  C13 UNL     1      -7.497  17.344  28.698  1.00  0.00     0.093 C 
ENDROOT
BRANCH   1   2
HETATM    2  N4  UNL     1      -8.489  17.836  29.553  1.00  0.00    -0.379 N 
ATOM      3  H4  UNL     1      -9.233  18.391  29.128  1.00  0.00     0.160 HD
BRANCH   2   4
HETATM    4  C11 UNL     1      -8.554  17.642  30.920  1.00  0.00     0.100 C 
HETATM    5  C12 UNL     1      -7.418  16.689  31.392  1.00  0.00     0.034 C 
BRANCH   4   6
HETATM    6  C2  UNL     1      -9.791  16.973  31.528  1.00  0.00     0.117 C 
HETATM    7  C1  UNL     1      -9.535  16.063  32.659  1.00  0.00     0.035 C 
BRANCH   6   8
HETATM    8  N1  UNL     1     -10.349  16.148  30.424  1.00  0.00    -0.220 N 
HETATM    9  C3  UNL     1     -10.736  14.815  30.561  1.00  0.00     0.670 C 
HETATM   10  N2  UNL     1      -9.757  13.912  30.418  1.00  0.00    -0.235 N 
HETATM   11  N3  UNL     1     -11.998  14.256  30.811  1.00  0.00    -0.209 N 
ATOM     12  H22 UNL     1      -8.840  14.318  30.236  1.00  0.00     0.174 HD
ATOM     13  H21 UNL     1     -10.041  12.937  30.518  1.00  0.00     0.174 HD
HETATM   14  C4  UNL     1     -12.567  13.949  32.092  1.00  0.00     0.147 C 
HETATM   15  C8  UNL     1     -12.967  13.832  29.839  1.00  0.00     0.046 C 
HETATM   16  C5  UNL     1     -12.923  12.465  31.859  1.00  0.00     0.011 A 
HETATM   17  C6  UNL     1     -14.285  12.190  31.404  1.00  0.00     0.014 A 
HETATM   18  C7  UNL     1     -13.301  12.444  30.346  1.00  0.00     0.020 A 
HETATM   19  C9  UNL     1     -14.167  14.694  29.688  1.00  0.00     0.039 C 
HETATM   20  C10 UNL     1     -12.345  13.691  28.438  1.00  0.00     0.039 C 
ATOM     21  H1  UNL     1     -10.455  16.585  29.509  1.00  0.00     0.178 HD
ENDBRANCH   6   8
ENDBRANCH   4   6
ENDBRANCH   2   4
ENDBRANCH   1   2
BRANCH   1  22
HETATM   22  C14 UNL     1      -6.341  18.066  28.203  1.00  0.00     0.013 C 
BRANCH  22  23
HETATM   23  C15 UNL     1      -5.114  17.515  27.667  1.00  0.00     0.010 C 
HETATM   24  C16 UNL     1      -4.717  16.102  27.670  1.00  0.00     0.009 C 
HETATM   25  C17 UNL     1      -3.867  16.427  26.417  1.00  0.00     0.001 C 
HETATM   26  C18 UNL     1      -4.851  17.575  26.184  1.00  0.00     0.009 C 
ENDBRANCH  22  23
ENDBRANCH   1  22
BRANCH   1  27
HETATM   27  C19 UNL     1      -7.937  16.266  27.782  1.00  0.00     0.269 C 
HETATM   28  O1  UNL     1      -8.086  15.073  28.228  1.00  0.00    -0.266 OA
HETATM   29  N5  UNL     1      -8.242  16.364  26.373  1.00  0.00    -0.347 N 
HETATM   30  C20 UNL     1      -8.410  15.081  25.708  1.00  0.00     0.127 C 
HETATM   31  C24 UNL     1      -8.449  17.581  25.659  1.00  0.00     0.127 C 
HETATM   32  C21 UNL     1      -9.207  15.013  24.487  1.00  0.00     0.039 C 
HETATM   33  C22 UNL     1      -9.227  16.260  23.652  1.00  0.00     0.046 C 
HETATM   34  C23 UNL     1      -9.526  17.387  24.571  1.00  0.00     0.039 C 
HETATM   35  C25 UNL     1      -7.949  16.335  22.888  1.00  0.00     0.044 C 
HETATM   36  C31 UNL     1     -10.283  16.273  22.601  1.00  0.00     0.227 C 
HETATM   37  C26 UNL     1      -8.300  16.935  21.521  1.00  0.00     0.085 C 
HETATM   38  N9  UNL     1      -9.712  16.724  21.369  1.00  0.00    -0.356 N 
ATOM     39  H9  UNL     1     -10.234  16.873  20.505  1.00  0.00     0.162 HD
HETATM   40  O2  UNL     1     -11.476  15.954  22.721  1.00  0.00    -0.273 OA
BRANCH  37  41
HETATM   41  C27 UNL     1      -7.439  16.375  20.443  1.00  0.00     0.027 C 
BRANCH  41  42
HETATM   42  C28 UNL     1      -6.088  15.893  20.789  1.00  0.00     0.022 C 
BRANCH  42  43
HETATM   43  C29 UNL     1      -4.942  16.763  20.309  1.00  0.00     0.122 C 
BRANCH  43  44
HETATM   44  N6  UNL     1      -4.815  17.913  21.195  1.00  0.00    -0.367 N 
HETATM   45  C30 UNL     1      -3.981  17.959  22.165  1.00  0.00     0.196 C 
HETATM   46  N7  UNL     1      -3.943  19.140  22.978  1.00  0.00    -0.067 NA
HETATM   47  N8  UNL     1      -3.115  16.887  22.425  1.00  0.00    -0.067 NA
ATOM     48  H6  UNL     1      -5.419  18.718  21.035  1.00  0.00     0.161 HD
ENDBRANCH  43  44
ENDBRANCH  42  43
ENDBRANCH  41  42
ENDBRANCH  37  41
ENDBRANCH   1  27
TORSDOF 11
ENDMDL
MODEL 5
REMARK VINA RESULT: -9.565562638      2.352      8.595
REMARK  11 active torsions:
REMARK  status: ('A' for Active; 'I' for Inactive)
REMARK    1  A    between atoms: C2_2  and  N1_3 
REMARK    2  A    between atoms: C2_2  and  C11_17 
REMARK       I    between atoms: N1_3  and  C3_5 
REMARK       I    between atoms: C3_5  and  N3_9 
REMARK    3  A    between atoms: C11_17  and  N4_19 
REMARK    4  A    between atoms: N4_19  and  C13_21 
REMARK    5  A    between atoms: C13_21  and  C14_22 
REMARK    6  A    between atoms: C13_21  and  C19_27 
REMARK    7  A    between atoms: C14_22  and  C15_23 
REMARK       I    between atoms: C19_27  and  N5_29 
REMARK    8  A    between atoms: C26_36  and  C27_37 
REMARK    9  A    between atoms: C27_37  and  C28_38 
REMARK   10  A    between atoms: C28_38  and  C29_39 
REMARK   11  A    between atoms: C29_39  and  N6_40 
ROOT
HETATM    1  C13 UNL     1      -4.019  17.543  24.105  1.00  0.00     0.093 C 
ENDROOT
BRANCH   1   2
HETATM    2  N4  UNL     1      -4.312  16.762  22.982  1.00  0.00    -0.379 N 
ATOM      3  H4  UNL     1      -5.008  16.025  23.099  1.00  0.00     0.160 HD
BRANCH   2   4
HETATM    4  C11 UNL     1      -3.746  16.898  21.728  1.00  0.00     0.100 C 
HETATM    5  C12 UNL     1      -3.619  18.400  21.344  1.00  0.00     0.034 C 
BRANCH   4   6
HETATM    6  C2  UNL     1      -4.474  16.327  20.507  1.00  0.00     0.117 C 
HETATM    7  C1  UNL     1      -3.861  16.625  19.200  1.00  0.00     0.035 C 
BRANCH   6   8
HETATM    8  N1  UNL     1      -5.805  16.988  20.524  1.00  0.00    -0.220 N 
HETATM    9  C3  UNL     1      -7.018  16.305  20.623  1.00  0.00     0.670 C 
HETATM   10  N2  UNL     1      -7.524  15.857  19.466  1.00  0.00    -0.235 N 
HETATM   11  N3  UNL     1      -7.812  16.020  21.743  1.00  0.00    -0.209 N 
ATOM     12  H22 UNL     1      -6.946  16.064  18.652  1.00  0.00     0.174 HD
ATOM     13  H21 UNL     1      -8.410  15.357  19.538  1.00  0.00     0.174 HD
HETATM   14  C4  UNL     1      -7.750  14.849  22.570  1.00  0.00     0.147 C 
HETATM   15  C8  UNL     1      -8.885  16.817  22.271  1.00  0.00     0.046 C 
HETATM   16  C5  UNL     1      -9.229  14.412  22.499  1.00  0.00     0.011 A 
HETATM   17  C6  UNL     1     -10.096  14.890  23.575  1.00  0.00     0.014 A 
HETATM   18  C7  UNL     1      -9.978  15.779  22.414  1.00  0.00     0.020 A 
HETATM   19  C9  UNL     1      -8.604  17.536  23.541  1.00  0.00     0.039 C 
HETATM   20  C10 UNL     1      -9.361  17.875  21.260  1.00  0.00     0.039 C 
ATOM     21  H1  UNL     1      -5.834  18.005  20.460  1.00  0.00     0.178 HD
ENDBRANCH   6   8
ENDBRANCH   4   6
ENDBRANCH   2   4
ENDBRANCH   1   2
BRANCH   1  22
HETATM   22  C14 UNL     1      -2.806  17.500  24.899  1.00  0.00     0.013 C 
BRANCH  22  23
HETATM   23  C15 UNL     1      -1.653  18.370  24.804  1.00  0.00     0.010 C 
HETATM   24  C16 UNL     1      -0.703  18.441  23.687  1.00  0.00     0.009 C 
HETATM   25  C17 UNL     1      -0.441  19.906  24.116  1.00  0.00     0.001 C 
HETATM   26  C18 UNL     1      -1.845  19.863  24.722  1.00  0.00     0.009 C 
ENDBRANCH  22  23
ENDBRANCH   1  22
BRANCH   1  27
HETATM   27  C19 UNL     1      -5.197  17.994  24.881  1.00  0.00     0.269 C 
HETATM   28  O1  UNL     1      -5.676  19.168  24.686  1.00  0.00    -0.266 OA
HETATM   29  N5  UNL     1      -5.934  17.264  25.887  1.00  0.00    -0.347 N 
HETATM   30  C20 UNL     1      -6.886  18.072  26.632  1.00  0.00     0.127 C 
HETATM   31  C24 UNL     1      -5.837  15.861  26.122  1.00  0.00     0.127 C 
HETATM   32  C21 UNL     1      -8.027  17.420  27.268  1.00  0.00     0.039 C 
HETATM   33  C22 UNL     1      -7.809  15.996  27.692  1.00  0.00     0.046 C 
HETATM   34  C23 UNL     1      -7.210  15.290  26.533  1.00  0.00     0.039 C 
HETATM   35  C25 UNL     1      -7.024  15.998  28.959  1.00  0.00     0.044 C 
HETATM   36  C31 UNL     1      -9.061  15.266  28.040  1.00  0.00     0.227 C 
HETATM   37  C26 UNL     1      -7.561  14.833  29.800  1.00  0.00     0.085 C 
HETATM   38  N9  UNL     1      -8.863  14.550  29.262  1.00  0.00    -0.356 N 
ATOM     39  H9  UNL     1      -9.547  13.928  29.691  1.00  0.00     0.162 HD
HETATM   40  O2  UNL     1     -10.128  15.247  27.407  1.00  0.00    -0.273 OA
BRANCH  37  41
HETATM   41  C27 UNL     1      -7.512  15.144  31.256  1.00  0.00     0.027 C 
BRANCH  41  42
HETATM   42  C28 UNL     1      -7.381  16.551  31.679  1.00  0.00     0.022 C 
BRANCH  42  43
HETATM   43  C29 UNL     1      -8.664  17.214  32.145  1.00  0.00     0.122 C 
BRANCH  43  44
HETATM   44  N6  UNL     1      -9.338  17.804  30.997  1.00  0.00    -0.367 N 
HETATM   45  C30 UNL     1     -10.441  17.356  30.526  1.00  0.00     0.196 C 
HETATM   46  N7  UNL     1     -11.015  18.013  29.388  1.00  0.00    -0.067 NA
HETATM   47  N8  UNL     1     -11.083  16.256  31.113  1.00  0.00    -0.067 NA
ATOM     48  H6  UNL     1      -8.911  18.612  30.546  1.00  0.00     0.161 HD
ENDBRANCH  43  44
ENDBRANCH  42  43
ENDBRANCH  41  42
ENDBRANCH  37  41
ENDBRANCH   1  27
TORSDOF 11
ENDMDL
