MODEL 1
REMARK VINA RESULT: -7.096263140      0.000      0.000
REMARK  10 active torsions:
REMARK  status: ('A' for Active; 'I' for Inactive)
REMARK    1  A    between atoms: S1_2  and  C2_3 
REMARK    2  A    between atoms: C2_3  and  C3_4 
REMARK    3  A    between atoms: C7_8  and  C8_9 
REMARK       I    between atoms: C8_9  and  N1_11 
REMARK    4  A    between atoms: N1_11  and  C9_13 
REMARK    5  A    between atoms: C9_13  and  C12_18 
REMARK    6  A    between atoms: C10_14  and  C11_15 
REMARK    7  A    between atoms: C12_18  and  C13_19 
REMARK    8  A    between atoms: C20_26  and  N3_27 
REMARK    9  A    between atoms: C25_39  and  N6_40 
REMARK       I    between atoms: N6_40  and  C26_42 
REMARK       I    between atoms: C26_42  and  N7_44 
REMARK   10  A    between atoms: N7_44  and  C28_46 
ROOT
HETATM    1  C3  UNL     1      -2.069  19.541  18.755  1.00  0.00     0.013 C 
HETATM    2  C4  UNL     1      -1.754  19.547  20.099  1.00  0.00     0.031 C 
HETATM    3  C5  UNL     1      -2.842  19.787  21.021  1.00  0.00     0.026 C 
HETATM    4  C6  UNL     1      -3.446  19.413  22.076  1.00  0.00    -0.002 C 
HETATM    5  C7  UNL     1      -3.467  18.421  23.156  1.00  0.00     0.089 A 
HETATM    6  C17 UNL     1      -2.344  17.976  23.901  1.00  0.00     0.056 A 
HETATM    7  C18 UNL     1      -2.449  16.515  24.233  1.00  0.00    -0.020 C 
HETATM    8  C19 UNL     1      -1.593  15.571  24.286  1.00  0.00    -0.004 C 
HETATM    9  C20 UNL     1      -0.127  15.518  24.040  1.00  0.00     0.121 C 
HETATM   10  C21 UNL     1       0.197  16.564  23.052  1.00  0.00     0.031 C 
HETATM   11  C22 UNL     1       1.197  16.274  21.986  1.00  0.00     0.012 C 
HETATM   12  C23 UNL     1       0.626  16.978  20.745  1.00  0.00     0.103 C 
HETATM   13  C24 UNL     1       0.452  18.434  20.979  1.00  0.00     0.222 C 
HETATM   14  O3  UNL     1       1.135  18.883  21.944  1.00  0.00    -0.273 OA
HETATM   15  N5  UNL     1      -0.363  19.352  20.265  1.00  0.00    -0.327 N 
ATOM     16  H5  UNL     1       0.188  20.037  19.747  1.00  0.00     0.169 HD
HETATM   17  C25 UNL     1      -3.405  18.880  24.578  1.00  0.00     0.117 A 
ENDROOT
BRANCH   5  18
HETATM   18  C8  UNL     1      -4.528  17.364  22.882  1.00  0.00     0.237 C 
HETATM   19  O1  UNL     1      -4.208  16.375  22.195  1.00  0.00    -0.272 OA
HETATM   20  N1  UNL     1      -5.848  17.479  23.384  1.00  0.00    -0.329 N 
ATOM     21  H1  UNL     1      -6.079  18.296  23.949  1.00  0.00     0.168 HD
BRANCH  20  22
HETATM   22  C9  UNL     1      -6.858  16.529  23.149  1.00  0.00     0.020 C 
HETATM   23  C10 UNL     1      -7.663  16.482  22.112  1.00  0.00     0.096 C 
BRANCH  23  24
HETATM   24  C11 UNL     1      -7.666  17.403  21.007  1.00  0.00     0.256 C 
HETATM   25  N2  UNL     1      -8.800  18.228  20.736  1.00  0.00    -0.058 NA
HETATM   26  O2  UNL     1      -6.638  17.483  20.256  1.00  0.00    -0.272 OA
ENDBRANCH  23  24
BRANCH  22  27
HETATM   27  C12 UNL     1      -7.006  15.459  24.199  1.00  0.00     0.084 C 
BRANCH  27  28
HETATM   28  C13 UNL     1      -8.330  15.469  24.830  1.00  0.00    -0.019 C 
HETATM   29  C14 UNL     1      -8.624  14.990  26.018  1.00  0.00    -0.091 C 
HETATM   30  C15 UNL     1     -10.006  15.041  26.587  1.00  0.00     0.042 C 
HETATM   31  C16 UNL     1      -7.533  14.369  26.838  1.00  0.00     0.042 C 
ENDBRANCH  27  28
ENDBRANCH  22  27
ENDBRANCH  20  22
ENDBRANCH   5  18
BRANCH  17  32
HETATM   32  N6  UNL     1      -4.087  18.355  25.680  1.00  0.00    -0.336 N 
HETATM   33  C26 UNL     1      -5.340  18.877  26.117  1.00  0.00     0.318 C 
HETATM   34  O4  UNL     1      -5.845  19.845  25.487  1.00  0.00    -0.247 OA
HETATM   35  N7  UNL     1      -6.045  18.354  27.235  1.00  0.00    -0.335 N 
HETATM   36  C27 UNL     1      -5.474  17.232  27.955  1.00  0.00     0.154 C 
ATOM     37  H6  UNL     1      -3.674  17.572  26.188  1.00  0.00     0.164 HD
BRANCH  35  38
HETATM   38  C28 UNL     1      -7.295  18.895  27.686  1.00  0.00     0.080 C 
HETATM   39  C29 UNL     1      -7.680  18.128  28.949  1.00  0.00     0.032 C 
HETATM   40  C30 UNL     1      -8.365  18.594  26.655  1.00  0.00     0.032 C 
ENDBRANCH  35  38
ENDBRANCH  17  32
BRANCH   1  41
HETATM   41  C2  UNL     1      -1.171  19.328  17.648  1.00  0.00     0.103 C 
BRANCH  41  42
HETATM   42  S1  UNL     1      -1.134  17.625  17.046  1.00  0.00    -0.170 SA
HETATM   43  C1  UNL     1      -2.486  16.735  17.901  1.00  0.00     0.090 C 
ENDBRANCH  41  42
ENDBRANCH   1  41
BRANCH   9  44
HETATM   44  N3  UNL     1       0.298  14.215  23.610  1.00  0.00    -0.335 N 
HETATM   45  N4  UNL     1       0.207  13.212  24.328  1.00  0.00    -0.349 N 
ATOM     46  H42 UNL     1      -0.187  13.332  25.261  1.00  0.00     0.176 HD
ATOM     47  H41 UNL     1       0.509  12.286  24.022  1.00  0.00     0.176 HD
ATOM     48  H3  UNL     1       0.690  14.112  22.673  1.00  0.00     0.180 HD
ENDBRANCH   9  44
TORSDOF 10
ENDMDL
MODEL 2
REMARK VINA RESULT: -6.734413937      3.574      8.806
REMARK  10 active torsions:
REMARK  status: ('A' for Active; 'I' for Inactive)
REMARK    1  A    between atoms: S1_2  and  C2_3 
REMARK    2  A    between atoms: C2_3  and  C3_4 
REMARK    3  A    between atoms: C7_8  and  C8_9 
REMARK       I    between atoms: C8_9  and  N1_11 
REMARK    4  A    between atoms: N1_11  and  C9_13 
REMARK    5  A    between atoms: C9_13  and  C12_18 
REMARK    6  A    between atoms: C10_14  and  C11_15 
REMARK    7  A    between atoms: C12_18  and  C13_19 
REMARK    8  A    between atoms: C20_26  and  N3_27 
REMARK    9  A    between atoms: C25_39  and  N6_40 
REMARK       I    between atoms: N6_40  and  C26_42 
REMARK       I    between atoms: C26_42  and  N7_44 
REMARK   10  A    between atoms: N7_44  and  C28_46 
ROOT
HETATM    1  C3  UNL     1      -9.936  13.699  27.920  1.00  0.00     0.013 C 
HETATM    2  C4  UNL     1      -8.665  14.238  27.924  1.00  0.00     0.031 C 
HETATM    3  C5  UNL     1      -7.871  14.042  26.732  1.00  0.00     0.026 C 
HETATM    4  C6  UNL     1      -7.129  14.575  25.846  1.00  0.00    -0.002 C 
HETATM    5  C7  UNL     1      -6.528  15.831  25.385  1.00  0.00     0.089 A 
HETATM    6  C17 UNL     1      -5.875  16.791  26.201  1.00  0.00     0.056 A 
HETATM    7  C18 UNL     1      -6.149  18.190  25.730  1.00  0.00    -0.020 C 
HETATM    8  C19 UNL     1      -6.354  19.290  26.343  1.00  0.00    -0.004 C 
HETATM    9  C20 UNL     1      -6.410  19.652  27.784  1.00  0.00     0.121 C 
HETATM   10  C21 UNL     1      -6.867  18.461  28.524  1.00  0.00     0.031 C 
HETATM   11  C22 UNL     1      -7.823  18.629  29.655  1.00  0.00     0.012 C 
HETATM   12  C23 UNL     1      -8.759  17.416  29.527  1.00  0.00     0.103 C 
HETATM   13  C24 UNL     1      -8.006  16.139  29.607  1.00  0.00     0.222 C 
HETATM   14  O3  UNL     1      -6.863  16.250  30.137  1.00  0.00    -0.273 OA
HETATM   15  N5  UNL     1      -8.409  14.848  29.175  1.00  0.00    -0.327 N 
ATOM     16  H5  UNL     1      -8.547  14.204  29.954  1.00  0.00     0.169 HD
HETATM   17  C25 UNL     1      -5.045  15.921  25.224  1.00  0.00     0.117 A 
ENDROOT
BRANCH   5  18
HETATM   18  C8  UNL     1      -7.324  16.401  24.218  1.00  0.00     0.237 C 
HETATM   19  O1  UNL     1      -8.180  17.273  24.461  1.00  0.00    -0.272 OA
HETATM   20  N1  UNL     1      -7.115  15.967  22.886  1.00  0.00    -0.329 N 
ATOM     21  H1  UNL     1      -6.403  15.256  22.717  1.00  0.00     0.168 HD
BRANCH  20  22
HETATM   22  C9  UNL     1      -7.831  16.462  21.782  1.00  0.00     0.020 C 
HETATM   23  C10 UNL     1      -9.115  16.308  21.548  1.00  0.00     0.096 C 
BRANCH  23  24
HETATM   24  C11 UNL     1     -10.043  15.594  22.385  1.00  0.00     0.256 C 
HETATM   25  N2  UNL     1      -9.797  14.242  22.774  1.00  0.00    -0.058 NA
HETATM   26  O2  UNL     1     -11.104  16.179  22.783  1.00  0.00    -0.272 OA
ENDBRANCH  23  24
BRANCH  22  27
HETATM   27  C12 UNL     1      -7.029  17.258  20.786  1.00  0.00     0.084 C 
BRANCH  27  28
HETATM   28  C13 UNL     1      -6.086  16.428  20.030  1.00  0.00    -0.019 C 
HETATM   29  C14 UNL     1      -5.155  16.864  19.212  1.00  0.00    -0.091 C 
HETATM   30  C15 UNL     1      -4.233  15.945  18.478  1.00  0.00     0.042 C 
HETATM   31  C16 UNL     1      -5.010  18.343  19.004  1.00  0.00     0.042 C 
ENDBRANCH  27  28
ENDBRANCH  22  27
ENDBRANCH  20  22
ENDBRANCH   5  18
BRANCH  17  32
HETATM   32  N6  UNL     1      -4.329  16.585  24.223  1.00  0.00    -0.336 N 
HETATM   33  C26 UNL     1      -2.916  16.447  24.081  1.00  0.00     0.318 C 
HETATM   34  O4  UNL     1      -2.297  15.702  24.886  1.00  0.00    -0.247 OA
HETATM   35  N7  UNL     1      -2.176  17.116  23.068  1.00  0.00    -0.335 N 
HETATM   36  C27 UNL     1      -2.886  17.963  22.130  1.00  0.00     0.154 C 
ATOM     37  H6  UNL     1      -4.834  17.188  23.573  1.00  0.00     0.164 HD
BRANCH  35  38
HETATM   38  C28 UNL     1      -0.751  16.992  22.940  1.00  0.00     0.080 C 
HETATM   39  C29 UNL     1      -0.137  18.211  23.624  1.00  0.00     0.032 C 
HETATM   40  C30 UNL     1      -0.377  17.085  21.473  1.00  0.00     0.032 C 
ENDBRANCH  35  38
ENDBRANCH  17  32
BRANCH   1  41
HETATM   41  C2  UNL     1     -10.913  13.756  28.977  1.00  0.00     0.103 C 
BRANCH  41  42
HETATM   42  S1  UNL     1     -12.519  14.407  28.463  1.00  0.00    -0.170 SA
HETATM   43  C1  UNL     1     -12.450  16.221  28.694  1.00  0.00     0.090 C 
ENDBRANCH  41  42
ENDBRANCH   1  41
BRANCH   9  44
HETATM   44  N3  UNL     1      -7.251  20.793  28.019  1.00  0.00    -0.335 N 
HETATM   45  N4  UNL     1      -8.366  20.920  27.497  1.00  0.00    -0.349 N 
ATOM     46  H42 UNL     1      -8.686  20.175  26.878  1.00  0.00     0.176 HD
ATOM     47  H41 UNL     1      -8.963  21.730  27.665  1.00  0.00     0.176 HD
ATOM     48  H3  UNL     1      -6.916  21.528  28.641  1.00  0.00     0.180 HD
ENDBRANCH   9  44
TORSDOF 10
ENDMDL
MODEL 3
REMARK VINA RESULT: -6.558570182     13.140     18.804
REMARK  10 active torsions:
REMARK  status: ('A' for Active; 'I' for Inactive)
REMARK    1  A    between atoms: S1_2  and  C2_3 
REMARK    2  A    between atoms: C2_3  and  C3_4 
REMARK    3  A    between atoms: C7_8  and  C8_9 
REMARK       I    between atoms: C8_9  and  N1_11 
REMARK    4  A    between atoms: N1_11  and  C9_13 
REMARK    5  A    between atoms: C9_13  and  C12_18 
REMARK    6  A    between atoms: C10_14  and  C11_15 
REMARK    7  A    between atoms: C12_18  and  C13_19 
REMARK    8  A    between atoms: C20_26  and  N3_27 
REMARK    9  A    between atoms: C25_39  and  N6_40 
REMARK       I    between atoms: N6_40  and  C26_42 
REMARK       I    between atoms: C26_42  and  N7_44 
REMARK   10  A    between atoms: N7_44  and  C28_46 
ROOT
HETATM    1  C3  UNL     1     -11.644  11.579  40.317  1.00  0.00     0.013 C 
HETATM    2  C4  UNL     1     -12.093  12.555  39.449  1.00  0.00     0.031 C 
HETATM    3  C5  UNL     1     -11.592  12.503  38.095  1.00  0.00     0.026 C 
HETATM    4  C6  UNL     1     -11.871  12.528  36.853  1.00  0.00    -0.002 C 
HETATM    5  C7  UNL     1     -12.956  12.631  35.872  1.00  0.00     0.089 A 
HETATM    6  C17 UNL     1     -14.032  13.556  35.913  1.00  0.00     0.056 A 
HETATM    7  C18 UNL     1     -15.306  12.938  35.412  1.00  0.00    -0.020 C 
HETATM    8  C19 UNL     1     -16.524  13.042  35.776  1.00  0.00    -0.004 C 
HETATM    9  C20 UNL     1     -17.198  13.819  36.851  1.00  0.00     0.121 C 
HETATM   10  C21 UNL     1     -16.230  13.992  37.949  1.00  0.00     0.031 C 
HETATM   11  C22 UNL     1     -16.701  13.879  39.359  1.00  0.00     0.012 C 
HETATM   12  C23 UNL     1     -15.547  13.157  40.074  1.00  0.00     0.103 C 
HETATM   13  C24 UNL     1     -14.277  13.916  39.959  1.00  0.00     0.222 C 
HETATM   14  O3  UNL     1     -14.434  15.137  39.667  1.00  0.00    -0.273 OA
HETATM   15  N5  UNL     1     -12.948  13.448  40.138  1.00  0.00    -0.327 N 
ATOM     16  H5  UNL     1     -12.502  13.853  40.961  1.00  0.00     0.169 HD
HETATM   17  C25 UNL     1     -12.920  13.718  34.846  1.00  0.00     0.117 A 
ENDROOT
BRANCH   5  18
HETATM   18  C8  UNL     1     -13.300  11.254  35.319  1.00  0.00     0.237 C 
HETATM   19  O1  UNL     1     -13.062  11.027  34.118  1.00  0.00    -0.272 OA
HETATM   20  N1  UNL     1     -13.875  10.243  36.130  1.00  0.00    -0.329 N 
ATOM     21  H1  UNL     1     -14.053  10.457  37.112  1.00  0.00     0.168 HD
BRANCH  20  22
HETATM   22  C9  UNL     1     -14.213   8.963  35.659  1.00  0.00     0.020 C 
HETATM   23  C10 UNL     1     -15.400   8.561  35.265  1.00  0.00     0.096 C 
BRANCH  23  24
HETATM   24  C11 UNL     1     -16.595   9.362  35.242  1.00  0.00     0.256 C 
HETATM   25  N2  UNL     1     -17.159   9.814  34.010  1.00  0.00    -0.058 NA
HETATM   26  O2  UNL     1     -17.159   9.675  36.342  1.00  0.00    -0.272 OA
ENDBRANCH  23  24
BRANCH  22  27
HETATM   27  C12 UNL     1     -13.081   7.971  35.595  1.00  0.00     0.084 C 
BRANCH  27  28
HETATM   28  C13 UNL     1     -13.067   7.058  36.742  1.00  0.00    -0.019 C 
HETATM   29  C14 UNL     1     -12.346   7.198  37.832  1.00  0.00    -0.091 C 
HETATM   30  C15 UNL     1     -12.392   6.217  38.959  1.00  0.00     0.042 C 
HETATM   31  C16 UNL     1     -11.441   8.388  37.953  1.00  0.00     0.042 C 
ENDBRANCH  27  28
ENDBRANCH  22  27
ENDBRANCH  20  22
ENDBRANCH   5  18
BRANCH  17  32
HETATM   32  N6  UNL     1     -13.302  13.643  33.503  1.00  0.00    -0.336 N 
HETATM   33  C26 UNL     1     -12.437  14.045  32.443  1.00  0.00     0.318 C 
HETATM   34  O4  UNL     1     -11.290  14.482  32.731  1.00  0.00    -0.247 OA
HETATM   35  N7  UNL     1     -12.812  13.975  31.074  1.00  0.00    -0.335 N 
HETATM   36  C27 UNL     1     -14.125  13.460  30.737  1.00  0.00     0.154 C 
ATOM     37  H6  UNL     1     -14.232  13.289  33.274  1.00  0.00     0.164 HD
BRANCH  35  38
HETATM   38  C28 UNL     1     -11.947  14.400  30.010  1.00  0.00     0.080 C 
HETATM   39  C29 UNL     1     -12.836  15.030  28.940  1.00  0.00     0.032 C 
HETATM   40  C30 UNL     1     -11.306  13.180  29.376  1.00  0.00     0.032 C 
ENDBRANCH  35  38
ENDBRANCH  17  32
BRANCH   1  41
HETATM   41  C2  UNL     1     -11.991  11.416  41.705  1.00  0.00     0.103 C 
BRANCH  41  42
HETATM   42  S1  UNL     1     -10.746  12.045  42.855  1.00  0.00    -0.170 SA
HETATM   43  C1  UNL     1      -9.386  12.726  41.837  1.00  0.00     0.090 C 
ENDBRANCH  41  42
ENDBRANCH   1  41
BRANCH   9  44
HETATM   44  N3  UNL     1     -18.411  13.186  37.291  1.00  0.00    -0.335 N 
HETATM   45  N4  UNL     1     -18.873  12.175  36.747  1.00  0.00    -0.349 N 
ATOM     46  H42 UNL     1     -18.359  11.788  35.955  1.00  0.00     0.176 HD
ATOM     47  H41 UNL     1     -19.734  11.726  37.059  1.00  0.00     0.176 HD
ATOM     48  H3  UNL     1     -18.912  13.587  38.084  1.00  0.00     0.180 HD
ENDBRANCH   9  44
TORSDOF 10
ENDMDL
MODEL 4
REMARK VINA RESULT: -6.503927269      5.939     11.652
REMARK  10 active torsions:
REMARK  status: ('A' for Active; 'I' for Inactive)
REMARK    1  A    between atoms: S1_2  and  C2_3 
REMARK    2  A    between atoms: C2_3  and  C3_4 
REMARK    3  A    between atoms: C7_8  and  C8_9 
REMARK       I    between atoms: C8_9  and  N1_11 
REMARK    4  A    between atoms: N1_11  and  C9_13 
REMARK    5  A    between atoms: C9_13  and  C12_18 
REMARK    6  A    between atoms: C10_14  and  C11_15 
REMARK    7  A    between atoms: C12_18  and  C13_19 
REMARK    8  A    between atoms: C20_26  and  N3_27 
REMARK    9  A    between atoms: C25_39  and  N6_40 
REMARK       I    between atoms: N6_40  and  C26_42 
REMARK       I    between atoms: C26_42  and  N7_44 
REMARK   10  A    between atoms: N7_44  and  C28_46 
ROOT
HETATM    1  C3  UNL     1     -13.682  12.838  30.461  1.00  0.00     0.013 C 
HETATM    2  C4  UNL     1     -12.352  12.901  30.827  1.00  0.00     0.031 C 
HETATM    3  C5  UNL     1     -11.385  12.988  29.756  1.00  0.00     0.026 C 
HETATM    4  C6  UNL     1     -10.362  13.585  29.289  1.00  0.00    -0.002 C 
HETATM    5  C7  UNL     1      -9.396  14.663  29.521  1.00  0.00     0.089 A 
HETATM    6  C17 UNL     1      -8.729  14.936  30.744  1.00  0.00     0.056 A 
HETATM    7  C18 UNL     1      -8.554  16.412  30.956  1.00  0.00    -0.020 C 
HETATM    8  C19 UNL     1      -8.623  17.157  31.990  1.00  0.00    -0.004 C 
HETATM    9  C20 UNL     1      -8.907  16.877  33.423  1.00  0.00     0.121 C 
HETATM   10  C21 UNL     1      -9.783  15.692  33.480  1.00  0.00     0.031 C 
HETATM   11  C22 UNL     1     -10.897  15.658  34.470  1.00  0.00     0.012 C 
HETATM   12  C23 UNL     1     -12.041  14.968  33.711  1.00  0.00     0.103 C 
HETATM   13  C24 UNL     1     -11.648  13.612  33.252  1.00  0.00     0.222 C 
HETATM   14  O3  UNL     1     -10.656  13.129  33.872  1.00  0.00    -0.273 OA
HETATM   15  N5  UNL     1     -12.240  12.816  32.235  1.00  0.00    -0.327 N 
ATOM     16  H5  UNL     1     -12.694  11.983  32.610  1.00  0.00     0.169 HD
HETATM   17  C25 UNL     1      -7.934  14.347  29.551  1.00  0.00     0.117 A 
ENDROOT
BRANCH   5  18
HETATM   18  C8  UNL     1      -9.759  15.886  28.689  1.00  0.00     0.237 C 
HETATM   19  O1  UNL     1     -10.685  16.615  29.090  1.00  0.00    -0.272 OA
HETATM   20  N1  UNL     1      -9.075  16.206  27.490  1.00  0.00    -0.329 N 
ATOM     21  H1  UNL     1      -8.316  15.593  27.190  1.00  0.00     0.168 HD
BRANCH  20  22
HETATM   22  C9  UNL     1      -9.382  17.320  26.690  1.00  0.00     0.020 C 
HETATM   23  C10 UNL     1      -8.793  18.494  26.722  1.00  0.00     0.096 C 
BRANCH  23  24
HETATM   24  C11 UNL     1      -7.710  18.869  27.592  1.00  0.00     0.256 C 
HETATM   25  N2  UNL     1      -6.708  19.793  27.168  1.00  0.00    -0.058 NA
HETATM   26  O2  UNL     1      -7.644  18.364  28.762  1.00  0.00    -0.272 OA
ENDBRANCH  23  24
BRANCH  22  27
HETATM   27  C12 UNL     1     -10.494  17.122  25.693  1.00  0.00     0.084 C 
BRANCH  27  28
HETATM   28  C13 UNL     1     -10.339  15.890  24.914  1.00  0.00    -0.019 C 
HETATM   29  C14 UNL     1      -9.784  15.791  23.727  1.00  0.00    -0.091 C 
HETATM   30  C15 UNL     1      -9.667  14.491  22.999  1.00  0.00     0.042 C 
HETATM   31  C16 UNL     1      -9.247  17.030  23.074  1.00  0.00     0.042 C 
ENDBRANCH  27  28
ENDBRANCH  22  27
ENDBRANCH  20  22
ENDBRANCH   5  18
BRANCH  17  32
HETATM   32  N6  UNL     1      -6.881  15.111  29.042  1.00  0.00    -0.336 N 
HETATM   33  C26 UNL     1      -6.496  15.056  27.669  1.00  0.00     0.318 C 
HETATM   34  O4  UNL     1      -7.130  14.292  26.894  1.00  0.00    -0.247 OA
HETATM   35  N7  UNL     1      -5.427  15.828  27.138  1.00  0.00    -0.335 N 
HETATM   36  C27 UNL     1      -4.704  16.719  28.023  1.00  0.00     0.154 C 
ATOM     37  H6  UNL     1      -6.369  15.729  29.673  1.00  0.00     0.164 HD
BRANCH  35  38
HETATM   38  C28 UNL     1      -5.029  15.755  25.760  1.00  0.00     0.080 C 
HETATM   39  C29 UNL     1      -3.660  16.425  25.659  1.00  0.00     0.032 C 
HETATM   40  C30 UNL     1      -5.982  16.588  24.925  1.00  0.00     0.032 C 
ENDBRANCH  35  38
ENDBRANCH  17  32
BRANCH   1  41
HETATM   41  C2  UNL     1     -14.825  12.745  31.333  1.00  0.00     0.103 C 
BRANCH  41  42
HETATM   42  S1  UNL     1     -15.350  11.052  31.682  1.00  0.00    -0.170 SA
HETATM   43  C1  UNL     1     -15.011  10.750  33.456  1.00  0.00     0.090 C 
ENDBRANCH  41  42
ENDBRANCH   1  41
BRANCH   9  44
HETATM   44  N3  UNL     1      -9.485  18.013  34.087  1.00  0.00    -0.335 N 
HETATM   45  N4  UNL     1      -8.809  18.830  34.724  1.00  0.00    -0.349 N 
ATOM     46  H42 UNL     1      -7.801  18.676  34.770  1.00  0.00     0.176 HD
ATOM     47  H41 UNL     1      -9.219  19.636  35.196  1.00  0.00     0.176 HD
ATOM     48  H3  UNL     1     -10.494  18.152  34.030  1.00  0.00     0.180 HD
ENDBRANCH   9  44
TORSDOF 10
ENDMDL
MODEL 5
REMARK VINA RESULT: -6.427832472     13.102     18.907
REMARK  10 active torsions:
REMARK  status: ('A' for Active; 'I' for Inactive)
REMARK    1  A    between atoms: S1_2  and  C2_3 
REMARK    2  A    between atoms: C2_3  and  C3_4 
REMARK    3  A    between atoms: C7_8  and  C8_9 
REMARK       I    between atoms: C8_9  and  N1_11 
REMARK    4  A    between atoms: N1_11  and  C9_13 
REMARK    5  A    between atoms: C9_13  and  C12_18 
REMARK    6  A    between atoms: C10_14  and  C11_15 
REMARK    7  A    between atoms: C12_18  and  C13_19 
REMARK    8  A    between atoms: C20_26  and  N3_27 
REMARK    9  A    between atoms: C25_39  and  N6_40 
REMARK       I    between atoms: N6_40  and  C26_42 
REMARK       I    between atoms: C26_42  and  N7_44 
REMARK   10  A    between atoms: N7_44  and  C28_46 
ROOT
HETATM    1  C3  UNL     1     -12.274  10.975  41.009  1.00  0.00     0.013 C 
HETATM    2  C4  UNL     1     -12.613  12.100  40.284  1.00  0.00     0.031 C 
HETATM    3  C5  UNL     1     -11.805  12.393  39.121  1.00  0.00     0.026 C 
HETATM    4  C6  UNL     1     -11.787  12.692  37.885  1.00  0.00    -0.002 C 
HETATM    5  C7  UNL     1     -12.617  12.962  36.706  1.00  0.00     0.089 A 
HETATM    6  C17 UNL     1     -13.767  13.793  36.669  1.00  0.00     0.056 A 
HETATM    7  C18 UNL     1     -14.813  13.242  35.743  1.00  0.00    -0.020 C 
HETATM    8  C19 UNL     1     -16.086  13.192  35.800  1.00  0.00    -0.004 C 
HETATM    9  C20 UNL     1     -17.074  13.660  36.809  1.00  0.00     0.121 C 
HETATM   10  C21 UNL     1     -16.415  13.624  38.128  1.00  0.00     0.031 C 
HETATM   11  C22 UNL     1     -17.187  13.160  39.315  1.00  0.00     0.012 C 
HETATM   12  C23 UNL     1     -16.162  12.354  40.128  1.00  0.00     0.103 C 
HETATM   13  C24 UNL     1     -14.991  13.186  40.503  1.00  0.00     0.222 C 
HETATM   14  O3  UNL     1     -15.208  14.431  40.447  1.00  0.00    -0.273 OA
HETATM   15  N5  UNL     1     -13.698  12.761  40.908  1.00  0.00    -0.327 N 
ATOM     16  H5  UNL     1     -13.504  12.986  41.884  1.00  0.00     0.169 HD
HETATM   17  C25 UNL     1     -12.461  14.259  35.977  1.00  0.00     0.117 A 
ENDROOT
BRANCH   5  18
HETATM   18  C8  UNL     1     -12.669  11.736  35.804  1.00  0.00     0.237 C 
HETATM   19  O1  UNL     1     -11.975  11.737  34.770  1.00  0.00    -0.272 OA
HETATM   20  N1  UNL     1     -13.476  10.612  36.114  1.00  0.00    -0.329 N 
ATOM     21  H1  UNL     1     -14.028  10.638  36.971  1.00  0.00     0.168 HD
BRANCH  20  22
HETATM   22  C9  UNL     1     -13.557   9.464  35.307  1.00  0.00     0.020 C 
HETATM   23  C10 UNL     1     -13.079   8.273  35.589  1.00  0.00     0.096 C 
BRANCH  23  24
HETATM   24  C11 UNL     1     -12.372   7.912  36.789  1.00  0.00     0.256 C 
HETATM   25  N2  UNL     1     -12.696   6.720  37.506  1.00  0.00    -0.058 NA
HETATM   26  O2  UNL     1     -11.442   8.670  37.218  1.00  0.00    -0.272 OA
ENDBRANCH  23  24
BRANCH  22  27
HETATM   27  C12 UNL     1     -14.280   9.636  33.997  1.00  0.00     0.084 C 
BRANCH  27  28
HETATM   28  C13 UNL     1     -15.727   9.802  34.169  1.00  0.00    -0.019 C 
HETATM   29  C14 UNL     1     -16.546  10.381  33.320  1.00  0.00    -0.091 C 
HETATM   30  C15 UNL     1     -18.013  10.508  33.576  1.00  0.00     0.042 C 
HETATM   31  C16 UNL     1     -15.989  10.936  32.043  1.00  0.00     0.042 C 
ENDBRANCH  27  28
ENDBRANCH  22  27
ENDBRANCH  20  22
ENDBRANCH   5  18
BRANCH  17  32
HETATM   32  N6  UNL     1     -12.508  14.479  34.598  1.00  0.00    -0.336 N 
HETATM   33  C26 UNL     1     -11.458  15.145  33.898  1.00  0.00     0.318 C 
HETATM   34  O4  UNL     1     -10.457  15.548  34.550  1.00  0.00    -0.247 OA
HETATM   35  N7  UNL     1     -11.492  15.376  32.496  1.00  0.00    -0.335 N 
HETATM   36  C27 UNL     1     -12.635  14.902  31.740  1.00  0.00     0.154 C 
ATOM     37  H6  UNL     1     -13.320  14.152  34.074  1.00  0.00     0.164 HD
BRANCH  35  38
HETATM   38  C28 UNL     1     -10.444  16.065  31.798  1.00  0.00     0.080 C 
HETATM   39  C29 UNL     1     -11.100  16.811  30.639  1.00  0.00     0.032 C 
HETATM   40  C30 UNL     1      -9.507  15.045  31.181  1.00  0.00     0.032 C 
ENDBRANCH  35  38
ENDBRANCH  17  32
BRANCH   1  41
HETATM   41  C2  UNL     1     -12.917  10.474  42.197  1.00  0.00     0.103 C 
BRANCH  41  42
HETATM   42  S1  UNL     1     -14.124   9.166  41.886  1.00  0.00    -0.170 SA
HETATM   43  C1  UNL     1     -14.148   8.891  40.077  1.00  0.00     0.090 C 
ENDBRANCH  41  42
ENDBRANCH   1  41
BRANCH   9  44
HETATM   44  N3  UNL     1     -18.279  12.878  36.783  1.00  0.00    -0.335 N 
HETATM   45  N4  UNL     1     -19.212  13.113  36.005  1.00  0.00    -0.349 N 
ATOM     46  H42 UNL     1     -19.105  13.898  35.362  1.00  0.00     0.176 HD
ATOM     47  H41 UNL     1     -20.067  12.558  35.986  1.00  0.00     0.176 HD
ATOM     48  H3  UNL     1     -18.370  12.096  37.432  1.00  0.00     0.180 HD
ENDBRANCH   9  44
TORSDOF 10
ENDMDL
