MODEL 1
REMARK VINA RESULT: -9.286506297      0.000      0.000
REMARK  13 active torsions:
REMARK  status: ('A' for Active; 'I' for Inactive)
REMARK    1  A    between atoms: C3_5  and  C4_6 
REMARK       I    between atoms: C4_6  and  N2_8 
REMARK    2  A    between atoms: N2_8  and  C5_10 
REMARK    3  A    between atoms: C5_10  and  C6_11 
REMARK    4  A    between atoms: C5_10  and  C7_14 
REMARK    5  A    between atoms: C13_22  and  N4_23 
REMARK    6  A    between atoms: N4_23  and  C14_24 
REMARK    7  A    between atoms: N4_23  and  C21_36 
REMARK    8  A    between atoms: C14_24  and  C15_25 
REMARK    9  A    between atoms: C15_25  and  C16_26 
REMARK   10  A    between atoms: C16_26  and  N5_27 
REMARK       I    between atoms: N5_27  and  C17_29 
REMARK       I    between atoms: C17_29  and  N6_31 
REMARK   11  A    between atoms: N6_31  and  C18_33 
REMARK   12  A    between atoms: C21_36  and  O6_37 
REMARK   13  A    between atoms: C21_36  and  C22_39 
ROOT
HETATM    1  C1  UNL     1     -13.199  16.089  28.202  1.00  0.00     0.153 C 
HETATM    2  N1  UNL     1     -12.029  15.246  28.319  1.00  0.00    -0.347 N 
HETATM    3  C2  UNL     1     -12.199  13.862  28.549  1.00  0.00     0.251 C 
HETATM    4  O1  UNL     1     -13.122  13.197  28.025  1.00  0.00    -0.270 OA
HETATM    5  C3  UNL     1     -11.235  13.184  29.455  1.00  0.00     0.263 C 
HETATM    6  N3  UNL     1      -9.964  13.787  29.544  1.00  0.00    -0.396 N 
ATOM      7  H3  UNL     1      -9.248  13.345  30.122  1.00  0.00     0.155 HD
HETATM    8  C11 UNL     1      -9.650  14.965  28.869  1.00  0.00     0.102 C 
HETATM    9  C12 UNL     1      -8.689  14.562  27.707  1.00  0.00     0.052 C 
HETATM   10  C13 UNL     1      -8.815  15.754  26.784  1.00  0.00     0.090 C 
HETATM   11  C30 UNL     1     -10.304  15.890  26.727  1.00  0.00     0.052 C 
HETATM   12  C31 UNL     1     -10.695  15.762  28.204  1.00  0.00     0.111 C 
ENDROOT
BRANCH  10  13
HETATM   13  N4  UNL     1      -8.035  15.843  25.647  1.00  0.00    -0.360 N 
BRANCH  13  14
HETATM   14  C14 UNL     1      -6.956  16.922  25.746  1.00  0.00     0.127 C 
BRANCH  14  15
HETATM   15  C15 UNL     1      -7.582  18.252  25.961  1.00  0.00     0.039 C 
BRANCH  15  16
HETATM   16  C16 UNL     1      -6.896  18.960  27.104  1.00  0.00     0.126 C 
BRANCH  16  17
HETATM   17  N5  UNL     1      -7.733  18.971  28.294  1.00  0.00    -0.343 N 
HETATM   18  C17 UNL     1      -7.583  17.991  29.317  1.00  0.00     0.316 C 
HETATM   19  O5  UNL     1      -6.717  17.076  29.232  1.00  0.00    -0.247 OA
HETATM   20  N6  UNL     1      -8.424  18.043  30.452  1.00  0.00    -0.339 N 
ATOM     21  H6  UNL     1      -9.128  18.775  30.535  1.00  0.00     0.164 HD
ATOM     22  H5  UNL     1      -8.443  19.697  28.398  1.00  0.00     0.164 HD
BRANCH  20  23
HETATM   23  C18 UNL     1      -8.280  17.054  31.495  1.00  0.00     0.086 A 
HETATM   24  C19 UNL     1      -8.649  17.441  32.906  1.00  0.00     0.027 A 
HETATM   25  C20 UNL     1      -9.534  16.496  32.135  1.00  0.00     0.027 A 
ENDBRANCH  20  23
ENDBRANCH  16  17
ENDBRANCH  15  16
ENDBRANCH  14  15
ENDBRANCH  13  14
BRANCH  13  26
HETATM   26  C21 UNL     1      -7.990  15.175  24.439  1.00  0.00     0.123 C 
BRANCH  26  27
HETATM   27  O6  UNL     1      -7.234  14.074  24.480  1.00  0.00    -0.349 OA
ATOM     28  H6  UNL     1      -7.084  13.696  23.622  1.00  0.00     0.219 HD
ENDBRANCH  26  27
BRANCH  26  29
HETATM   29  C22 UNL     1      -8.555  15.342  23.107  1.00  0.00     0.028 C 
HETATM   30  C23 UNL     1      -7.470  15.598  22.084  1.00  0.00     0.018 C 
HETATM   31  C24 UNL     1      -7.957  15.555  20.662  1.00  0.00     0.001 C 
HETATM   32  C25 UNL     1      -9.065  16.549  20.486  1.00  0.00     0.000 C 
HETATM   33  C26 UNL     1      -9.252  17.362  21.739  1.00  0.00     0.006 C 
HETATM   34  C27 UNL     1      -9.471  16.577  22.980  1.00  0.00     0.002 C 
HETATM   35  C28 UNL     1     -10.672  15.707  22.884  1.00  0.00     0.007 C 
HETATM   36  C29 UNL     1      -9.722  14.531  22.686  1.00  0.00     0.018 C 
ENDBRANCH  26  29
ENDBRANCH  13  26
ENDBRANCH  10  13
BRANCH   5  37
HETATM   37  C4  UNL     1     -11.854  12.923  30.789  1.00  0.00     0.250 C 
HETATM   38  O2  UNL     1     -11.709  13.756  31.733  1.00  0.00    -0.271 OA
HETATM   39  N2  UNL     1     -12.614  11.759  31.061  1.00  0.00    -0.344 N 
ATOM     40  H2  UNL     1     -12.733  11.081  30.309  1.00  0.00     0.163 HD
BRANCH  39  41
HETATM   41  C5  UNL     1     -13.225  11.474  32.322  1.00  0.00     0.193 C 
BRANCH  41  42
HETATM   42  C6  UNL     1     -14.453  12.268  32.563  1.00  0.00     0.197 C 
HETATM   43  O3  UNL     1     -15.065  12.679  31.517  1.00  0.00    -0.646 OA
HETATM   44  O4  UNL     1     -14.907  12.545  33.824  1.00  0.00    -0.646 OA
ENDBRANCH  41  42
BRANCH  41  45
HETATM   45  C7  UNL     1     -13.658  10.002  32.283  1.00  0.00    -0.021 C 
HETATM   46  C8  UNL     1     -13.576   9.454  33.704  1.00  0.00     0.017 C 
HETATM   47  C9  UNL     1     -15.079   9.861  31.784  1.00  0.00     0.017 C 
HETATM   48  C10 UNL     1     -12.747   9.269  31.339  1.00  0.00     0.017 C 
ENDBRANCH  41  45
ENDBRANCH  39  41
ENDBRANCH   5  37
TORSDOF 13
ENDMDL
MODEL 2
REMARK VINA RESULT: -9.079454827      3.301      9.762
REMARK  13 active torsions:
REMARK  status: ('A' for Active; 'I' for Inactive)
REMARK    1  A    between atoms: C3_5  and  C4_6 
REMARK       I    between atoms: C4_6  and  N2_8 
REMARK    2  A    between atoms: N2_8  and  C5_10 
REMARK    3  A    between atoms: C5_10  and  C6_11 
REMARK    4  A    between atoms: C5_10  and  C7_14 
REMARK    5  A    between atoms: C13_22  and  N4_23 
REMARK    6  A    between atoms: N4_23  and  C14_24 
REMARK    7  A    between atoms: N4_23  and  C21_36 
REMARK    8  A    between atoms: C14_24  and  C15_25 
REMARK    9  A    between atoms: C15_25  and  C16_26 
REMARK   10  A    between atoms: C16_26  and  N5_27 
REMARK       I    between atoms: N5_27  and  C17_29 
REMARK       I    between atoms: C17_29  and  N6_31 
REMARK   11  A    between atoms: N6_31  and  C18_33 
REMARK   12  A    between atoms: C21_36  and  O6_37 
REMARK   13  A    between atoms: C21_36  and  C22_39 
ROOT
HETATM    1  C1  UNL     1      -4.400  15.895  27.651  1.00  0.00     0.153 C 
HETATM    2  N1  UNL     1      -5.535  16.680  27.221  1.00  0.00    -0.347 N 
HETATM    3  C2  UNL     1      -5.951  16.604  25.872  1.00  0.00     0.251 C 
HETATM    4  O1  UNL     1      -5.928  15.538  25.215  1.00  0.00    -0.270 OA
HETATM    5  C3  UNL     1      -6.432  17.852  25.222  1.00  0.00     0.263 C 
HETATM    6  N3  UNL     1      -6.964  18.822  26.095  1.00  0.00    -0.396 N 
ATOM      7  H3  UNL     1      -7.343  19.684  25.702  1.00  0.00     0.155 HD
HETATM    8  C11 UNL     1      -6.990  18.644  27.477  1.00  0.00     0.102 C 
HETATM    9  C12 UNL     1      -8.482  18.385  27.857  1.00  0.00     0.052 C 
HETATM   10  C13 UNL     1      -8.338  17.733  29.215  1.00  0.00     0.090 C 
HETATM   11  C30 UNL     1      -7.288  16.712  28.909  1.00  0.00     0.052 C 
HETATM   12  C31 UNL     1      -6.265  17.532  28.116  1.00  0.00     0.111 C 
ENDROOT
BRANCH  10  13
HETATM   13  N4  UNL     1      -9.458  17.420  29.962  1.00  0.00    -0.360 N 
BRANCH  13  14
HETATM   14  C14 UNL     1      -9.264  17.664  31.459  1.00  0.00     0.127 C 
BRANCH  14  15
HETATM   15  C15 UNL     1      -8.545  16.519  32.075  1.00  0.00     0.039 C 
BRANCH  15  16
HETATM   16  C16 UNL     1      -9.294  16.042  33.295  1.00  0.00     0.126 C 
BRANCH  16  17
HETATM   17  N5  UNL     1      -9.978  14.785  33.034  1.00  0.00    -0.343 N 
HETATM   18  C17 UNL     1     -11.380  14.739  32.789  1.00  0.00     0.316 C 
HETATM   19  O5  UNL     1     -12.085  15.788  32.787  1.00  0.00    -0.247 OA
HETATM   20  N6  UNL     1     -11.999  13.492  32.544  1.00  0.00    -0.339 N 
ATOM     21  H6  UNL     1     -11.445  12.637  32.543  1.00  0.00     0.164 HD
ATOM     22  H5  UNL     1      -9.441  13.917  33.026  1.00  0.00     0.164 HD
BRANCH  20  23
HETATM   23  C18 UNL     1     -13.421  13.435  32.296  1.00  0.00     0.086 A 
HETATM   24  C19 UNL     1     -13.957  12.300  31.458  1.00  0.00     0.027 A 
HETATM   25  C20 UNL     1     -14.221  12.322  32.941  1.00  0.00     0.027 A 
ENDBRANCH  20  23
ENDBRANCH  16  17
ENDBRANCH  15  16
ENDBRANCH  14  15
ENDBRANCH  13  14
BRANCH  13  26
HETATM   26  C21 UNL     1     -10.723  16.948  29.674  1.00  0.00     0.123 C 
BRANCH  26  27
HETATM   27  O6  UNL     1     -11.688  17.623  30.305  1.00  0.00    -0.349 OA
ATOM     28  H6  UNL     1     -12.558  17.399  29.999  1.00  0.00     0.219 HD
ENDBRANCH  26  27
BRANCH  26  29
HETATM   29  C22 UNL     1     -11.307  15.898  28.851  1.00  0.00     0.028 C 
HETATM   30  C23 UNL     1     -12.671  15.496  29.367  1.00  0.00     0.018 C 
HETATM   31  C24 UNL     1     -13.424  14.583  28.441  1.00  0.00     0.001 C 
HETATM   32  C25 UNL     1     -12.602  13.358  28.173  1.00  0.00     0.000 C 
HETATM   33  C26 UNL     1     -11.351  13.366  29.010  1.00  0.00     0.006 C 
HETATM   34  C27 UNL     1     -10.505  14.580  28.879  1.00  0.00     0.002 C 
HETATM   35  C28 UNL     1     -10.053  14.795  27.480  1.00  0.00     0.007 C 
HETATM   36  C29 UNL     1     -11.100  15.900  27.382  1.00  0.00     0.018 C 
ENDBRANCH  26  29
ENDBRANCH  13  26
ENDBRANCH  10  13
BRANCH   5  37
HETATM   37  C4  UNL     1      -5.396  18.401  24.298  1.00  0.00     0.250 C 
HETATM   38  O2  UNL     1      -5.696  19.317  23.475  1.00  0.00    -0.271 OA
HETATM   39  N2  UNL     1      -4.057  17.937  24.292  1.00  0.00    -0.344 N 
ATOM     40  H2  UNL     1      -3.806  17.198  24.948  1.00  0.00     0.163 HD
BRANCH  39  41
HETATM   41  C5  UNL     1      -3.035  18.439  23.426  1.00  0.00     0.193 C 
BRANCH  41  42
HETATM   42  C6  UNL     1      -2.084  19.342  24.116  1.00  0.00     0.197 C 
HETATM   43  O3  UNL     1      -1.697  20.360  23.445  1.00  0.00    -0.646 OA
HETATM   44  O4  UNL     1      -1.646  19.104  25.391  1.00  0.00    -0.646 OA
ENDBRANCH  41  42
BRANCH  41  45
HETATM   45  C7  UNL     1      -2.221  17.228  22.952  1.00  0.00    -0.021 C 
HETATM   46  C8  UNL     1      -2.903  16.666  21.709  1.00  0.00     0.017 C 
HETATM   47  C9  UNL     1      -0.804  17.624  22.597  1.00  0.00     0.017 C 
HETATM   48  C10 UNL     1      -2.170  16.227  24.072  1.00  0.00     0.017 C 
ENDBRANCH  41  45
ENDBRANCH  39  41
ENDBRANCH   5  37
TORSDOF 13
ENDMDL
MODEL 3
REMARK VINA RESULT: -8.859244767      2.741      9.743
REMARK  13 active torsions:
REMARK  status: ('A' for Active; 'I' for Inactive)
REMARK    1  A    between atoms: C3_5  and  C4_6 
REMARK       I    between atoms: C4_6  and  N2_8 
REMARK    2  A    between atoms: N2_8  and  C5_10 
REMARK    3  A    between atoms: C5_10  and  C6_11 
REMARK    4  A    between atoms: C5_10  and  C7_14 
REMARK    5  A    between atoms: C13_22  and  N4_23 
REMARK    6  A    between atoms: N4_23  and  C14_24 
REMARK    7  A    between atoms: N4_23  and  C21_36 
REMARK    8  A    between atoms: C14_24  and  C15_25 
REMARK    9  A    between atoms: C15_25  and  C16_26 
REMARK   10  A    between atoms: C16_26  and  N5_27 
REMARK       I    between atoms: N5_27  and  C17_29 
REMARK       I    between atoms: C17_29  and  N6_31 
REMARK   11  A    between atoms: N6_31  and  C18_33 
REMARK   12  A    between atoms: C21_36  and  O6_37 
REMARK   13  A    between atoms: C21_36  and  C22_39 
ROOT
HETATM    1  C1  UNL     1      -4.439  16.184  27.071  1.00  0.00     0.153 C 
HETATM    2  N1  UNL     1      -5.694  16.799  26.699  1.00  0.00    -0.347 N 
HETATM    3  C2  UNL     1      -6.229  16.546  25.416  1.00  0.00     0.251 C 
HETATM    4  O1  UNL     1      -6.148  15.428  24.856  1.00  0.00    -0.270 OA
HETATM    5  C3  UNL     1      -6.912  17.665  24.715  1.00  0.00     0.263 C 
HETATM    6  N3  UNL     1      -7.464  18.655  25.552  1.00  0.00    -0.396 N 
ATOM      7  H3  UNL     1      -7.977  19.429  25.129  1.00  0.00     0.155 HD
HETATM    8  C11 UNL     1      -7.333  18.614  26.940  1.00  0.00     0.102 C 
HETATM    9  C12 UNL     1      -8.740  18.238  27.501  1.00  0.00     0.052 C 
HETATM   10  C13 UNL     1      -8.389  17.742  28.887  1.00  0.00     0.090 C 
HETATM   11  C30 UNL     1      -7.264  16.813  28.560  1.00  0.00     0.052 C 
HETATM   12  C31 UNL     1      -6.425  17.654  27.590  1.00  0.00     0.111 C 
ENDROOT
BRANCH  10  13
HETATM   13  N4  UNL     1      -9.386  17.388  29.776  1.00  0.00    -0.360 N 
BRANCH  13  14
HETATM   14  C14 UNL     1      -9.022  17.685  31.231  1.00  0.00     0.127 C 
BRANCH  14  15
HETATM   15  C15 UNL     1      -8.403  16.488  31.857  1.00  0.00     0.039 C 
BRANCH  15  16
HETATM   16  C16 UNL     1      -9.164  16.114  33.105  1.00  0.00     0.126 C 
BRANCH  16  17
HETATM   17  N5  UNL     1      -9.879  14.859  32.930  1.00  0.00    -0.343 N 
HETATM   18  C17 UNL     1     -11.300  14.821  32.841  1.00  0.00     0.316 C 
HETATM   19  O5  UNL     1     -11.995  15.874  32.909  1.00  0.00    -0.247 OA
HETATM   20  N6  UNL     1     -11.949  13.577  32.674  1.00  0.00    -0.339 N 
ATOM     21  H6  UNL     1     -11.403  12.718  32.618  1.00  0.00     0.164 HD
ATOM     22  H5  UNL     1      -9.352  13.989  32.869  1.00  0.00     0.164 HD
BRANCH  20  23
HETATM   23  C18 UNL     1     -13.390  13.526  32.583  1.00  0.00     0.086 A 
HETATM   24  C19 UNL     1     -14.018  12.438  31.748  1.00  0.00     0.027 A 
HETATM   25  C20 UNL     1     -14.114  12.376  33.251  1.00  0.00     0.027 A 
ENDBRANCH  20  23
ENDBRANCH  16  17
ENDBRANCH  15  16
ENDBRANCH  14  15
ENDBRANCH  13  14
BRANCH  13  26
HETATM   26  C21 UNL     1     -10.648  16.839  29.660  1.00  0.00     0.123 C 
BRANCH  26  27
HETATM   27  O6  UNL     1     -11.551  17.437  30.443  1.00  0.00    -0.349 OA
ATOM     28  H6  UNL     1     -12.364  17.630  29.990  1.00  0.00     0.219 HD
ENDBRANCH  26  27
BRANCH  26  29
HETATM   29  C22 UNL     1     -11.278  15.769  28.900  1.00  0.00     0.028 C 
HETATM   30  C23 UNL     1     -12.641  15.430  29.464  1.00  0.00     0.018 C 
HETATM   31  C24 UNL     1     -13.439  14.495  28.598  1.00  0.00     0.001 C 
HETATM   32  C25 UNL     1     -12.656  13.237  28.372  1.00  0.00     0.000 C 
HETATM   33  C26 UNL     1     -11.388  13.250  29.182  1.00  0.00     0.006 C 
HETATM   34  C27 UNL     1     -10.513  14.431  28.975  1.00  0.00     0.002 C 
HETATM   35  C28 UNL     1     -10.086  14.567  27.558  1.00  0.00     0.007 C 
HETATM   36  C29 UNL     1     -11.104  15.695  27.429  1.00  0.00     0.018 C 
ENDBRANCH  26  29
ENDBRANCH  13  26
ENDBRANCH  10  13
BRANCH   5  37
HETATM   37  C4  UNL     1      -6.042  18.226  23.639  1.00  0.00     0.250 C 
HETATM   38  O2  UNL     1      -5.674  19.439  23.683  1.00  0.00    -0.271 OA
HETATM   39  N2  UNL     1      -5.595  17.453  22.539  1.00  0.00    -0.344 N 
ATOM     40  H2  UNL     1      -5.888  16.477  22.492  1.00  0.00     0.163 HD
BRANCH  39  41
HETATM   41  C5  UNL     1      -4.759  17.952  21.492  1.00  0.00     0.193 C 
BRANCH  41  42
HETATM   42  C6  UNL     1      -3.360  17.477  21.593  1.00  0.00     0.197 C 
HETATM   43  O3  UNL     1      -3.164  16.480  22.371  1.00  0.00    -0.646 OA
HETATM   44  O4  UNL     1      -2.338  18.067  20.898  1.00  0.00    -0.646 OA
ENDBRANCH  41  42
BRANCH  41  45
HETATM   45  C7  UNL     1      -5.316  17.392  20.175  1.00  0.00    -0.021 C 
HETATM   46  C8  UNL     1      -4.926  18.353  19.058  1.00  0.00     0.017 C 
HETATM   47  C9  UNL     1      -4.738  16.027  19.872  1.00  0.00     0.017 C 
HETATM   48  C10 UNL     1      -6.807  17.258  20.314  1.00  0.00     0.017 C 
ENDBRANCH  41  45
ENDBRANCH  39  41
ENDBRANCH   5  37
TORSDOF 13
ENDMDL
MODEL 4
REMARK VINA RESULT: -8.847517590      3.465      9.956
REMARK  13 active torsions:
REMARK  status: ('A' for Active; 'I' for Inactive)
REMARK    1  A    between atoms: C3_5  and  C4_6 
REMARK       I    between atoms: C4_6  and  N2_8 
REMARK    2  A    between atoms: N2_8  and  C5_10 
REMARK    3  A    between atoms: C5_10  and  C6_11 
REMARK    4  A    between atoms: C5_10  and  C7_14 
REMARK    5  A    between atoms: C13_22  and  N4_23 
REMARK    6  A    between atoms: N4_23  and  C14_24 
REMARK    7  A    between atoms: N4_23  and  C21_36 
REMARK    8  A    between atoms: C14_24  and  C15_25 
REMARK    9  A    between atoms: C15_25  and  C16_26 
REMARK   10  A    between atoms: C16_26  and  N5_27 
REMARK       I    between atoms: N5_27  and  C17_29 
REMARK       I    between atoms: C17_29  and  N6_31 
REMARK   11  A    between atoms: N6_31  and  C18_33 
REMARK   12  A    between atoms: C21_36  and  O6_37 
REMARK   13  A    between atoms: C21_36  and  C22_39 
ROOT
HETATM    1  C1  UNL     1      -9.721  16.330  22.521  1.00  0.00     0.153 C 
HETATM    2  N1  UNL     1      -8.707  16.261  23.551  1.00  0.00    -0.347 N 
HETATM    3  C2  UNL     1      -7.752  17.299  23.646  1.00  0.00     0.251 C 
HETATM    4  O1  UNL     1      -8.037  18.502  23.443  1.00  0.00    -0.270 OA
HETATM    5  C3  UNL     1      -6.357  16.929  24.002  1.00  0.00     0.263 C 
HETATM    6  N3  UNL     1      -6.218  15.741  24.746  1.00  0.00    -0.396 N 
ATOM      7  H3  UNL     1      -5.286  15.456  25.051  1.00  0.00     0.155 HD
HETATM    8  C11 UNL     1      -7.309  14.941  25.082  1.00  0.00     0.102 C 
HETATM    9  C12 UNL     1      -7.541  15.137  26.613  1.00  0.00     0.052 C 
HETATM   10  C13 UNL     1      -8.971  14.664  26.764  1.00  0.00     0.090 C 
HETATM   11  C30 UNL     1      -9.619  15.413  25.643  1.00  0.00     0.052 C 
HETATM   12  C31 UNL     1      -8.637  15.177  24.489  1.00  0.00     0.111 C 
ENDROOT
BRANCH  10  13
HETATM   13  N4  UNL     1      -9.553  14.585  28.014  1.00  0.00    -0.360 N 
BRANCH  13  14
HETATM   14  C14 UNL     1     -11.073  14.431  27.957  1.00  0.00     0.127 C 
BRANCH  14  15
HETATM   15  C15 UNL     1     -11.731  15.705  28.348  1.00  0.00     0.039 C 
BRANCH  15  16
HETATM   16  C16 UNL     1     -12.779  15.436  29.400  1.00  0.00     0.126 C 
BRANCH  16  17
HETATM   17  N5  UNL     1     -12.456  16.110  30.649  1.00  0.00    -0.343 N 
HETATM   18  C17 UNL     1     -11.909  15.400  31.755  1.00  0.00     0.316 C 
HETATM   19  O5  UNL     1     -11.681  14.159  31.697  1.00  0.00    -0.247 OA
HETATM   20  N6  UNL     1     -11.615  16.099  32.948  1.00  0.00    -0.339 N 
ATOM     21  H6  UNL     1     -11.794  17.101  33.012  1.00  0.00     0.164 HD
ATOM     22  H5  UNL     1     -12.624  17.112  30.732  1.00  0.00     0.164 HD
BRANCH  20  23
HETATM   23  C18 UNL     1     -11.060  15.389  34.077  1.00  0.00     0.086 A 
HETATM   24  C19 UNL     1     -10.109  16.123  34.989  1.00  0.00     0.027 A 
HETATM   25  C20 UNL     1     -11.499  15.793  35.469  1.00  0.00     0.027 A 
ENDBRANCH  20  23
ENDBRANCH  16  17
ENDBRANCH  15  16
ENDBRANCH  14  15
ENDBRANCH  13  14
BRANCH  13  26
HETATM   26  C21 UNL     1      -9.082  14.600  29.312  1.00  0.00     0.123 C 
BRANCH  26  27
HETATM   27  O6  UNL     1      -9.464  13.531  30.017  1.00  0.00    -0.349 OA
ATOM     28  H6  UNL     1      -8.738  13.089  30.443  1.00  0.00     0.219 HD
ENDBRANCH  26  27
BRANCH  26  29
HETATM   29  C22 UNL     1      -8.265  15.475  30.140  1.00  0.00     0.028 C 
HETATM   30  C23 UNL     1      -8.255  15.011  31.580  1.00  0.00     0.018 C 
HETATM   31  C24 UNL     1      -7.256  15.732  32.442  1.00  0.00     0.001 C 
HETATM   32  C25 UNL     1      -7.524  17.207  32.386  1.00  0.00     0.000 C 
HETATM   33  C26 UNL     1      -8.775  17.488  31.598  1.00  0.00     0.006 C 
HETATM   34  C27 UNL     1      -8.807  16.917  30.228  1.00  0.00     0.002 C 
HETATM   35  C28 UNL     1      -7.686  17.417  29.390  1.00  0.00     0.007 C 
HETATM   36  C29 UNL     1      -7.016  16.062  29.597  1.00  0.00     0.018 C 
ENDBRANCH  26  29
ENDBRANCH  13  26
ENDBRANCH  10  13
BRANCH   5  37
HETATM   37  C4  UNL     1      -5.474  16.973  22.798  1.00  0.00     0.250 C 
HETATM   38  O2  UNL     1      -5.927  16.642  21.662  1.00  0.00    -0.271 OA
HETATM   39  N2  UNL     1      -4.117  17.375  22.863  1.00  0.00    -0.344 N 
ATOM     40  H2  UNL     1      -3.742  17.640  23.773  1.00  0.00     0.163 HD
BRANCH  39  41
HETATM   41  C5  UNL     1      -3.241  17.434  21.735  1.00  0.00     0.193 C 
BRANCH  41  42
HETATM   42  C6  UNL     1      -3.129  18.794  21.158  1.00  0.00     0.197 C 
HETATM   43  O3  UNL     1      -2.904  18.849  19.900  1.00  0.00    -0.646 OA
HETATM   44  O4  UNL     1      -3.259  19.923  21.922  1.00  0.00    -0.646 OA
ENDBRANCH  41  42
BRANCH  41  45
HETATM   45  C7  UNL     1      -1.841  17.058  22.240  1.00  0.00    -0.021 C 
HETATM   46  C8  UNL     1      -1.180  16.188  21.177  1.00  0.00     0.017 C 
HETATM   47  C9  UNL     1      -0.990  18.289  22.465  1.00  0.00     0.017 C 
HETATM   48  C10 UNL     1      -1.992  16.336  23.550  1.00  0.00     0.017 C 
ENDBRANCH  41  45
ENDBRANCH  39  41
ENDBRANCH   5  37
TORSDOF 13
ENDMDL
MODEL 5
REMARK VINA RESULT: -8.813744940      1.771      2.177
REMARK  13 active torsions:
REMARK  status: ('A' for Active; 'I' for Inactive)
REMARK    1  A    between atoms: C3_5  and  C4_6 
REMARK       I    between atoms: C4_6  and  N2_8 
REMARK    2  A    between atoms: N2_8  and  C5_10 
REMARK    3  A    between atoms: C5_10  and  C6_11 
REMARK    4  A    between atoms: C5_10  and  C7_14 
REMARK    5  A    between atoms: C13_22  and  N4_23 
REMARK    6  A    between atoms: N4_23  and  C14_24 
REMARK    7  A    between atoms: N4_23  and  C21_36 
REMARK    8  A    between atoms: C14_24  and  C15_25 
REMARK    9  A    between atoms: C15_25  and  C16_26 
REMARK   10  A    between atoms: C16_26  and  N5_27 
REMARK       I    between atoms: N5_27  and  C17_29 
REMARK       I    between atoms: C17_29  and  N6_31 
REMARK   11  A    between atoms: N6_31  and  C18_33 
REMARK   12  A    between atoms: C21_36  and  O6_37 
REMARK   13  A    between atoms: C21_36  and  C22_39 
ROOT
HETATM    1  C1  UNL     1     -11.853  16.113  31.755  1.00  0.00     0.153 C 
HETATM    2  N1  UNL     1     -11.773  15.323  30.546  1.00  0.00    -0.347 N 
HETATM    3  C2  UNL     1     -12.818  14.420  30.246  1.00  0.00     0.251 C 
HETATM    4  O1  UNL     1     -14.022  14.675  30.479  1.00  0.00    -0.270 OA
HETATM    5  C3  UNL     1     -12.454  13.118  29.627  1.00  0.00     0.263 C 
HETATM    6  N3  UNL     1     -11.253  13.113  28.891  1.00  0.00    -0.396 N 
ATOM      7  H3  UNL     1     -10.970  12.257  28.413  1.00  0.00     0.155 HD
HETATM    8  C11 UNL     1     -10.436  14.239  28.793  1.00  0.00     0.102 C 
HETATM    9  C12 UNL     1     -10.599  14.772  27.335  1.00  0.00     0.052 C 
HETATM   10  C13 UNL     1     -10.110  16.196  27.479  1.00  0.00     0.090 C 
HETATM   11  C30 UNL     1     -10.875  16.619  28.692  1.00  0.00     0.052 C 
HETATM   12  C31 UNL     1     -10.672  15.426  29.632  1.00  0.00     0.111 C 
ENDROOT
BRANCH  10  13
HETATM   13  N4  UNL     1     -10.000  17.013  26.370  1.00  0.00    -0.360 N 
BRANCH  13  14
HETATM   14  C14 UNL     1      -9.519  18.424  26.712  1.00  0.00     0.127 C 
BRANCH  14  15
HETATM   15  C15 UNL     1      -8.053  18.531  26.491  1.00  0.00     0.039 C 
BRANCH  15  16
HETATM   16  C16 UNL     1      -7.411  19.234  27.661  1.00  0.00     0.126 C 
BRANCH  16  17
HETATM   17  N5  UNL     1      -7.837  18.650  28.924  1.00  0.00    -0.343 N 
HETATM   18  C17 UNL     1      -7.276  17.434  29.406  1.00  0.00     0.316 C 
HETATM   19  O5  UNL     1      -6.385  16.814  28.759  1.00  0.00    -0.247 OA
HETATM   20  N6  UNL     1      -7.726  16.905  30.637  1.00  0.00    -0.339 N 
ATOM     21  H6  UNL     1      -8.445  17.392  31.171  1.00  0.00     0.164 HD
ATOM     22  H5  UNL     1      -8.553  19.123  29.475  1.00  0.00     0.164 HD
BRANCH  20  23
HETATM   23  C18 UNL     1      -7.164  15.671  31.136  1.00  0.00     0.086 A 
HETATM   24  C19 UNL     1      -6.849  15.570  32.608  1.00  0.00     0.027 A 
HETATM   25  C20 UNL     1      -8.016  14.804  32.039  1.00  0.00     0.027 A 
ENDBRANCH  20  23
ENDBRANCH  16  17
ENDBRANCH  15  16
ENDBRANCH  14  15
ENDBRANCH  13  14
BRANCH  13  26
HETATM   26  C21 UNL     1     -10.211  16.853  25.015  1.00  0.00     0.123 C 
BRANCH  26  27
HETATM   27  O6  UNL     1     -11.400  17.313  24.614  1.00  0.00    -0.349 OA
ATOM     28  H6  UNL     1     -12.001  16.621  24.365  1.00  0.00     0.219 HD
ENDBRANCH  26  27
BRANCH  26  29
HETATM   29  C22 UNL     1      -9.478  16.312  23.879  1.00  0.00     0.028 C 
HETATM   30  C23 UNL     1      -8.511  17.332  23.318  1.00  0.00     0.018 C 
HETATM   31  C24 UNL     1      -7.566  16.772  22.293  1.00  0.00     0.001 C 
HETATM   32  C25 UNL     1      -8.353  16.152  21.177  1.00  0.00     0.000 C 
HETATM   33  C26 UNL     1      -9.825  16.399  21.367  1.00  0.00     0.006 C 
HETATM   34  C27 UNL     1     -10.380  15.968  22.675  1.00  0.00     0.002 C 
HETATM   35  C28 UNL     1     -10.184  14.514  22.911  1.00  0.00     0.007 C 
HETATM   36  C29 UNL     1      -9.059  14.890  23.870  1.00  0.00     0.018 C 
ENDBRANCH  26  29
ENDBRANCH  13  26
ENDBRANCH  10  13
BRANCH   5  37
HETATM   37  C4  UNL     1     -12.530  12.015  30.631  1.00  0.00     0.250 C 
HETATM   38  O2  UNL     1     -11.963  10.904  30.403  1.00  0.00    -0.271 OA
HETATM   39  N2  UNL     1     -13.224  12.148  31.859  1.00  0.00    -0.344 N 
ATOM     40  H2  UNL     1     -13.687  13.037  32.051  1.00  0.00     0.163 HD
BRANCH  39  41
HETATM   41  C5  UNL     1     -13.318  11.119  32.847  1.00  0.00     0.193 C 
BRANCH  41  42
HETATM   42  C6  UNL     1     -13.287  11.641  34.232  1.00  0.00     0.197 C 
HETATM   43  O3  UNL     1     -12.672  10.914  35.088  1.00  0.00    -0.646 OA
HETATM   44  O4  UNL     1     -13.877  12.827  34.578  1.00  0.00    -0.646 OA
ENDBRANCH  41  42
BRANCH  41  45
HETATM   45  C7  UNL     1     -14.687  10.450  32.663  1.00  0.00    -0.021 C 
HETATM   46  C8  UNL     1     -14.451   9.053  32.098  1.00  0.00     0.017 C 
HETATM   47  C9  UNL     1     -15.420  10.328  33.981  1.00  0.00     0.017 C 
HETATM   48  C10 UNL     1     -15.508  11.304  31.738  1.00  0.00     0.017 C 
ENDBRANCH  41  45
ENDBRANCH  39  41
ENDBRANCH   5  37
TORSDOF 13
ENDMDL
