MODEL 1
REMARK VINA RESULT: -9.543244796      0.000      0.000
REMARK  11 active torsions:
REMARK  status: ('A' for Active; 'I' for Inactive)
REMARK    1  A    between atoms: C2_2  and  C3_3 
REMARK    2  A    between atoms: C3_3  and  N1_4 
REMARK    3  A    between atoms: C3_3  and  C6_9 
REMARK       I    between atoms: N1_4  and  C4_6 
REMARK       I    between atoms: C6_9  and  N2_11 
REMARK    4  A    between atoms: N2_11  and  C7_13 
REMARK    5  A    between atoms: C7_13  and  C8_14 
REMARK    6  A    between atoms: C7_13  and  C20_29 
REMARK    7  A    between atoms: C11_17  and  O3_18 
REMARK    8  A    between atoms: C20_29  and  N3_30 
REMARK    9  A    between atoms: C20_29  and  N6_35 
REMARK   10  A    between atoms: N7_38  and  C24_39 
REMARK   11  A    between atoms: C24_39  and  C25_40 
ROOT
HETATM    1  C7  UNL     1      -9.481  16.629  27.875  1.00  0.00     0.061 C 
ENDROOT
BRANCH   1   2
HETATM    2  N2  UNL     1     -10.367  15.736  28.551  1.00  0.00    -0.325 N 
HETATM    3  C6  UNL     1     -11.531  16.220  29.201  1.00  0.00     0.244 C 
HETATM    4  O2  UNL     1     -11.750  17.486  29.136  1.00  0.00    -0.271 OA
ATOM      5  H2  UNL     1     -10.160  14.737  28.567  1.00  0.00     0.169 HD
BRANCH   3   6
HETATM    6  C3  UNL     1     -12.510  15.403  29.938  1.00  0.00     0.176 C 
BRANCH   6   7
HETATM    7  C2  UNL     1     -13.925  15.580  29.431  1.00  0.00     0.030 C 
HETATM    8  C1  UNL     1     -14.190  15.178  28.035  1.00  0.00     0.007 C 
ENDBRANCH   6   7
BRANCH   6   9
HETATM    9  N1  UNL     1     -12.215  13.987  29.639  1.00  0.00    -0.348 N 
HETATM   10  C4  UNL     1     -12.599  12.947  30.522  1.00  0.00     0.214 C 
HETATM   11  C5  UNL     1     -12.317  11.516  30.253  1.00  0.00     0.117 C 
HETATM   12  O1  UNL     1     -13.207  13.234  31.588  1.00  0.00    -0.274 OA
ATOM     13  H1  UNL     1     -11.723  13.751  28.777  1.00  0.00     0.163 HD
ENDBRANCH   6   9
ENDBRANCH   3   6
ENDBRANCH   1   2
BRANCH   1  14
HETATM   14  C8  UNL     1      -9.316  16.379  26.409  1.00  0.00    -0.027 C 
HETATM   15  C9  UNL     1      -8.717  15.324  25.891  1.00  0.00    -0.046 C 
HETATM   16  C10 UNL     1      -8.150  14.287  26.789  1.00  0.00     0.046 C 
HETATM   17  C11 UNL     1      -8.565  15.081  24.423  1.00  0.00     0.163 C 
HETATM   18  C12 UNL     1      -8.620  16.281  23.565  1.00  0.00     0.050 C 
HETATM   19  C13 UNL     1      -7.300  16.451  22.843  1.00  0.00     0.020 C 
HETATM   20  C17 UNL     1      -9.733  16.154  22.582  1.00  0.00     0.138 C 
HETATM   21  C18 UNL     1      -8.847  17.564  24.338  1.00  0.00     0.025 C 
HETATM   22  C14 UNL     1      -7.357  15.652  21.559  1.00  0.00     0.002 C 
HETATM   23  C15 UNL     1      -8.249  16.466  20.612  1.00  0.00     0.007 C 
HETATM   24  C16 UNL     1      -9.635  16.518  21.160  1.00  0.00     0.079 C 
HETATM   25  O4  UNL     1     -10.793  15.720  22.996  1.00  0.00    -0.297 OA
HETATM   26  C19 UNL     1      -9.838  17.410  25.426  1.00  0.00     0.042 C 
BRANCH  17  27
HETATM   27  O3  UNL     1      -7.404  14.335  24.246  1.00  0.00    -0.390 OA
ATOM     28  H3  UNL     1      -6.821  14.544  24.967  1.00  0.00     0.210 HD
ENDBRANCH  17  27
ENDBRANCH   1  14
BRANCH   1  29
HETATM   29  C20 UNL     1      -8.258  17.028  28.609  1.00  0.00     0.241 C 
BRANCH  29  30
HETATM   30  N3  UNL     1      -7.958  18.423  28.425  1.00  0.00    -0.340 N 
HETATM   31  C21 UNL     1      -6.897  18.759  27.782  1.00  0.00     0.198 C 
HETATM   32  N4  UNL     1      -6.545  20.124  27.567  1.00  0.00    -0.067 NA
HETATM   33  N5  UNL     1      -6.056  17.748  27.265  1.00  0.00    -0.067 NA
ATOM     34  H3  UNL     1      -8.581  19.138  28.801  1.00  0.00     0.164 HD
ENDBRANCH  29  30
BRANCH  29  35
HETATM   35  N6  UNL     1      -8.348  16.850  30.067  1.00  0.00    -0.305 N 
HETATM   36  C22 UNL     1      -8.520  17.911  31.059  1.00  0.00     0.150 C 
HETATM   37  C23 UNL     1      -8.215  17.298  32.381  1.00  0.00     0.147 C 
HETATM   38  N7  UNL     1      -8.593  15.927  32.183  1.00  0.00    -0.332 N 
HETATM   39  C31 UNL     1      -8.300  15.633  30.796  1.00  0.00     0.322 C 
HETATM   40  O5  UNL     1      -8.055  14.479  30.378  1.00  0.00    -0.247 OA
BRANCH  38  41
HETATM   41  C24 UNL     1      -9.122  14.964  33.108  1.00  0.00     0.132 C 
BRANCH  41  42
HETATM   42  C25 UNL     1     -10.622  14.929  33.186  1.00  0.00     0.004 C 
HETATM   43  C26 UNL     1     -10.975  13.828  34.172  1.00  0.00     0.006 C 
HETATM   44  C27 UNL     1     -12.065  14.222  35.120  1.00  0.00     0.000 C 
HETATM   45  C28 UNL     1     -11.846  15.524  35.832  1.00  0.00     0.000 C 
HETATM   46  C29 UNL     1     -10.897  16.447  35.100  1.00  0.00     0.000 C 
HETATM   47  C30 UNL     1     -11.158  16.250  33.623  1.00  0.00     0.006 C 
ENDBRANCH  41  42
ENDBRANCH  38  41
ENDBRANCH  29  35
ENDBRANCH   1  29
TORSDOF 11
ENDMDL
MODEL 2
REMARK VINA RESULT: -9.363760717      1.160      1.681
REMARK  11 active torsions:
REMARK  status: ('A' for Active; 'I' for Inactive)
REMARK    1  A    between atoms: C2_2  and  C3_3 
REMARK    2  A    between atoms: C3_3  and  N1_4 
REMARK    3  A    between atoms: C3_3  and  C6_9 
REMARK       I    between atoms: N1_4  and  C4_6 
REMARK       I    between atoms: C6_9  and  N2_11 
REMARK    4  A    between atoms: N2_11  and  C7_13 
REMARK    5  A    between atoms: C7_13  and  C8_14 
REMARK    6  A    between atoms: C7_13  and  C20_29 
REMARK    7  A    between atoms: C11_17  and  O3_18 
REMARK    8  A    between atoms: C20_29  and  N3_30 
REMARK    9  A    between atoms: C20_29  and  N6_35 
REMARK   10  A    between atoms: N7_38  and  C24_39 
REMARK   11  A    between atoms: C24_39  and  C25_40 
ROOT
HETATM    1  C7  UNL     1      -9.400  16.175  27.644  1.00  0.00     0.061 C 
ENDROOT
BRANCH   1   2
HETATM    2  N2  UNL     1     -10.123  15.074  28.195  1.00  0.00    -0.325 N 
HETATM    3  C6  UNL     1     -11.536  15.112  28.302  1.00  0.00     0.244 C 
HETATM    4  O2  UNL     1     -12.124  16.171  27.866  1.00  0.00    -0.271 OA
ATOM      5  H2  UNL     1      -9.616  14.249  28.516  1.00  0.00     0.169 HD
BRANCH   3   6
HETATM    6  C3  UNL     1     -12.388  14.050  28.862  1.00  0.00     0.176 C 
BRANCH   6   7
HETATM    7  C2  UNL     1     -11.743  12.682  28.797  1.00  0.00     0.030 C 
HETATM    8  C1  UNL     1     -12.072  11.736  29.883  1.00  0.00     0.007 C 
ENDBRANCH   6   7
BRANCH   6   9
HETATM    9  N1  UNL     1     -12.510  14.301  30.312  1.00  0.00    -0.348 N 
HETATM   10  C4  UNL     1     -13.754  14.630  30.906  1.00  0.00     0.214 C 
HETATM   11  C5  UNL     1     -13.910  14.891  32.358  1.00  0.00     0.117 C 
HETATM   12  O1  UNL     1     -14.782  14.710  30.183  1.00  0.00    -0.274 OA
ATOM     13  H1  UNL     1     -11.678  14.237  30.900  1.00  0.00     0.163 HD
ENDBRANCH   6   9
ENDBRANCH   3   6
ENDBRANCH   1   2
BRANCH   1  14
HETATM   14  C8  UNL     1      -9.225  16.146  26.157  1.00  0.00    -0.027 C 
HETATM   15  C9  UNL     1      -8.521  15.243  25.502  1.00  0.00    -0.046 C 
HETATM   16  C10 UNL     1      -7.834  14.161  26.253  1.00  0.00     0.046 C 
HETATM   17  C11 UNL     1      -8.359  15.219  24.016  1.00  0.00     0.163 C 
HETATM   18  C12 UNL     1      -8.555  16.511  23.329  1.00  0.00     0.050 C 
HETATM   19  C13 UNL     1      -7.269  16.920  22.642  1.00  0.00     0.020 C 
HETATM   20  C17 UNL     1      -9.658  16.398  22.334  1.00  0.00     0.138 C 
HETATM   21  C18 UNL     1      -8.911  17.645  24.268  1.00  0.00     0.025 C 
HETATM   22  C14 UNL     1      -7.253  16.302  21.261  1.00  0.00     0.002 C 
HETATM   23  C15 UNL     1      -8.239  17.135  20.430  1.00  0.00     0.007 C 
HETATM   24  C16 UNL     1      -9.616  16.960  20.975  1.00  0.00     0.079 C 
HETATM   25  O4  UNL     1     -10.660  15.799  22.681  1.00  0.00    -0.297 OA
HETATM   26  C19 UNL     1      -9.867  17.237  25.322  1.00  0.00     0.042 C 
BRANCH  17  27
HETATM   27  O3  UNL     1      -7.127  14.635  23.743  1.00  0.00    -0.390 OA
ATOM     28  H3  UNL     1      -7.238  13.694  23.815  1.00  0.00     0.210 HD
ENDBRANCH  17  27
ENDBRANCH   1  14
BRANCH   1  29
HETATM   29  C20 UNL     1      -8.241  16.663  28.425  1.00  0.00     0.241 C 
BRANCH  29  30
HETATM   30  N3  UNL     1      -8.199  18.099  28.475  1.00  0.00    -0.340 N 
HETATM   31  C21 UNL     1      -7.266  18.724  27.848  1.00  0.00     0.198 C 
HETATM   32  N4  UNL     1      -7.170  20.147  27.859  1.00  0.00    -0.067 NA
HETATM   33  N5  UNL     1      -6.309  17.981  27.120  1.00  0.00    -0.067 NA
ATOM     34  H3  UNL     1      -8.902  18.618  29.001  1.00  0.00     0.164 HD
ENDBRANCH  29  30
BRANCH  29  35
HETATM   35  N6  UNL     1      -8.245  16.236  29.834  1.00  0.00    -0.305 N 
HETATM   36  C22 UNL     1      -7.246  15.387  30.484  1.00  0.00     0.150 C 
HETATM   37  C23 UNL     1      -7.844  14.961  31.779  1.00  0.00     0.147 C 
HETATM   38  N7  UNL     1      -8.705  16.062  32.102  1.00  0.00    -0.332 N 
HETATM   39  C31 UNL     1      -9.194  16.566  30.836  1.00  0.00     0.322 C 
HETATM   40  O5  UNL     1     -10.278  17.180  30.717  1.00  0.00    -0.247 OA
BRANCH  38  41
HETATM   41  C24 UNL     1      -9.090  16.600  33.377  1.00  0.00     0.132 C 
BRANCH  41  42
HETATM   42  C25 UNL     1     -10.473  16.224  33.825  1.00  0.00     0.004 C 
HETATM   43  C26 UNL     1     -10.608  14.728  33.596  1.00  0.00     0.006 C 
HETATM   44  C27 UNL     1     -11.271  14.021  34.737  1.00  0.00     0.000 C 
HETATM   45  C28 UNL     1     -10.680  14.302  36.086  1.00  0.00     0.000 C 
HETATM   46  C29 UNL     1      -9.924  15.611  36.141  1.00  0.00     0.000 C 
HETATM   47  C30 UNL     1     -10.678  16.581  35.259  1.00  0.00     0.006 C 
ENDBRANCH  41  42
ENDBRANCH  38  41
ENDBRANCH  29  35
ENDBRANCH   1  29
TORSDOF 11
ENDMDL
MODEL 3
REMARK VINA RESULT: -9.310584690      2.419      6.077
REMARK  11 active torsions:
REMARK  status: ('A' for Active; 'I' for Inactive)
REMARK    1  A    between atoms: C2_2  and  C3_3 
REMARK    2  A    between atoms: C3_3  and  N1_4 
REMARK    3  A    between atoms: C3_3  and  C6_9 
REMARK       I    between atoms: N1_4  and  C4_6 
REMARK       I    between atoms: C6_9  and  N2_11 
REMARK    4  A    between atoms: N2_11  and  C7_13 
REMARK    5  A    between atoms: C7_13  and  C8_14 
REMARK    6  A    between atoms: C7_13  and  C20_29 
REMARK    7  A    between atoms: C11_17  and  O3_18 
REMARK    8  A    between atoms: C20_29  and  N3_30 
REMARK    9  A    between atoms: C20_29  and  N6_35 
REMARK   10  A    between atoms: N7_38  and  C24_39 
REMARK   11  A    between atoms: C24_39  and  C25_40 
ROOT
HETATM    1  C7  UNL     1      -9.428  17.027  27.931  1.00  0.00     0.061 C 
ENDROOT
BRANCH   1   2
HETATM    2  N2  UNL     1     -10.269  16.141  28.670  1.00  0.00    -0.325 N 
HETATM    3  C6  UNL     1     -11.347  16.638  29.445  1.00  0.00     0.244 C 
HETATM    4  O2  UNL     1     -11.533  17.912  29.433  1.00  0.00    -0.271 OA
ATOM      5  H2  UNL     1     -10.092  15.137  28.640  1.00  0.00     0.169 HD
BRANCH   3   6
HETATM    6  C3  UNL     1     -12.272  15.829  30.256  1.00  0.00     0.176 C 
BRANCH   6   7
HETATM    7  C2  UNL     1     -12.956  14.740  29.459  1.00  0.00     0.030 C 
HETATM    8  C1  UNL     1     -14.087  15.148  28.601  1.00  0.00     0.007 C 
ENDBRANCH   6   7
BRANCH   6   9
HETATM    9  N1  UNL     1     -11.458  15.077  31.232  1.00  0.00    -0.348 N 
HETATM   10  C4  UNL     1     -11.418  15.441  32.601  1.00  0.00     0.214 C 
HETATM   11  C5  UNL     1     -10.609  14.709  33.607  1.00  0.00     0.117 C 
HETATM   12  O1  UNL     1     -12.091  16.429  32.999  1.00  0.00    -0.274 OA
ATOM     13  H1  UNL     1     -10.912  14.276  30.914  1.00  0.00     0.163 HD
ENDBRANCH   6   9
ENDBRANCH   3   6
ENDBRANCH   1   2
BRANCH   1  14
HETATM   14  C8  UNL     1      -9.276  16.702  26.478  1.00  0.00    -0.027 C 
HETATM   15  C9  UNL     1      -8.844  15.547  26.009  1.00  0.00    -0.046 C 
HETATM   16  C10 UNL     1      -8.470  14.465  26.954  1.00  0.00     0.046 C 
HETATM   17  C11 UNL     1      -8.703  15.231  24.554  1.00  0.00     0.163 C 
HETATM   18  C12 UNL     1      -8.547  16.393  23.657  1.00  0.00     0.050 C 
HETATM   19  C13 UNL     1      -7.203  16.323  22.964  1.00  0.00     0.020 C 
HETATM   20  C17 UNL     1      -9.646  16.412  22.651  1.00  0.00     0.138 C 
HETATM   21  C18 UNL     1      -8.580  17.723  24.383  1.00  0.00     0.025 C 
HETATM   22  C14 UNL     1      -7.362  15.499  21.705  1.00  0.00     0.002 C 
HETATM   23  C15 UNL     1      -8.092  16.412  20.710  1.00  0.00     0.007 C 
HETATM   24  C16 UNL     1      -9.462  16.704  21.220  1.00  0.00     0.079 C 
HETATM   25  O4  UNL     1     -10.770  16.168  23.051  1.00  0.00    -0.297 OA
HETATM   26  C19 UNL     1      -9.605  17.768  25.450  1.00  0.00     0.042 C 
BRANCH  17  27
HETATM   27  O3  UNL     1      -7.674  14.302  24.430  1.00  0.00    -0.390 OA
ATOM     28  H3  UNL     1      -7.482  13.977  25.302  1.00  0.00     0.210 HD
ENDBRANCH  17  27
ENDBRANCH   1  14
BRANCH   1  29
HETATM   29  C20 UNL     1      -8.210  17.511  28.620  1.00  0.00     0.241 C 
BRANCH  29  30
HETATM   30  N3  UNL     1      -7.572  16.465  29.373  1.00  0.00    -0.340 N 
HETATM   31  C21 UNL     1      -7.685  16.451  30.653  1.00  0.00     0.198 C 
HETATM   32  N4  UNL     1      -7.076  15.441  31.455  1.00  0.00    -0.067 NA
HETATM   33  N5  UNL     1      -8.441  17.463  31.289  1.00  0.00    -0.067 NA
ATOM     34  H3  UNL     1      -7.036  15.740  28.895  1.00  0.00     0.164 HD
ENDBRANCH  29  30
BRANCH  29  35
HETATM   35  N6  UNL     1      -7.166  18.014  27.712  1.00  0.00    -0.305 N 
HETATM   36  C22 UNL     1      -7.041  19.383  27.212  1.00  0.00     0.150 C 
HETATM   37  C23 UNL     1      -6.067  19.326  26.087  1.00  0.00     0.147 C 
HETATM   38  N7  UNL     1      -5.223  18.228  26.462  1.00  0.00    -0.332 N 
HETATM   39  C31 UNL     1      -6.079  17.290  27.158  1.00  0.00     0.322 C 
HETATM   40  O5  UNL     1      -5.842  16.063  27.219  1.00  0.00    -0.247 OA
BRANCH  38  41
HETATM   41  C24 UNL     1      -3.827  18.000  26.214  1.00  0.00     0.132 C 
BRANCH  41  42
HETATM   42  C25 UNL     1      -3.369  18.358  24.829  1.00  0.00     0.004 C 
HETATM   43  C26 UNL     1      -1.965  18.921  24.972  1.00  0.00     0.006 C 
HETATM   44  C27 UNL     1      -1.022  18.408  23.927  1.00  0.00     0.000 C 
HETATM   45  C28 UNL     1      -0.985  16.916  23.784  1.00  0.00     0.000 C 
HETATM   46  C29 UNL     1      -2.242  16.241  24.287  1.00  0.00     0.000 C 
HETATM   47  C30 UNL     1      -3.393  17.160  23.941  1.00  0.00     0.006 C 
ENDBRANCH  41  42
ENDBRANCH  38  41
ENDBRANCH  29  35
ENDBRANCH   1  29
TORSDOF 11
ENDMDL
MODEL 4
REMARK VINA RESULT: -9.142387199      2.474      6.178
REMARK  11 active torsions:
REMARK  status: ('A' for Active; 'I' for Inactive)
REMARK    1  A    between atoms: C2_2  and  C3_3 
REMARK    2  A    between atoms: C3_3  and  N1_4 
REMARK    3  A    between atoms: C3_3  and  C6_9 
REMARK       I    between atoms: N1_4  and  C4_6 
REMARK       I    between atoms: C6_9  and  N2_11 
REMARK    4  A    between atoms: N2_11  and  C7_13 
REMARK    5  A    between atoms: C7_13  and  C8_14 
REMARK    6  A    between atoms: C7_13  and  C20_29 
REMARK    7  A    between atoms: C11_17  and  O3_18 
REMARK    8  A    between atoms: C20_29  and  N3_30 
REMARK    9  A    between atoms: C20_29  and  N6_35 
REMARK   10  A    between atoms: N7_38  and  C24_39 
REMARK   11  A    between atoms: C24_39  and  C25_40 
ROOT
HETATM    1  C7  UNL     1      -9.334  16.921  27.962  1.00  0.00     0.061 C 
ENDROOT
BRANCH   1   2
HETATM    2  N2  UNL     1     -10.104  15.977  28.709  1.00  0.00    -0.325 N 
HETATM    3  C6  UNL     1     -11.046  16.410  29.675  1.00  0.00     0.244 C 
HETATM    4  O2  UNL     1     -11.180  17.681  29.830  1.00  0.00    -0.271 OA
ATOM      5  H2  UNL     1      -9.974  14.979  28.544  1.00  0.00     0.169 HD
BRANCH   3   6
HETATM    6  C3  UNL     1     -11.886  15.537  30.513  1.00  0.00     0.176 C 
BRANCH   6   7
HETATM    7  C2  UNL     1     -11.954  15.992  31.955  1.00  0.00     0.030 C 
HETATM    8  C1  UNL     1     -10.784  15.694  32.806  1.00  0.00     0.007 C 
ENDBRANCH   6   7
BRANCH   6   9
HETATM    9  N1  UNL     1     -13.279  15.685  30.043  1.00  0.00    -0.348 N 
HETATM   10  C4  UNL     1     -13.726  15.074  28.845  1.00  0.00     0.214 C 
HETATM   11  C5  UNL     1     -15.116  15.204  28.344  1.00  0.00     0.117 C 
HETATM   12  O1  UNL     1     -12.919  14.388  28.163  1.00  0.00    -0.274 OA
ATOM     13  H1  UNL     1     -13.934  16.240  30.594  1.00  0.00     0.163 HD
ENDBRANCH   6   9
ENDBRANCH   3   6
ENDBRANCH   1   2
BRANCH   1  14
HETATM   14  C8  UNL     1      -9.208  16.629  26.499  1.00  0.00    -0.027 C 
HETATM   15  C9  UNL     1      -8.762  15.493  25.997  1.00  0.00    -0.046 C 
HETATM   16  C10 UNL     1      -8.343  14.401  26.911  1.00  0.00     0.046 C 
HETATM   17  C11 UNL     1      -8.647  15.210  24.533  1.00  0.00     0.163 C 
HETATM   18  C12 UNL     1      -8.537  16.394  23.657  1.00  0.00     0.050 C 
HETATM   19  C13 UNL     1      -7.207  16.368  22.934  1.00  0.00     0.020 C 
HETATM   20  C17 UNL     1      -9.657  16.409  22.676  1.00  0.00     0.138 C 
HETATM   21  C18 UNL     1      -8.582  17.707  24.411  1.00  0.00     0.025 C 
HETATM   22  C14 UNL     1      -7.376  15.566  21.662  1.00  0.00     0.002 C 
HETATM   23  C15 UNL     1      -8.148  16.482  20.702  1.00  0.00     0.007 C 
HETATM   24  C16 UNL     1      -9.512  16.734  21.248  1.00  0.00     0.079 C 
HETATM   25  O4  UNL     1     -10.767  16.132  23.095  1.00  0.00    -0.297 OA
HETATM   26  C19 UNL     1      -9.583  17.708  25.501  1.00  0.00     0.042 C 
BRANCH  17  27
HETATM   27  O3  UNL     1      -7.602  14.307  24.368  1.00  0.00    -0.390 OA
ATOM     28  H3  UNL     1      -6.871  14.787  23.995  1.00  0.00     0.210 HD
ENDBRANCH  17  27
ENDBRANCH   1  14
BRANCH   1  29
HETATM   29  C20 UNL     1      -8.125  17.460  28.625  1.00  0.00     0.241 C 
BRANCH  29  30
HETATM   30  N3  UNL     1      -7.468  16.462  29.425  1.00  0.00    -0.340 N 
HETATM   31  C21 UNL     1      -7.471  16.579  30.706  1.00  0.00     0.198 C 
HETATM   32  N4  UNL     1      -6.837  15.624  31.553  1.00  0.00    -0.067 NA
HETATM   33  N5  UNL     1      -8.130  17.683  31.294  1.00  0.00    -0.067 NA
ATOM     34  H3  UNL     1      -7.003  15.670  28.982  1.00  0.00     0.164 HD
ENDBRANCH  29  30
BRANCH  29  35
HETATM   35  N6  UNL     1      -7.092  17.937  27.692  1.00  0.00    -0.305 N 
HETATM   36  C22 UNL     1      -6.985  19.286  27.136  1.00  0.00     0.150 C 
HETATM   37  C23 UNL     1      -6.016  19.196  26.010  1.00  0.00     0.147 C 
HETATM   38  N7  UNL     1      -5.157  18.122  26.423  1.00  0.00    -0.332 N 
HETATM   39  C31 UNL     1      -5.999  17.204  27.160  1.00  0.00     0.322 C 
HETATM   40  O5  UNL     1      -5.748  15.983  27.269  1.00  0.00    -0.247 OA
BRANCH  38  41
HETATM   41  C24 UNL     1      -3.760  17.900  26.177  1.00  0.00     0.132 C 
BRANCH  41  42
HETATM   42  C25 UNL     1      -3.293  18.300  24.806  1.00  0.00     0.004 C 
HETATM   43  C26 UNL     1      -1.908  18.898  24.981  1.00  0.00     0.006 C 
HETATM   44  C27 UNL     1      -0.937  18.434  23.939  1.00  0.00     0.000 C 
HETATM   45  C28 UNL     1      -0.857  16.947  23.765  1.00  0.00     0.000 C 
HETATM   46  C29 UNL     1      -2.101  16.228  24.236  1.00  0.00     0.000 C 
HETATM   47  C30 UNL     1      -3.272  17.122  23.892  1.00  0.00     0.006 C 
ENDBRANCH  41  42
ENDBRANCH  38  41
ENDBRANCH  29  35
ENDBRANCH   1  29
TORSDOF 11
ENDMDL
MODEL 5
REMARK VINA RESULT: -9.064512499      2.525      6.460
REMARK  11 active torsions:
REMARK  status: ('A' for Active; 'I' for Inactive)
REMARK    1  A    between atoms: C2_2  and  C3_3 
REMARK    2  A    between atoms: C3_3  and  N1_4 
REMARK    3  A    between atoms: C3_3  and  C6_9 
REMARK       I    between atoms: N1_4  and  C4_6 
REMARK       I    between atoms: C6_9  and  N2_11 
REMARK    4  A    between atoms: N2_11  and  C7_13 
REMARK    5  A    between atoms: C7_13  and  C8_14 
REMARK    6  A    between atoms: C7_13  and  C20_29 
REMARK    7  A    between atoms: C11_17  and  O3_18 
REMARK    8  A    between atoms: C20_29  and  N3_30 
REMARK    9  A    between atoms: C20_29  and  N6_35 
REMARK   10  A    between atoms: N7_38  and  C24_39 
REMARK   11  A    between atoms: C24_39  and  C25_40 
ROOT
HETATM    1  C7  UNL     1      -8.822  16.683  29.153  1.00  0.00     0.061 C 
ENDROOT
BRANCH   1   2
HETATM    2  N2  UNL     1      -9.589  15.757  29.924  1.00  0.00    -0.325 N 
HETATM    3  C6  UNL     1     -10.775  16.168  30.584  1.00  0.00     0.244 C 
HETATM    4  O2  UNL     1     -11.125  17.398  30.440  1.00  0.00    -0.271 OA
ATOM      5  H2  UNL     1      -9.281  14.788  30.000  1.00  0.00     0.169 HD
BRANCH   3   6
HETATM    6  C3  UNL     1     -11.640  15.314  31.415  1.00  0.00     0.176 C 
BRANCH   6   7
HETATM    7  C2  UNL     1     -11.632  15.710  32.876  1.00  0.00     0.030 C 
HETATM    8  C1  UNL     1     -10.444  15.326  33.666  1.00  0.00     0.007 C 
ENDBRANCH   6   7
BRANCH   6   9
HETATM    9  N1  UNL     1     -13.035  15.567  31.001  1.00  0.00    -0.348 N 
HETATM   10  C4  UNL     1     -13.658  14.801  29.985  1.00  0.00     0.214 C 
HETATM   11  C5  UNL     1     -15.056  15.031  29.544  1.00  0.00     0.117 C 
HETATM   12  O1  UNL     1     -13.010  13.881  29.419  1.00  0.00    -0.274 OA
ATOM     13  H1  UNL     1     -13.563  16.312  31.457  1.00  0.00     0.163 HD
ENDBRANCH   6   9
ENDBRANCH   3   6
ENDBRANCH   1   2
BRANCH   1  14
HETATM   14  C8  UNL     1      -8.878  16.482  27.670  1.00  0.00    -0.027 C 
HETATM   15  C9  UNL     1      -9.365  17.359  26.813  1.00  0.00    -0.046 C 
HETATM   16  C10 UNL     1      -9.907  18.648  27.310  1.00  0.00     0.046 C 
HETATM   17  C11 UNL     1      -9.408  17.151  25.333  1.00  0.00     0.163 C 
HETATM   18  C12 UNL     1      -9.389  15.745  24.881  1.00  0.00     0.050 C 
HETATM   19  C13 UNL     1     -10.671  15.432  24.140  1.00  0.00     0.020 C 
HETATM   20  C17 UNL     1      -8.212  15.508  23.999  1.00  0.00     0.138 C 
HETATM   21  C18 UNL     1      -9.305  14.748  26.019  1.00  0.00     0.025 C 
HETATM   22  C14 UNL     1     -10.477  15.798  22.684  1.00  0.00     0.002 C 
HETATM   23  C15 UNL     1      -9.591  14.689  22.100  1.00  0.00     0.007 C 
HETATM   24  C16 UNL     1      -8.249  14.735  22.748  1.00  0.00     0.079 C 
HETATM   25  O4  UNL     1      -7.150  15.993  24.348  1.00  0.00    -0.297 OA
HETATM   26  C19 UNL     1      -8.375  15.175  27.088  1.00  0.00     0.042 C 
BRANCH  17  27
HETATM   27  O3  UNL     1     -10.498  17.867  24.847  1.00  0.00    -0.390 OA
ATOM     28  H3  UNL     1     -10.429  18.751  25.187  1.00  0.00     0.210 HD
ENDBRANCH  17  27
ENDBRANCH   1  14
BRANCH   1  29
HETATM   29  C20 UNL     1      -7.506  17.074  29.707  1.00  0.00     0.241 C 
BRANCH  29  30
HETATM   30  N3  UNL     1      -7.022  16.111  30.659  1.00  0.00    -0.340 N 
HETATM   31  C21 UNL     1      -7.218  16.312  31.914  1.00  0.00     0.198 C 
HETATM   32  N4  UNL     1      -6.762  15.395  32.907  1.00  0.00    -0.067 NA
HETATM   33  N5  UNL     1      -7.911  17.474  32.325  1.00  0.00    -0.067 NA
ATOM     34  H3  UNL     1      -6.529  15.276  30.343  1.00  0.00     0.164 HD
ENDBRANCH  29  30
BRANCH  29  35
HETATM   35  N6  UNL     1      -6.438  17.179  28.700  1.00  0.00    -0.305 N 
HETATM   36  C22 UNL     1      -5.502  16.122  28.318  1.00  0.00     0.150 C 
HETATM   37  C23 UNL     1      -4.421  16.786  27.539  1.00  0.00     0.147 C 
HETATM   38  N7  UNL     1      -5.105  17.896  26.941  1.00  0.00    -0.332 N 
HETATM   39  C31 UNL     1      -6.111  18.304  27.898  1.00  0.00     0.322 C 
HETATM   40  O5  UNL     1      -6.571  19.467  27.955  1.00  0.00    -0.247 OA
BRANCH  38  41
HETATM   41  C24 UNL     1      -4.888  18.555  25.683  1.00  0.00     0.132 C 
BRANCH  41  42
HETATM   42  C25 UNL     1      -4.072  17.770  24.696  1.00  0.00     0.004 C 
HETATM   43  C26 UNL     1      -4.495  18.243  23.316  1.00  0.00     0.006 C 
HETATM   44  C27 UNL     1      -3.337  18.450  22.390  1.00  0.00     0.000 C 
HETATM   45  C28 UNL     1      -2.238  19.313  22.935  1.00  0.00     0.000 C 
HETATM   46  C29 UNL     1      -2.217  19.362  24.446  1.00  0.00     0.000 C 
HETATM   47  C30 UNL     1      -2.615  17.985  24.928  1.00  0.00     0.006 C 
ENDBRANCH  41  42
ENDBRANCH  38  41
ENDBRANCH  29  35
ENDBRANCH   1  29
TORSDOF 11
ENDMDL
