MODEL 1
REMARK VINA RESULT: -8.841893514      0.000      0.000
REMARK  11 active torsions:
REMARK  status: ('A' for Active; 'I' for Inactive)
REMARK    1  A    between atoms: C2_2  and  N1_3 
REMARK    2  A    between atoms: C2_2  and  C18_26 
REMARK       I    between atoms: N1_3  and  C3_5 
REMARK       I    between atoms: C3_5  and  N2_7 
REMARK    3  A    between atoms: C9_13  and  C10_14 
REMARK       I    between atoms: C10_14  and  N3_16 
REMARK    4  A    between atoms: N3_16  and  C11_17 
REMARK    5  A    between atoms: C11_17  and  C12_18 
REMARK    6  A    between atoms: C11_17  and  C15_23 
REMARK    7  A    between atoms: C12_18  and  C13_19 
REMARK    8  A    between atoms: C13_19  and  C14_20 
REMARK       I    between atoms: C18_26  and  N5_28 
REMARK    9  A    between atoms: N5_28  and  C19_30 
REMARK       I    between atoms: N6_34  and  C23_35 
REMARK       I    between atoms: C23_35  and  N7_37 
REMARK   10  A    between atoms: N7_37  and  C24_39 
REMARK   11  A    between atoms: C24_39  and  C26_41 
ROOT
HETATM    1  N1  UNL     1      -9.521  16.955  27.205  1.00  0.00    -0.330 N 
ATOM      2  H1  UNL     1      -9.640  15.949  27.325  1.00  0.00     0.165 HD
HETATM    3  C3  UNL     1      -9.150  17.444  25.945  1.00  0.00     0.319 C 
HETATM    4  O1  UNL     1      -9.049  18.722  25.846  1.00  0.00    -0.247 OA
HETATM    5  N2  UNL     1      -8.880  16.600  24.848  1.00  0.00    -0.319 N 
HETATM    6  C4  UNL     1      -9.116  15.199  24.887  1.00  0.00     0.133 C 
HETATM    7  C5  UNL     1      -9.581  14.621  23.572  1.00  0.00     0.008 A 
HETATM    8  C6  UNL     1     -10.198  15.583  22.606  1.00  0.00     0.011 A 
HETATM    9  C7  UNL     1      -8.790  15.145  22.409  1.00  0.00    -0.006 A 
HETATM   10  C8  UNL     1      -7.661  16.012  22.899  1.00  0.00     0.041 C 
HETATM   11  C9  UNL     1      -8.224  17.190  23.650  1.00  0.00     0.196 C 
ENDROOT
BRANCH   1  12
HETATM   12  C2  UNL     1      -9.740  17.821  28.334  1.00  0.00     0.174 C 
HETATM   13  C1  UNL     1      -8.332  18.020  28.965  1.00  0.00     0.042 C 
BRANCH  12  14
HETATM   14  C18 UNL     1     -10.676  17.371  29.364  1.00  0.00     0.240 C 
HETATM   15  O4  UNL     1     -11.565  18.128  29.820  1.00  0.00    -0.271 OA
HETATM   16  N5  UNL     1     -10.587  16.023  29.865  1.00  0.00    -0.353 N 
ATOM     17  H5  UNL     1      -9.855  15.428  29.476  1.00  0.00     0.163 HD
BRANCH  16  18
HETATM   18  C19 UNL     1     -11.429  15.452  30.854  1.00  0.00     0.102 C 
HETATM   19  C20 UNL     1     -10.787  15.576  32.219  1.00  0.00     0.028 C 
HETATM   20  C21 UNL     1     -11.544  14.891  33.295  1.00  0.00     0.022 C 
HETATM   21  C22 UNL     1     -12.722  14.107  32.854  1.00  0.00     0.127 C 
HETATM   22  N6  UNL     1     -12.530  13.456  31.567  1.00  0.00    -0.332 N 
HETATM   23  C23 UNL     1     -13.315  12.313  31.300  1.00  0.00     0.318 C 
HETATM   24  C30 UNL     1     -11.575  13.931  30.605  1.00  0.00     0.152 C 
HETATM   25  O5  UNL     1     -13.167  11.753  30.158  1.00  0.00    -0.247 OA
HETATM   26  N7  UNL     1     -14.251  11.722  32.179  1.00  0.00    -0.338 N 
ATOM     27  H7  UNL     1     -14.411  12.127  33.101  1.00  0.00     0.164 HD
BRANCH  26  28
HETATM   28  C24 UNL     1     -14.979  10.550  31.775  1.00  0.00     0.089 C 
HETATM   29  C25 UNL     1     -16.468  10.792  31.710  1.00  0.00     0.033 C 
BRANCH  28  30
HETATM   30  C26 UNL     1     -14.643   9.423  32.726  1.00  0.00    -0.031 C 
HETATM   31  C27 UNL     1     -13.498   8.627  32.102  1.00  0.00     0.016 C 
HETATM   32  C28 UNL     1     -14.194   9.892  34.073  1.00  0.00     0.016 C 
HETATM   33  C29 UNL     1     -15.838   8.497  32.808  1.00  0.00     0.016 C 
ENDBRANCH  28  30
ENDBRANCH  26  28
ENDBRANCH  16  18
ENDBRANCH  12  14
ENDBRANCH   1  12
BRANCH  11  34
HETATM   34  C10 UNL     1      -7.071  18.000  24.213  1.00  0.00     0.310 C 
HETATM   35  O2  UNL     1      -6.897  19.109  23.582  1.00  0.00    -0.255 OA
HETATM   36  N3  UNL     1      -6.267  17.607  25.286  1.00  0.00    -0.407 NA
BRANCH  36  37
HETATM   37  C11 UNL     1      -5.497  17.237  26.307  1.00  0.00     0.170 C 
BRANCH  37  38
HETATM   38  C12 UNL     1      -5.609  15.686  26.580  1.00  0.00     0.048 C 
BRANCH  38  39
HETATM   39  C13 UNL     1      -6.130  15.507  27.989  1.00  0.00     0.102 C 
BRANCH  39  40
HETATM   40  C14 UNL     1      -7.046  14.353  28.009  1.00  0.00     0.231 C 
HETATM   41  N4  UNL     1      -8.368  14.519  28.503  1.00  0.00    -0.062 NA
HETATM   42  O3  UNL     1      -6.683  13.243  27.603  1.00  0.00    -0.277 OA
ENDBRANCH  39  40
ENDBRANCH  38  39
ENDBRANCH  37  38
BRANCH  37  43
HETATM   43  C15 UNL     1      -3.982  17.398  26.068  1.00  0.00     0.013 C 
HETATM   44  C16 UNL     1      -3.683  18.722  25.399  1.00  0.00     0.012 C 
HETATM   45  C17 UNL     1      -3.545  16.296  25.134  1.00  0.00     0.012 C 
ENDBRANCH  37  43
ENDBRANCH  36  37
ENDBRANCH  11  34
TORSDOF 11
ENDMDL
MODEL 2
REMARK VINA RESULT: -8.502173729      1.573      2.010
REMARK  11 active torsions:
REMARK  status: ('A' for Active; 'I' for Inactive)
REMARK    1  A    between atoms: C2_2  and  N1_3 
REMARK    2  A    between atoms: C2_2  and  C18_26 
REMARK       I    between atoms: N1_3  and  C3_5 
REMARK       I    between atoms: C3_5  and  N2_7 
REMARK    3  A    between atoms: C9_13  and  C10_14 
REMARK       I    between atoms: C10_14  and  N3_16 
REMARK    4  A    between atoms: N3_16  and  C11_17 
REMARK    5  A    between atoms: C11_17  and  C12_18 
REMARK    6  A    between atoms: C11_17  and  C15_23 
REMARK    7  A    between atoms: C12_18  and  C13_19 
REMARK    8  A    between atoms: C13_19  and  C14_20 
REMARK       I    between atoms: C18_26  and  N5_28 
REMARK    9  A    between atoms: N5_28  and  C19_30 
REMARK       I    between atoms: N6_34  and  C23_35 
REMARK       I    between atoms: C23_35  and  N7_37 
REMARK   10  A    between atoms: N7_37  and  C24_39 
REMARK   11  A    between atoms: C24_39  and  C26_41 
ROOT
HETATM    1  N1  UNL     1      -9.370  17.053  27.521  1.00  0.00    -0.330 N 
ATOM      2  H1  UNL     1      -9.506  16.058  27.698  1.00  0.00     0.165 HD
HETATM    3  C3  UNL     1      -9.115  17.476  26.210  1.00  0.00     0.319 C 
HETATM    4  O1  UNL     1      -8.986  18.744  26.044  1.00  0.00    -0.247 OA
HETATM    5  N2  UNL     1      -8.984  16.578  25.130  1.00  0.00    -0.319 N 
HETATM    6  C4  UNL     1      -9.257  15.189  25.256  1.00  0.00     0.133 C 
HETATM    7  C5  UNL     1      -9.871  14.573  24.022  1.00  0.00     0.008 A 
HETATM    8  C6  UNL     1     -10.555  15.515  23.081  1.00  0.00     0.011 A 
HETATM    9  C7  UNL     1      -9.188  15.021  22.763  1.00  0.00    -0.006 A 
HETATM   10  C8  UNL     1      -7.989  15.868  23.096  1.00  0.00     0.041 C 
HETATM   11  C9  UNL     1      -8.436  17.095  23.847  1.00  0.00     0.196 C 
ENDROOT
BRANCH   1  12
HETATM   12  C2  UNL     1      -9.446  17.972  28.627  1.00  0.00     0.174 C 
HETATM   13  C1  UNL     1      -7.967  18.230  29.035  1.00  0.00     0.042 C 
BRANCH  12  14
HETATM   14  C18 UNL     1     -10.211  17.558  29.803  1.00  0.00     0.240 C 
HETATM   15  O4  UNL     1     -11.464  17.572  29.809  1.00  0.00    -0.271 OA
HETATM   16  N5  UNL     1      -9.515  17.115  30.984  1.00  0.00    -0.353 N 
ATOM     17  H5  UNL     1      -8.495  17.112  30.951  1.00  0.00     0.163 HD
BRANCH  16  18
HETATM   18  C19 UNL     1     -10.125  16.680  32.189  1.00  0.00     0.102 C 
HETATM   19  C20 UNL     1      -9.160  16.831  33.345  1.00  0.00     0.028 C 
HETATM   20  C21 UNL     1      -9.673  16.281  34.622  1.00  0.00     0.022 C 
HETATM   21  C22 UNL     1     -10.976  15.578  34.543  1.00  0.00     0.127 C 
HETATM   22  N6  UNL     1     -11.153  14.835  33.304  1.00  0.00    -0.332 N 
HETATM   23  C23 UNL     1     -12.057  13.750  33.326  1.00  0.00     0.318 C 
HETATM   24  C30 UNL     1     -10.433  15.165  32.106  1.00  0.00     0.152 C 
HETATM   25  O5  UNL     1     -12.234  13.111  32.232  1.00  0.00    -0.247 OA
HETATM   26  N7  UNL     1     -12.786  13.298  34.450  1.00  0.00    -0.338 N 
ATOM     27  H7  UNL     1     -12.685  13.771  35.348  1.00  0.00     0.164 HD
BRANCH  26  28
HETATM   28  C24 UNL     1     -13.671  12.172  34.329  1.00  0.00     0.089 C 
HETATM   29  C25 UNL     1     -15.119  12.587  34.225  1.00  0.00     0.033 C 
BRANCH  28  30
HETATM   30  C26 UNL     1     -13.442  11.251  35.507  1.00  0.00    -0.031 C 
HETATM   31  C27 UNL     1     -14.628  11.421  36.455  1.00  0.00     0.016 C 
HETATM   32  C28 UNL     1     -13.361   9.807  35.130  1.00  0.00     0.016 C 
HETATM   33  C29 UNL     1     -12.208  11.724  36.246  1.00  0.00     0.016 C 
ENDBRANCH  28  30
ENDBRANCH  26  28
ENDBRANCH  16  18
ENDBRANCH  12  14
ENDBRANCH   1  12
BRANCH  11  34
HETATM   34  C10 UNL     1      -7.207  17.887  24.254  1.00  0.00     0.310 C 
HETATM   35  O2  UNL     1      -7.022  18.920  23.509  1.00  0.00    -0.255 OA
HETATM   36  N3  UNL     1      -6.352  17.551  25.306  1.00  0.00    -0.407 NA
BRANCH  36  37
HETATM   37  C11 UNL     1      -5.532  17.234  26.307  1.00  0.00     0.170 C 
BRANCH  37  38
HETATM   38  C12 UNL     1      -5.586  15.689  26.627  1.00  0.00     0.048 C 
BRANCH  38  39
HETATM   39  C13 UNL     1      -5.894  15.539  28.101  1.00  0.00     0.102 C 
BRANCH  39  40
HETATM   40  C14 UNL     1      -6.924  14.498  28.262  1.00  0.00     0.231 C 
HETATM   41  N4  UNL     1      -7.994  14.709  29.174  1.00  0.00    -0.062 NA
HETATM   42  O3  UNL     1      -6.873  13.444  27.618  1.00  0.00    -0.277 OA
ENDBRANCH  39  40
ENDBRANCH  38  39
ENDBRANCH  37  38
BRANCH  37  43
HETATM   43  C15 UNL     1      -4.034  17.434  26.004  1.00  0.00     0.013 C 
HETATM   44  C16 UNL     1      -3.802  18.744  25.284  1.00  0.00     0.012 C 
HETATM   45  C17 UNL     1      -3.597  16.316  25.089  1.00  0.00     0.012 C 
ENDBRANCH  37  43
ENDBRANCH  36  37
ENDBRANCH  11  34
TORSDOF 11
ENDMDL
MODEL 3
REMARK VINA RESULT: -8.489563665      1.168      2.599
REMARK  11 active torsions:
REMARK  status: ('A' for Active; 'I' for Inactive)
REMARK    1  A    between atoms: C2_2  and  N1_3 
REMARK    2  A    between atoms: C2_2  and  C18_26 
REMARK       I    between atoms: N1_3  and  C3_5 
REMARK       I    between atoms: C3_5  and  N2_7 
REMARK    3  A    between atoms: C9_13  and  C10_14 
REMARK       I    between atoms: C10_14  and  N3_16 
REMARK    4  A    between atoms: N3_16  and  C11_17 
REMARK    5  A    between atoms: C11_17  and  C12_18 
REMARK    6  A    between atoms: C11_17  and  C15_23 
REMARK    7  A    between atoms: C12_18  and  C13_19 
REMARK    8  A    between atoms: C13_19  and  C14_20 
REMARK       I    between atoms: C18_26  and  N5_28 
REMARK    9  A    between atoms: N5_28  and  C19_30 
REMARK       I    between atoms: N6_34  and  C23_35 
REMARK       I    between atoms: C23_35  and  N7_37 
REMARK   10  A    between atoms: N7_37  and  C24_39 
REMARK   11  A    between atoms: C24_39  and  C26_41 
ROOT
HETATM    1  N1  UNL     1      -9.531  16.850  27.105  1.00  0.00    -0.330 N 
ATOM      2  H1  UNL     1      -9.718  15.850  27.185  1.00  0.00     0.165 HD
HETATM    3  C3  UNL     1      -9.204  17.377  25.848  1.00  0.00     0.319 C 
HETATM    4  O1  UNL     1      -9.013  18.648  25.804  1.00  0.00    -0.247 OA
HETATM    5  N2  UNL     1      -9.066  16.574  24.697  1.00  0.00    -0.319 N 
HETATM    6  C4  UNL     1      -9.403  15.194  24.684  1.00  0.00     0.133 C 
HETATM    7  C5  UNL     1      -9.990  14.720  23.376  1.00  0.00     0.008 A 
HETATM    8  C6  UNL     1     -10.592  15.773  22.500  1.00  0.00     0.011 A 
HETATM    9  C7  UNL     1      -9.236  15.247  22.191  1.00  0.00    -0.006 A 
HETATM   10  C8  UNL     1      -8.017  16.004  22.646  1.00  0.00     0.041 C 
HETATM   11  C9  UNL     1      -8.442  17.178  23.489  1.00  0.00     0.196 C 
ENDROOT
BRANCH   1  12
HETATM   12  C2  UNL     1      -9.615  17.669  28.286  1.00  0.00     0.174 C 
HETATM   13  C1  UNL     1      -8.171  17.688  28.863  1.00  0.00     0.042 C 
BRANCH  12  14
HETATM   14  C18 UNL     1     -10.552  17.259  29.332  1.00  0.00     0.240 C 
HETATM   15  O4  UNL     1     -11.395  18.055  29.807  1.00  0.00    -0.271 OA
HETATM   16  N5  UNL     1     -10.517  15.906  29.828  1.00  0.00    -0.353 N 
ATOM     17  H5  UNL     1      -9.821  15.280  29.423  1.00  0.00     0.163 HD
BRANCH  16  18
HETATM   18  C19 UNL     1     -11.366  15.371  30.830  1.00  0.00     0.102 C 
HETATM   19  C20 UNL     1     -10.708  15.492  32.188  1.00  0.00     0.028 C 
HETATM   20  C21 UNL     1     -11.474  14.841  33.278  1.00  0.00     0.022 C 
HETATM   21  C22 UNL     1     -12.680  14.088  32.857  1.00  0.00     0.127 C 
HETATM   22  N6  UNL     1     -12.519  13.417  31.576  1.00  0.00    -0.332 N 
HETATM   23  C23 UNL     1     -13.340  12.295  31.328  1.00  0.00     0.318 C 
HETATM   24  C30 UNL     1     -11.559  13.853  30.600  1.00  0.00     0.152 C 
HETATM   25  O5  UNL     1     -13.219  11.718  30.192  1.00  0.00    -0.247 OA
HETATM   26  N7  UNL     1     -14.285  11.742  32.223  1.00  0.00    -0.338 N 
ATOM     27  H7  UNL     1     -14.424  12.162  33.142  1.00  0.00     0.164 HD
BRANCH  26  28
HETATM   28  C24 UNL     1     -15.051  10.588  31.838  1.00  0.00     0.089 C 
HETATM   29  C25 UNL     1     -16.535  10.863  31.819  1.00  0.00     0.033 C 
BRANCH  28  30
HETATM   30  C26 UNL     1     -14.712   9.451  32.777  1.00  0.00    -0.031 C 
HETATM   31  C27 UNL     1     -14.231  10.070  34.088  1.00  0.00     0.016 C 
HETATM   32  C28 UNL     1     -15.876   8.565  33.089  1.00  0.00     0.016 C 
HETATM   33  C29 UNL     1     -13.546   8.683  32.191  1.00  0.00     0.016 C 
ENDBRANCH  28  30
ENDBRANCH  26  28
ENDBRANCH  16  18
ENDBRANCH  12  14
ENDBRANCH   1  12
BRANCH  11  34
HETATM   34  C10 UNL     1      -7.199  17.873  24.013  1.00  0.00     0.310 C 
HETATM   35  O2  UNL     1      -7.143  19.109  23.659  1.00  0.00    -0.255 OA
HETATM   36  N3  UNL     1      -6.208  17.262  24.785  1.00  0.00    -0.407 NA
BRANCH  36  37
HETATM   37  C11 UNL     1      -5.260  16.685  25.520  1.00  0.00     0.170 C 
BRANCH  37  38
HETATM   38  C12 UNL     1      -4.080  17.688  25.828  1.00  0.00     0.048 C 
BRANCH  38  39
HETATM   39  C13 UNL     1      -3.104  17.612  24.675  1.00  0.00     0.102 C 
BRANCH  39  40
HETATM   40  C14 UNL     1      -3.115  18.902  23.963  1.00  0.00     0.231 C 
HETATM   41  N4  UNL     1      -2.250  19.944  24.393  1.00  0.00    -0.062 NA
HETATM   42  O3  UNL     1      -3.864  19.091  22.997  1.00  0.00    -0.277 OA
ENDBRANCH  39  40
ENDBRANCH  38  39
ENDBRANCH  37  38
BRANCH  37  43
HETATM   43  C15 UNL     1      -5.699  16.280  26.942  1.00  0.00     0.013 C 
HETATM   44  C16 UNL     1      -4.496  16.057  27.831  1.00  0.00     0.012 C 
HETATM   45  C17 UNL     1      -6.449  14.974  26.837  1.00  0.00     0.012 C 
ENDBRANCH  37  43
ENDBRANCH  36  37
ENDBRANCH  11  34
TORSDOF 11
ENDMDL
MODEL 4
REMARK VINA RESULT: -8.371954068      1.839      4.318
REMARK  11 active torsions:
REMARK  status: ('A' for Active; 'I' for Inactive)
REMARK    1  A    between atoms: C2_2  and  N1_3 
REMARK    2  A    between atoms: C2_2  and  C18_26 
REMARK       I    between atoms: N1_3  and  C3_5 
REMARK       I    between atoms: C3_5  and  N2_7 
REMARK    3  A    between atoms: C9_13  and  C10_14 
REMARK       I    between atoms: C10_14  and  N3_16 
REMARK    4  A    between atoms: N3_16  and  C11_17 
REMARK    5  A    between atoms: C11_17  and  C12_18 
REMARK    6  A    between atoms: C11_17  and  C15_23 
REMARK    7  A    between atoms: C12_18  and  C13_19 
REMARK    8  A    between atoms: C13_19  and  C14_20 
REMARK       I    between atoms: C18_26  and  N5_28 
REMARK    9  A    between atoms: N5_28  and  C19_30 
REMARK       I    between atoms: N6_34  and  C23_35 
REMARK       I    between atoms: C23_35  and  N7_37 
REMARK   10  A    between atoms: N7_37  and  C24_39 
REMARK   11  A    between atoms: C24_39  and  C26_41 
ROOT
HETATM    1  N1  UNL     1      -7.828  17.316  29.779  1.00  0.00    -0.330 N 
ATOM      2  H1  UNL     1      -7.863  18.269  29.419  1.00  0.00     0.165 HD
HETATM    3  C3  UNL     1      -7.118  16.348  29.058  1.00  0.00     0.319 C 
HETATM    4  O1  UNL     1      -7.081  15.173  29.580  1.00  0.00    -0.247 OA
HETATM    5  N2  UNL     1      -6.494  16.622  27.823  1.00  0.00    -0.319 N 
HETATM    6  C4  UNL     1      -6.400  17.936  27.290  1.00  0.00     0.133 C 
HETATM    7  C5  UNL     1      -5.121  18.198  26.533  1.00  0.00     0.008 A 
HETATM    8  C6  UNL     1      -3.966  17.302  26.852  1.00  0.00     0.011 A 
HETATM    9  C7  UNL     1      -4.760  17.066  25.617  1.00  0.00    -0.006 A 
HETATM   10  C8  UNL     1      -5.854  16.031  25.615  1.00  0.00     0.041 C 
HETATM   11  C9  UNL     1      -6.017  15.474  27.005  1.00  0.00     0.196 C 
ENDROOT
BRANCH   1  12
HETATM   12  C2  UNL     1      -8.509  17.014  31.011  1.00  0.00     0.174 C 
HETATM   13  C1  UNL     1      -7.440  17.222  32.121  1.00  0.00     0.042 C 
BRANCH  12  14
HETATM   14  C18 UNL     1      -9.103  15.684  31.151  1.00  0.00     0.240 C 
HETATM   15  O4  UNL     1      -8.706  14.875  32.022  1.00  0.00    -0.271 OA
HETATM   16  N5  UNL     1     -10.178  15.291  30.275  1.00  0.00    -0.353 N 
ATOM     17  H5  UNL     1     -10.482  15.969  29.577  1.00  0.00     0.163 HD
BRANCH  16  18
HETATM   18  C19 UNL     1     -10.850  14.041  30.301  1.00  0.00     0.102 C 
HETATM   19  C20 UNL     1     -11.068  13.538  28.890  1.00  0.00     0.028 C 
HETATM   20  C21 UNL     1     -11.877  12.298  28.822  1.00  0.00     0.022 C 
HETATM   21  C22 UNL     1     -12.434  11.820  30.110  1.00  0.00     0.127 C 
HETATM   22  N6  UNL     1     -12.828  12.900  31.001  1.00  0.00    -0.332 N 
HETATM   23  C23 UNL     1     -13.809  12.608  31.974  1.00  0.00     0.318 C 
HETATM   24  C30 UNL     1     -12.267  14.219  30.899  1.00  0.00     0.152 C 
HETATM   25  O5  UNL     1     -14.139  13.549  32.776  1.00  0.00    -0.247 OA
HETATM   26  N7  UNL     1     -14.468  11.369  32.144  1.00  0.00    -0.338 N 
ATOM     27  H7  UNL     1     -14.243  10.583  31.533  1.00  0.00     0.164 HD
BRANCH  26  28
HETATM   28  C24 UNL     1     -15.455  11.214  33.178  1.00  0.00     0.089 C 
HETATM   29  C25 UNL     1     -14.859  10.717  34.473  1.00  0.00     0.033 C 
BRANCH  28  30
HETATM   30  C26 UNL     1     -16.538  10.285  32.674  1.00  0.00    -0.031 C 
HETATM   31  C27 UNL     1     -15.874   8.950  32.343  1.00  0.00     0.016 C 
HETATM   32  C28 UNL     1     -17.616  10.025  33.677  1.00  0.00     0.016 C 
HETATM   33  C29 UNL     1     -17.081  10.847  31.378  1.00  0.00     0.016 C 
ENDBRANCH  28  30
ENDBRANCH  26  28
ENDBRANCH  16  18
ENDBRANCH  12  14
ENDBRANCH   1  12
BRANCH  11  34
HETATM   34  C10 UNL     1      -7.183  14.502  27.003  1.00  0.00     0.310 C 
HETATM   35  O2  UNL     1      -6.957  13.465  27.731  1.00  0.00    -0.255 OA
HETATM   36  N3  UNL     1      -8.372  14.683  26.293  1.00  0.00    -0.407 NA
BRANCH  36  37
HETATM   37  C11 UNL     1      -9.508  14.850  25.617  1.00  0.00     0.170 C 
BRANCH  37  38
HETATM   38  C12 UNL     1     -10.400  15.981  26.263  1.00  0.00     0.048 C 
BRANCH  38  39
HETATM   39  C13 UNL     1      -9.694  17.301  26.041  1.00  0.00     0.102 C 
BRANCH  39  40
HETATM   40  C14 UNL     1     -10.012  18.199  27.165  1.00  0.00     0.231 C 
HETATM   41  N4  UNL     1     -10.628  17.668  28.330  1.00  0.00    -0.062 NA
HETATM   42  O3  UNL     1      -9.752  19.406  27.110  1.00  0.00    -0.277 OA
ENDBRANCH  39  40
ENDBRANCH  38  39
ENDBRANCH  37  38
BRANCH  37  43
HETATM   43  C15 UNL     1      -9.334  15.378  24.179  1.00  0.00     0.013 C 
HETATM   44  C16 UNL     1     -10.572  15.104  23.354  1.00  0.00     0.012 C 
HETATM   45  C17 UNL     1      -8.181  14.632  23.552  1.00  0.00     0.012 C 
ENDBRANCH  37  43
ENDBRANCH  36  37
ENDBRANCH  11  34
TORSDOF 11
ENDMDL
MODEL 5
REMARK VINA RESULT: -8.205763786      2.934      9.247
REMARK  11 active torsions:
REMARK  status: ('A' for Active; 'I' for Inactive)
REMARK    1  A    between atoms: C2_2  and  N1_3 
REMARK    2  A    between atoms: C2_2  and  C18_26 
REMARK       I    between atoms: N1_3  and  C3_5 
REMARK       I    between atoms: C3_5  and  N2_7 
REMARK    3  A    between atoms: C9_13  and  C10_14 
REMARK       I    between atoms: C10_14  and  N3_16 
REMARK    4  A    between atoms: N3_16  and  C11_17 
REMARK    5  A    between atoms: C11_17  and  C12_18 
REMARK    6  A    between atoms: C11_17  and  C15_23 
REMARK    7  A    between atoms: C12_18  and  C13_19 
REMARK    8  A    between atoms: C13_19  and  C14_20 
REMARK       I    between atoms: C18_26  and  N5_28 
REMARK    9  A    between atoms: N5_28  and  C19_30 
REMARK       I    between atoms: N6_34  and  C23_35 
REMARK       I    between atoms: C23_35  and  N7_37 
REMARK   10  A    between atoms: N7_37  and  C24_39 
REMARK   11  A    between atoms: C24_39  and  C26_41 
ROOT
HETATM    1  N1  UNL     1      -9.267  14.661  31.054  1.00  0.00    -0.330 N 
ATOM      2  H1  UNL     1      -9.358  13.674  30.813  1.00  0.00     0.165 HD
HETATM    3  C3  UNL     1     -10.311  15.535  30.722  1.00  0.00     0.319 C 
HETATM    4  O1  UNL     1     -10.153  16.759  31.082  1.00  0.00    -0.247 OA
HETATM    5  N2  UNL     1     -11.460  15.119  30.018  1.00  0.00    -0.319 N 
HETATM    6  C4  UNL     1     -11.725  13.753  29.730  1.00  0.00     0.133 C 
HETATM    7  C5  UNL     1     -13.191  13.394  29.770  1.00  0.00     0.008 A 
HETATM    8  C6  UNL     1     -14.075  14.306  30.561  1.00  0.00     0.011 A 
HETATM    9  C7  UNL     1     -14.046  14.414  29.078  1.00  0.00    -0.006 A 
HETATM   10  C8  UNL     1     -13.181  15.455  28.419  1.00  0.00     0.041 C 
HETATM   11  C9  UNL     1     -12.365  16.164  29.468  1.00  0.00     0.196 C 
ENDROOT
BRANCH   1  12
HETATM   12  C2  UNL     1      -8.072  15.105  31.723  1.00  0.00     0.174 C 
HETATM   13  C1  UNL     1      -8.541  15.520  33.146  1.00  0.00     0.042 C 
BRANCH  12  14
HETATM   14  C18 UNL     1      -7.323  16.206  31.116  1.00  0.00     0.240 C 
HETATM   15  O4  UNL     1      -6.630  16.988  31.808  1.00  0.00    -0.271 OA
HETATM   16  N5  UNL     1      -7.372  16.397  29.689  1.00  0.00    -0.353 N 
ATOM     17  H5  UNL     1      -7.943  15.745  29.151  1.00  0.00     0.163 HD
BRANCH  16  18
HETATM   18  C19 UNL     1      -6.693  17.413  28.968  1.00  0.00     0.102 C 
HETATM   19  C20 UNL     1      -7.650  18.533  28.622  1.00  0.00     0.028 C 
HETATM   20  C21 UNL     1      -7.053  19.578  27.757  1.00  0.00     0.022 C 
HETATM   21  C22 UNL     1      -5.675  19.308  27.279  1.00  0.00     0.127 C 
HETATM   22  N6  UNL     1      -5.429  17.901  27.001  1.00  0.00    -0.332 N 
HETATM   23  C23 UNL     1      -4.400  17.596  26.084  1.00  0.00     0.318 C 
HETATM   24  C30 UNL     1      -6.204  16.855  27.609  1.00  0.00     0.152 C 
HETATM   25  O5  UNL     1      -4.163  16.359  25.857  1.00  0.00    -0.247 OA
HETATM   26  N7  UNL     1      -3.602  18.532  25.387  1.00  0.00    -0.338 N 
ATOM     27  H7  UNL     1      -3.746  19.532  25.531  1.00  0.00     0.164 HD
BRANCH  26  28
HETATM   28  C24 UNL     1      -2.588  18.077  24.475  1.00  0.00     0.089 C 
HETATM   29  C25 UNL     1      -1.285  18.820  24.647  1.00  0.00     0.033 C 
BRANCH  28  30
HETATM   30  C26 UNL     1      -3.117  18.207  23.064  1.00  0.00    -0.031 C 
HETATM   31  C27 UNL     1      -2.876  16.872  22.362  1.00  0.00     0.016 C 
HETATM   32  C28 UNL     1      -4.582  18.500  23.000  1.00  0.00     0.016 C 
HETATM   33  C29 UNL     1      -2.291  19.248  22.340  1.00  0.00     0.016 C 
ENDBRANCH  28  30
ENDBRANCH  26  28
ENDBRANCH  16  18
ENDBRANCH  12  14
ENDBRANCH   1  12
BRANCH  11  34
HETATM   34  C10 UNL     1     -11.434  17.143  28.777  1.00  0.00     0.310 C 
HETATM   35  O2  UNL     1     -11.550  18.339  29.239  1.00  0.00    -0.255 OA
HETATM   36  N3  UNL     1     -10.550  16.814  27.746  1.00  0.00    -0.407 NA
BRANCH  36  37
HETATM   37  C11 UNL     1      -9.706  16.505  26.763  1.00  0.00     0.170 C 
BRANCH  37  38
HETATM   38  C12 UNL     1      -9.776  14.969  26.406  1.00  0.00     0.048 C 
BRANCH  38  39
HETATM   39  C13 UNL     1      -8.978  14.221  27.452  1.00  0.00     0.102 C 
BRANCH  39  40
HETATM   40  C14 UNL     1      -7.620  13.987  26.929  1.00  0.00     0.231 C 
HETATM   41  N4  UNL     1      -7.309  14.371  25.597  1.00  0.00    -0.062 NA
HETATM   42  O3  UNL     1      -6.748  13.463  27.631  1.00  0.00    -0.277 OA
ENDBRANCH  39  40
ENDBRANCH  38  39
ENDBRANCH  37  38
BRANCH  37  43
HETATM   43  C15 UNL     1     -10.034  17.153  25.402  1.00  0.00     0.013 C 
HETATM   44  C16 UNL     1     -10.338  16.094  24.365  1.00  0.00     0.012 C 
HETATM   45  C17 UNL     1      -8.810  17.912  24.949  1.00  0.00     0.012 C 
ENDBRANCH  37  43
ENDBRANCH  36  37
ENDBRANCH  11  34
TORSDOF 11
ENDMDL
