MODEL 1
REMARK VINA RESULT: -8.763076046      0.000      0.000
REMARK  13 active torsions:
REMARK  status: ('A' for Active; 'I' for Inactive)
REMARK    1  A    between atoms: C3_3  and  C4_4 
REMARK    2  A    between atoms: C5_5  and  C6_6 
REMARK    3  A    between atoms: C6_6  and  C7_7 
REMARK    4  A    between atoms: C8_11  and  C9_12 
REMARK    5  A    between atoms: C9_12  and  C10_13 
REMARK    6  A    between atoms: C10_13  and  C11_14 
REMARK    7  A    between atoms: C10_13  and  N2_16 
REMARK       I    between atoms: N2_16  and  C13_18 
REMARK    8  A    between atoms: C13_18  and  C14_20 
REMARK       I    between atoms: C14_20  and  N3_22 
REMARK    9  A    between atoms: N3_22  and  C15_24 
REMARK   10  A    between atoms: C15_24  and  C16_25 
REMARK       I    between atoms: C16_25  and  N4_27 
REMARK   11  A    between atoms: N4_27  and  C17_29 
REMARK   12  A    between atoms: C27_42  and  C28_43 
REMARK   13  A    between atoms: C28_43  and  C29_44 
ROOT
HETATM    1  C1  UNL     1     -14.263   6.753  33.227  1.00  0.00     0.113 C 
HETATM    2  C2  UNL     1     -13.876   8.037  32.609  1.00  0.00    -0.097 C 
HETATM    3  C3  UNL     1     -13.559   9.076  32.085  1.00  0.00    -0.015 C 
ENDROOT
BRANCH   3   4
HETATM    4  C4  UNL     1     -13.189  10.289  31.438  1.00  0.00    -0.015 C 
HETATM    5  C5  UNL     1     -12.885  11.341  30.901  1.00  0.00    -0.090 C 
BRANCH   5   6
HETATM    6  C6  UNL     1     -12.547  12.619  30.249  1.00  0.00     0.138 C 
BRANCH   6   7
HETATM    7  C7  UNL     1     -12.026  13.526  31.340  1.00  0.00     0.290 C 
HETATM    8  N1  UNL     1     -11.179  14.576  30.803  1.00  0.00    -0.037 N 
HETATM    9  C8  UNL     1     -11.069  15.738  31.665  1.00  0.00     0.313 C 
ATOM     10  H12 UNL     1     -10.255  14.210  30.573  1.00  0.00     0.281 HD
ATOM     11  H11 UNL     1     -11.492  14.849  29.871  1.00  0.00     0.281 HD
HETATM   12  N5  UNL     1     -10.582  15.498  32.974  1.00  0.00    -0.328 N 
HETATM   13  C26 UNL     1     -11.089  15.023  34.213  1.00  0.00     0.242 C 
ATOM     14  H5  UNL     1      -9.591  15.733  33.047  1.00  0.00     0.164 HD
HETATM   15  O4  UNL     1     -10.380  15.370  35.201  1.00  0.00    -0.271 OA
HETATM   16  C27 UNL     1     -12.250  14.212  34.662  1.00  0.00     0.177 C 
HETATM   17  N6  UNL     1     -13.247  14.216  33.616  1.00  0.00    -0.346 N 
HETATM   18  C32 UNL     1     -13.121  14.002  32.189  1.00  0.00     0.250 C 
ATOM     19  H6  UNL     1     -14.198  14.401  33.937  1.00  0.00     0.163 HD
HETATM   20  O5  UNL     1     -14.194  14.300  31.608  1.00  0.00    -0.271 OA
BRANCH   9  21
HETATM   21  C9  UNL     1     -10.499  16.863  30.905  1.00  0.00     0.052 C 
BRANCH  21  22
HETATM   22  C10 UNL     1      -9.080  17.022  30.628  1.00  0.00     0.012 C 
BRANCH  22  23
HETATM   23  C11 UNL     1      -8.124  17.475  31.658  1.00  0.00     0.052 C 
HETATM   24  C12 UNL     1      -7.092  16.455  32.086  1.00  0.00     0.011 C 
ENDBRANCH  22  23
BRANCH  22  25
HETATM   25  N2  UNL     1      -8.764  17.516  29.301  1.00  0.00    -0.323 N 
HETATM   26  C13 UNL     1      -8.724  16.686  28.157  1.00  0.00     0.313 C 
HETATM   27  O1  UNL     1      -8.971  15.458  28.346  1.00  0.00    -0.262 OA
ATOM     28  H2  UNL     1      -8.561  18.509  29.189  1.00  0.00     0.169 HD
BRANCH  26  29
HETATM   29  C14 UNL     1      -8.427  17.114  26.802  1.00  0.00     0.310 C 
HETATM   30  O2  UNL     1      -8.337  18.352  26.546  1.00  0.00    -0.262 OA
HETATM   31  N3  UNL     1      -8.242  16.164  25.797  1.00  0.00    -0.335 N 
ATOM     32  H3  UNL     1      -8.316  15.195  26.105  1.00  0.00     0.164 HD
BRANCH  31  33
HETATM   33  C15 UNL     1      -7.967  16.333  24.408  1.00  0.00     0.114 C 
HETATM   34  C21 UNL     1      -7.762  14.952  23.791  1.00  0.00     0.041 C 
HETATM   35  C22 UNL     1      -8.830  14.619  22.804  1.00  0.00     0.003 C 
HETATM   36  C23 UNL     1     -10.228  14.838  23.266  1.00  0.00     0.000 C 
HETATM   37  C24 UNL     1     -10.413  16.139  23.970  1.00  0.00     0.003 C 
HETATM   38  C25 UNL     1      -9.176  16.995  23.729  1.00  0.00     0.041 C 
BRANCH  33  39
HETATM   39  C16 UNL     1      -6.747  17.106  24.169  1.00  0.00     0.246 C 
HETATM   40  O3  UNL     1      -6.752  18.213  23.636  1.00  0.00    -0.271 OA
HETATM   41  N4  UNL     1      -5.499  16.519  24.587  1.00  0.00    -0.351 N 
ATOM     42  H4  UNL     1      -5.503  15.602  25.034  1.00  0.00     0.163 HD
BRANCH  41  43
HETATM   43  C17 UNL     1      -4.245  17.202  24.386  1.00  0.00     0.022 C 
HETATM   44  C18 UNL     1      -4.178  18.475  25.235  1.00  0.00     0.037 C 
HETATM   45  C19 UNL     1      -3.956  17.509  22.944  1.00  0.00     0.037 C 
HETATM   46  C20 UNL     1      -3.131  16.268  24.872  1.00  0.00     0.037 C 
ENDBRANCH  41  43
ENDBRANCH  33  39
ENDBRANCH  31  33
ENDBRANCH  26  29
ENDBRANCH  22  25
ENDBRANCH  21  22
ENDBRANCH   9  21
BRANCH  16  47
HETATM   47  C28 UNL     1     -11.724  12.856  35.018  1.00  0.00     0.038 C 
BRANCH  47  48
HETATM   48  C29 UNL     1     -12.597  12.029  35.894  1.00  0.00    -0.020 C 
HETATM   49  C30 UNL     1     -13.371  10.960  35.163  1.00  0.00     0.009 C 
HETATM   50  C31 UNL     1     -11.913  11.504  37.135  1.00  0.00     0.009 C 
ENDBRANCH  47  48
ENDBRANCH  16  47
ENDBRANCH   6   7
ENDBRANCH   5   6
ENDBRANCH   3   4
TORSDOF 13
ENDMDL
MODEL 2
REMARK VINA RESULT: -8.720900605      2.882      5.471
REMARK  13 active torsions:
REMARK  status: ('A' for Active; 'I' for Inactive)
REMARK    1  A    between atoms: C3_3  and  C4_4 
REMARK    2  A    between atoms: C5_5  and  C6_6 
REMARK    3  A    between atoms: C6_6  and  C7_7 
REMARK    4  A    between atoms: C8_11  and  C9_12 
REMARK    5  A    between atoms: C9_12  and  C10_13 
REMARK    6  A    between atoms: C10_13  and  C11_14 
REMARK    7  A    between atoms: C10_13  and  N2_16 
REMARK       I    between atoms: N2_16  and  C13_18 
REMARK    8  A    between atoms: C13_18  and  C14_20 
REMARK       I    between atoms: C14_20  and  N3_22 
REMARK    9  A    between atoms: N3_22  and  C15_24 
REMARK   10  A    between atoms: C15_24  and  C16_25 
REMARK       I    between atoms: C16_25  and  N4_27 
REMARK   11  A    between atoms: N4_27  and  C17_29 
REMARK   12  A    between atoms: C27_42  and  C28_43 
REMARK   13  A    between atoms: C28_43  and  C29_44 
ROOT
HETATM    1  C1  UNL     1     -12.860  14.023  36.242  1.00  0.00     0.113 C 
HETATM    2  C2  UNL     1     -11.864  14.682  35.374  1.00  0.00    -0.097 C 
HETATM    3  C3  UNL     1     -11.041  15.229  34.683  1.00  0.00    -0.015 C 
ENDROOT
BRANCH   3   4
HETATM    4  C4  UNL     1     -10.053  15.881  33.892  1.00  0.00    -0.015 C 
HETATM    5  C5  UNL     1      -9.205  16.420  33.201  1.00  0.00    -0.090 C 
BRANCH   5   6
HETATM    6  C6  UNL     1      -8.160  17.049  32.372  1.00  0.00     0.138 C 
BRANCH   6   7
HETATM    7  C7  UNL     1      -8.299  16.452  30.991  1.00  0.00     0.290 C 
HETATM    8  N1  UNL     1      -7.404  17.087  30.041  1.00  0.00    -0.037 N 
HETATM    9  C8  UNL     1      -7.107  16.270  28.879  1.00  0.00     0.313 C 
ATOM     10  H12 UNL     1      -7.769  17.996  29.757  1.00  0.00     0.281 HD
ATOM     11  H11 UNL     1      -6.544  17.384  30.501  1.00  0.00     0.281 HD
HETATM   12  N5  UNL     1      -8.222  15.845  28.115  1.00  0.00    -0.328 N 
HETATM   13  C26 UNL     1      -9.213  14.830  28.179  1.00  0.00     0.242 C 
ATOM     14  H5  UNL     1      -8.347  16.430  27.289  1.00  0.00     0.164 HD
HETATM   15  O4  UNL     1      -9.751  14.595  27.059  1.00  0.00    -0.271 OA
HETATM   16  C27 UNL     1      -9.796  13.958  29.231  1.00  0.00     0.177 C 
HETATM   17  N6  UNL     1      -8.889  13.922  30.354  1.00  0.00    -0.346 N 
HETATM   18  C32 UNL     1      -8.194  14.990  31.043  1.00  0.00     0.250 C 
ATOM     19  H6  UNL     1      -8.708  12.989  30.725  1.00  0.00     0.163 HD
HETATM   20  O5  UNL     1      -7.338  14.516  31.830  1.00  0.00    -0.271 OA
BRANCH   9  21
HETATM   21  C9  UNL     1      -5.947  16.831  28.167  1.00  0.00     0.052 C 
BRANCH  21  22
HETATM   22  C10 UNL     1      -6.000  18.027  27.341  1.00  0.00     0.012 C 
BRANCH  22  23
HETATM   23  C11 UNL     1      -6.652  19.271  27.798  1.00  0.00     0.052 C 
HETATM   24  C12 UNL     1      -8.063  19.491  27.300  1.00  0.00     0.011 C 
ENDBRANCH  22  23
BRANCH  22  25
HETATM   25  N2  UNL     1      -6.167  17.786  25.920  1.00  0.00    -0.323 N 
HETATM   26  C13 UNL     1      -5.336  18.368  24.935  1.00  0.00     0.313 C 
HETATM   27  O1  UNL     1      -4.423  19.138  25.355  1.00  0.00    -0.262 OA
ATOM     28  H2  UNL     1      -6.920  17.168  25.617  1.00  0.00     0.169 HD
BRANCH  26  29
HETATM   29  C14 UNL     1      -5.439  18.163  23.501  1.00  0.00     0.310 C 
HETATM   30  O2  UNL     1      -4.711  18.847  22.721  1.00  0.00    -0.262 OA
HETATM   31  N3  UNL     1      -6.331  17.218  22.995  1.00  0.00    -0.335 N 
ATOM     32  H3  UNL     1      -6.858  16.706  23.702  1.00  0.00     0.164 HD
BRANCH  31  33
HETATM   33  C15 UNL     1      -6.624  16.854  21.648  1.00  0.00     0.114 C 
HETATM   34  C21 UNL     1      -7.158  15.425  21.646  1.00  0.00     0.041 C 
HETATM   35  C22 UNL     1      -8.585  15.363  21.214  1.00  0.00     0.003 C 
HETATM   36  C23 UNL     1      -9.506  16.317  21.892  1.00  0.00     0.000 C 
HETATM   37  C24 UNL     1      -8.945  17.693  21.999  1.00  0.00     0.003 C 
HETATM   38  C25 UNL     1      -7.718  17.783  21.100  1.00  0.00     0.041 C 
BRANCH  33  39
HETATM   39  C16 UNL     1      -5.438  16.882  20.790  1.00  0.00     0.246 C 
HETATM   40  O3  UNL     1      -4.579  16.003  20.811  1.00  0.00    -0.271 OA
HETATM   41  N4  UNL     1      -5.297  18.000  19.891  1.00  0.00    -0.351 N 
ATOM     42  H4  UNL     1      -6.017  18.722  19.875  1.00  0.00     0.163 HD
BRANCH  41  43
HETATM   43  C17 UNL     1      -4.159  18.116  19.015  1.00  0.00     0.022 C 
HETATM   44  C18 UNL     1      -4.148  16.983  17.984  1.00  0.00     0.037 C 
HETATM   45  C19 UNL     1      -2.847  18.183  19.743  1.00  0.00     0.037 C 
HETATM   46  C20 UNL     1      -4.306  19.434  18.245  1.00  0.00     0.037 C 
ENDBRANCH  41  43
ENDBRANCH  33  39
ENDBRANCH  31  33
ENDBRANCH  26  29
ENDBRANCH  22  25
ENDBRANCH  21  22
ENDBRANCH   9  21
BRANCH  16  47
HETATM   47  C28 UNL     1     -11.157  14.501  29.543  1.00  0.00     0.038 C 
BRANCH  47  48
HETATM   48  C29 UNL     1     -12.148  13.515  30.056  1.00  0.00    -0.020 C 
HETATM   49  C30 UNL     1     -11.937  12.109  29.553  1.00  0.00     0.009 C 
HETATM   50  C31 UNL     1     -12.364  13.572  31.550  1.00  0.00     0.009 C 
ENDBRANCH  47  48
ENDBRANCH  16  47
ENDBRANCH   6   7
ENDBRANCH   5   6
ENDBRANCH   3   4
TORSDOF 13
ENDMDL
MODEL 3
REMARK VINA RESULT: -8.646554434      1.964     10.139
REMARK  13 active torsions:
REMARK  status: ('A' for Active; 'I' for Inactive)
REMARK    1  A    between atoms: C3_3  and  C4_4 
REMARK    2  A    between atoms: C5_5  and  C6_6 
REMARK    3  A    between atoms: C6_6  and  C7_7 
REMARK    4  A    between atoms: C8_11  and  C9_12 
REMARK    5  A    between atoms: C9_12  and  C10_13 
REMARK    6  A    between atoms: C10_13  and  C11_14 
REMARK    7  A    between atoms: C10_13  and  N2_16 
REMARK       I    between atoms: N2_16  and  C13_18 
REMARK    8  A    between atoms: C13_18  and  C14_20 
REMARK       I    between atoms: C14_20  and  N3_22 
REMARK    9  A    between atoms: N3_22  and  C15_24 
REMARK   10  A    between atoms: C15_24  and  C16_25 
REMARK       I    between atoms: C16_25  and  N4_27 
REMARK   11  A    between atoms: N4_27  and  C17_29 
REMARK   12  A    between atoms: C27_42  and  C28_43 
REMARK   13  A    between atoms: C28_43  and  C29_44 
ROOT
HETATM    1  C1  UNL     1      -1.047  17.101  23.850  1.00  0.00     0.113 C 
HETATM    2  C2  UNL     1      -2.320  17.552  24.445  1.00  0.00    -0.097 C 
HETATM    3  C3  UNL     1      -3.355  17.943  24.926  1.00  0.00    -0.015 C 
ENDROOT
BRANCH   3   4
HETATM    4  C4  UNL     1      -4.572  18.431  25.482  1.00  0.00    -0.015 C 
HETATM    5  C5  UNL     1      -5.601  18.864  25.972  1.00  0.00    -0.090 C 
BRANCH   5   6
HETATM    6  C6  UNL     1      -6.835  19.380  26.593  1.00  0.00     0.138 C 
BRANCH   6   7
HETATM    7  C7  UNL     1      -7.511  18.194  27.240  1.00  0.00     0.290 C 
HETATM    8  N1  UNL     1      -7.195  18.104  28.654  1.00  0.00    -0.037 N 
HETATM    9  C8  UNL     1      -8.164  17.348  29.425  1.00  0.00     0.313 C 
ATOM     10  H12 UNL     1      -6.256  17.727  28.788  1.00  0.00     0.281 HD
ATOM     11  H11 UNL     1      -7.064  19.033  29.053  1.00  0.00     0.281 HD
HETATM   12  N5  UNL     1      -8.388  16.013  29.006  1.00  0.00    -0.328 N 
HETATM   13  C26 UNL     1      -9.133  15.337  28.003  1.00  0.00     0.242 C 
ATOM     14  H5  UNL     1      -7.871  15.353  29.587  1.00  0.00     0.164 HD
HETATM   15  O4  UNL     1      -9.341  14.121  28.279  1.00  0.00    -0.271 OA
HETATM   16  C27 UNL     1      -9.742  15.687  26.694  1.00  0.00     0.177 C 
HETATM   17  N6  UNL     1      -9.882  17.123  26.620  1.00  0.00    -0.346 N 
HETATM   18  C32 UNL     1      -8.945  18.182  26.936  1.00  0.00     0.250 C 
ATOM     19  H6  UNL     1     -10.792  17.445  26.291  1.00  0.00     0.163 HD
HETATM   20  O5  UNL     1      -9.529  19.294  26.937  1.00  0.00    -0.271 OA
BRANCH   9  21
HETATM   21  C9  UNL     1      -7.959  17.603  30.860  1.00  0.00     0.052 C 
BRANCH  21  22
HETATM   22  C10 UNL     1      -8.287  16.652  31.910  1.00  0.00     0.012 C 
BRANCH  22  23
HETATM   23  C11 UNL     1      -7.249  15.991  32.726  1.00  0.00     0.052 C 
HETATM   24  C12 UNL     1      -6.931  14.562  32.347  1.00  0.00     0.011 C 
ENDBRANCH  22  23
BRANCH  22  25
HETATM   25  N2  UNL     1      -9.423  15.794  31.630  1.00  0.00    -0.323 N 
HETATM   26  C13 UNL     1     -10.549  15.700  32.480  1.00  0.00     0.313 C 
HETATM   27  O1  UNL     1     -10.519  16.406  33.531  1.00  0.00    -0.262 OA
ATOM     28  H2  UNL     1      -9.408  15.232  30.779  1.00  0.00     0.169 HD
BRANCH  26  29
HETATM   29  C14 UNL     1     -11.722  14.873  32.256  1.00  0.00     0.310 C 
HETATM   30  O2  UNL     1     -12.417  14.499  33.248  1.00  0.00    -0.262 OA
HETATM   31  N3  UNL     1     -12.073  14.500  30.959  1.00  0.00    -0.335 N 
ATOM     32  H3  UNL     1     -11.463  14.866  30.228  1.00  0.00     0.164 HD
BRANCH  31  33
HETATM   33  C15 UNL     1     -13.149  13.690  30.492  1.00  0.00     0.114 C 
HETATM   34  C21 UNL     1     -14.451  14.455  30.710  1.00  0.00     0.041 C 
HETATM   35  C22 UNL     1     -15.110  14.812  29.420  1.00  0.00     0.003 C 
HETATM   36  C23 UNL     1     -14.233  15.455  28.403  1.00  0.00     0.000 C 
HETATM   37  C24 UNL     1     -12.911  14.780  28.263  1.00  0.00     0.003 C 
HETATM   38  C25 UNL     1     -12.977  13.440  28.986  1.00  0.00     0.041 C 
BRANCH  33  39
HETATM   39  C16 UNL     1     -13.255  12.425  31.222  1.00  0.00     0.246 C 
HETATM   40  O3  UNL     1     -12.521  11.464  31.001  1.00  0.00    -0.271 OA
HETATM   41  N4  UNL     1     -14.272  12.331  32.238  1.00  0.00    -0.351 N 
ATOM     42  H4  UNL     1     -14.873  13.135  32.420  1.00  0.00     0.163 HD
BRANCH  41  43
HETATM   43  C17 UNL     1     -14.456  11.123  33.003  1.00  0.00     0.022 C 
HETATM   44  C18 UNL     1     -13.338  10.958  34.037  1.00  0.00     0.037 C 
HETATM   45  C19 UNL     1     -14.581   9.890  32.154  1.00  0.00     0.037 C 
HETATM   46  C20 UNL     1     -15.775  11.265  33.774  1.00  0.00     0.037 C 
ENDBRANCH  41  43
ENDBRANCH  33  39
ENDBRANCH  31  33
ENDBRANCH  26  29
ENDBRANCH  22  25
ENDBRANCH  21  22
ENDBRANCH   9  21
BRANCH  16  47
HETATM   47  C28 UNL     1      -8.870  15.089  25.634  1.00  0.00     0.038 C 
BRANCH  47  48
HETATM   48  C29 UNL     1      -9.000  15.682  24.274  1.00  0.00    -0.020 C 
HETATM   49  C30 UNL     1      -7.735  16.321  23.757  1.00  0.00     0.009 C 
HETATM   50  C31 UNL     1      -9.647  14.771  23.258  1.00  0.00     0.009 C 
ENDBRANCH  47  48
ENDBRANCH  16  47
ENDBRANCH   6   7
ENDBRANCH   5   6
ENDBRANCH   3   4
TORSDOF 13
ENDMDL
MODEL 4
REMARK VINA RESULT: -8.599938503      1.827     11.003
REMARK  13 active torsions:
REMARK  status: ('A' for Active; 'I' for Inactive)
REMARK    1  A    between atoms: C3_3  and  C4_4 
REMARK    2  A    between atoms: C5_5  and  C6_6 
REMARK    3  A    between atoms: C6_6  and  C7_7 
REMARK    4  A    between atoms: C8_11  and  C9_12 
REMARK    5  A    between atoms: C9_12  and  C10_13 
REMARK    6  A    between atoms: C10_13  and  C11_14 
REMARK    7  A    between atoms: C10_13  and  N2_16 
REMARK       I    between atoms: N2_16  and  C13_18 
REMARK    8  A    between atoms: C13_18  and  C14_20 
REMARK       I    between atoms: C14_20  and  N3_22 
REMARK    9  A    between atoms: N3_22  and  C15_24 
REMARK   10  A    between atoms: C15_24  and  C16_25 
REMARK       I    between atoms: C16_25  and  N4_27 
REMARK   11  A    between atoms: N4_27  and  C17_29 
REMARK   12  A    between atoms: C27_42  and  C28_43 
REMARK   13  A    between atoms: C28_43  and  C29_44 
ROOT
HETATM    1  C1  UNL     1      -2.130  16.217  24.226  1.00  0.00     0.113 C 
HETATM    2  C2  UNL     1      -3.252  16.842  24.954  1.00  0.00    -0.097 C 
HETATM    3  C3  UNL     1      -4.164  17.373  25.538  1.00  0.00    -0.015 C 
ENDROOT
BRANCH   3   4
HETATM    4  C4  UNL     1      -5.237  18.024  26.210  1.00  0.00    -0.015 C 
HETATM    5  C5  UNL     1      -6.159  18.561  26.800  1.00  0.00    -0.090 C 
BRANCH   5   6
HETATM    6  C6  UNL     1      -7.291  19.188  27.507  1.00  0.00     0.138 C 
BRANCH   6   7
HETATM    7  C7  UNL     1      -8.239  18.066  27.865  1.00  0.00     0.290 C 
HETATM    8  N1  UNL     1      -8.419  17.955  29.301  1.00  0.00    -0.037 N 
HETATM    9  C8  UNL     1      -9.648  17.287  29.688  1.00  0.00     0.313 C 
ATOM     10  H12 UNL     1      -7.612  17.499  29.729  1.00  0.00     0.281 HD
ATOM     11  H11 UNL     1      -8.352  18.871  29.744  1.00  0.00     0.281 HD
HETATM   12  N5  UNL     1      -9.829  15.975  29.186  1.00  0.00    -0.328 N 
HETATM   13  C26 UNL     1     -10.251  15.362  27.977  1.00  0.00     0.242 C 
ATOM     14  H5  UNL     1      -9.589  15.275  29.890  1.00  0.00     0.164 HD
HETATM   15  O4  UNL     1     -10.638  14.168  28.138  1.00  0.00    -0.271 OA
HETATM   16  C27 UNL     1     -10.360  15.757  26.549  1.00  0.00     0.177 C 
HETATM   17  N6  UNL     1     -10.349  17.199  26.468  1.00  0.00    -0.346 N 
HETATM   18  C32 UNL     1      -9.487  18.176  27.102  1.00  0.00     0.250 C 
ATOM     19  H6  UNL     1     -11.069  17.597  25.864  1.00  0.00     0.163 HD
HETATM   20  O5  UNL     1      -9.944  19.333  26.938  1.00  0.00    -0.271 OA
BRANCH   9  21
HETATM   21  C9  UNL     1      -9.910  17.530  31.116  1.00  0.00     0.052 C 
BRANCH  21  22
HETATM   22  C10 UNL     1      -9.446  16.663  32.188  1.00  0.00     0.012 C 
BRANCH  22  23
HETATM   23  C11 UNL     1      -8.013  16.516  32.515  1.00  0.00     0.052 C 
HETATM   24  C12 UNL     1      -7.365  15.231  32.050  1.00  0.00     0.011 C 
ENDBRANCH  22  23
BRANCH  22  25
HETATM   25  N2  UNL     1     -10.197  15.433  32.353  1.00  0.00    -0.323 N 
HETATM   26  C13 UNL     1     -11.248  15.289  33.288  1.00  0.00     0.313 C 
HETATM   27  O1  UNL     1     -11.505  16.301  34.003  1.00  0.00    -0.262 OA
ATOM     28  H2  UNL     1      -9.955  14.634  31.766  1.00  0.00     0.169 HD
BRANCH  26  29
HETATM   29  C14 UNL     1     -12.047  14.094  33.498  1.00  0.00     0.310 C 
HETATM   30  O2  UNL     1     -12.208  13.278  32.541  1.00  0.00    -0.262 OA
HETATM   31  N3  UNL     1     -12.626  13.854  34.743  1.00  0.00    -0.335 N 
ATOM     32  H3  UNL     1     -12.424  14.559  35.453  1.00  0.00     0.164 HD
BRANCH  31  33
HETATM   33  C15 UNL     1     -13.457  12.782  35.183  1.00  0.00     0.114 C 
HETATM   34  C21 UNL     1     -12.564  11.711  35.803  1.00  0.00     0.041 C 
HETATM   35  C22 UNL     1     -12.816  11.553  37.265  1.00  0.00     0.003 C 
HETATM   36  C23 UNL     1     -12.833  12.814  38.057  1.00  0.00     0.000 C 
HETATM   37  C24 UNL     1     -13.612  13.904  37.403  1.00  0.00     0.003 C 
HETATM   38  C25 UNL     1     -14.420  13.298  36.262  1.00  0.00     0.041 C 
BRANCH  33  39
HETATM   39  C16 UNL     1     -14.193  12.156  34.082  1.00  0.00     0.246 C 
HETATM   40  O3  UNL     1     -15.233  12.624  33.624  1.00  0.00    -0.271 OA
HETATM   41  N4  UNL     1     -13.651  10.939  33.532  1.00  0.00    -0.351 N 
ATOM     42  H4  UNL     1     -12.785  10.560  33.913  1.00  0.00     0.163 HD
BRANCH  41  43
HETATM   43  C17 UNL     1     -14.311  10.248  32.452  1.00  0.00     0.022 C 
HETATM   44  C18 UNL     1     -14.275  11.084  31.170  1.00  0.00     0.037 C 
HETATM   45  C19 UNL     1     -15.718   9.834  32.778  1.00  0.00     0.037 C 
HETATM   46  C20 UNL     1     -13.521   8.961  32.182  1.00  0.00     0.037 C 
ENDBRANCH  41  43
ENDBRANCH  33  39
ENDBRANCH  31  33
ENDBRANCH  26  29
ENDBRANCH  22  25
ENDBRANCH  21  22
ENDBRANCH   9  21
BRANCH  16  47
HETATM   47  C28 UNL     1      -9.238  15.083  25.823  1.00  0.00     0.038 C 
BRANCH  47  48
HETATM   48  C29 UNL     1      -8.959  15.582  24.448  1.00  0.00    -0.020 C 
HETATM   49  C30 UNL     1      -7.502  15.866  24.178  1.00  0.00     0.009 C 
HETATM   50  C31 UNL     1      -9.606  14.771  23.350  1.00  0.00     0.009 C 
ENDBRANCH  47  48
ENDBRANCH  16  47
ENDBRANCH   6   7
ENDBRANCH   5   6
ENDBRANCH   3   4
TORSDOF 13
ENDMDL
MODEL 5
REMARK VINA RESULT: -8.594878422      2.677      4.465
REMARK  13 active torsions:
REMARK  status: ('A' for Active; 'I' for Inactive)
REMARK    1  A    between atoms: C3_3  and  C4_4 
REMARK    2  A    between atoms: C5_5  and  C6_6 
REMARK    3  A    between atoms: C6_6  and  C7_7 
REMARK    4  A    between atoms: C8_11  and  C9_12 
REMARK    5  A    between atoms: C9_12  and  C10_13 
REMARK    6  A    between atoms: C10_13  and  C11_14 
REMARK    7  A    between atoms: C10_13  and  N2_16 
REMARK       I    between atoms: N2_16  and  C13_18 
REMARK    8  A    between atoms: C13_18  and  C14_20 
REMARK       I    between atoms: C14_20  and  N3_22 
REMARK    9  A    between atoms: N3_22  and  C15_24 
REMARK   10  A    between atoms: C15_24  and  C16_25 
REMARK       I    between atoms: C16_25  and  N4_27 
REMARK   11  A    between atoms: N4_27  and  C17_29 
REMARK   12  A    between atoms: C27_42  and  C28_43 
REMARK   13  A    between atoms: C28_43  and  C29_44 
ROOT
HETATM    1  C1  UNL     1     -13.978  10.017  32.181  1.00  0.00     0.113 C 
HETATM    2  C2  UNL     1     -13.254  10.970  31.315  1.00  0.00    -0.097 C 
HETATM    3  C3  UNL     1     -12.649  11.731  30.602  1.00  0.00    -0.015 C 
ENDROOT
BRANCH   3   4
HETATM    4  C4  UNL     1     -11.919  12.606  29.748  1.00  0.00    -0.015 C 
HETATM    5  C5  UNL     1     -11.304  13.375  29.030  1.00  0.00    -0.090 C 
BRANCH   5   6
HETATM    6  C6  UNL     1     -10.586  14.318  28.152  1.00  0.00     0.138 C 
BRANCH   6   7
HETATM    7  C7  UNL     1      -9.528  14.973  29.011  1.00  0.00     0.290 C 
HETATM    8  N1  UNL     1      -8.237  14.990  28.349  1.00  0.00    -0.037 N 
HETATM    9  C8  UNL     1      -7.335  16.011  28.849  1.00  0.00     0.313 C 
ATOM     10  H12 UNL     1      -7.798  14.070  28.393  1.00  0.00     0.281 HD
ATOM     11  H11 UNL     1      -8.352  15.076  27.339  1.00  0.00     0.281 HD
HETATM   12  N5  UNL     1      -7.044  15.960  30.235  1.00  0.00    -0.328 N 
HETATM   13  C26 UNL     1      -7.658  16.356  31.453  1.00  0.00     0.242 C 
ATOM     14  H5  UNL     1      -6.141  15.515  30.405  1.00  0.00     0.164 HD
HETATM   15  O4  UNL     1      -6.835  16.468  32.406  1.00  0.00    -0.271 OA
HETATM   16  C27 UNL     1      -9.034  16.678  31.911  1.00  0.00     0.177 C 
HETATM   17  N6  UNL     1      -9.846  16.976  30.754  1.00  0.00    -0.346 N 
HETATM   18  C32 UNL     1      -9.984  16.281  29.490  1.00  0.00     0.250 C 
ATOM     19  H6  UNL     1     -10.419  17.816  30.842  1.00  0.00     0.163 HD
HETATM   20  O5  UNL     1     -10.631  16.984  28.675  1.00  0.00    -0.271 OA
BRANCH   9  21
HETATM   21  C9  UNL     1      -6.217  16.184  27.908  1.00  0.00     0.052 C 
BRANCH  21  22
HETATM   22  C10 UNL     1      -5.873  17.448  27.276  1.00  0.00     0.012 C 
BRANCH  22  23
HETATM   23  C11 UNL     1      -6.047  18.744  27.963  1.00  0.00     0.052 C 
HETATM   24  C12 UNL     1      -7.138  19.635  27.413  1.00  0.00     0.011 C 
ENDBRANCH  22  23
BRANCH  22  25
HETATM   25  N2  UNL     1      -6.145  17.518  25.852  1.00  0.00    -0.323 N 
HETATM   26  C13 UNL     1      -5.128  17.511  24.870  1.00  0.00     0.313 C 
HETATM   27  O1  UNL     1      -3.937  17.452  25.297  1.00  0.00    -0.262 OA
ATOM     28  H2  UNL     1      -7.116  17.574  25.546  1.00  0.00     0.169 HD
BRANCH  26  29
HETATM   29  C14 UNL     1      -5.328  17.567  23.433  1.00  0.00     0.310 C 
HETATM   30  O2  UNL     1      -4.602  18.336  22.733  1.00  0.00    -0.262 OA
HETATM   31  N3  UNL     1      -6.310  16.777  22.836  1.00  0.00    -0.335 N 
ATOM     32  H3  UNL     1      -6.828  16.179  23.479  1.00  0.00     0.164 HD
BRANCH  31  33
HETATM   33  C15 UNL     1      -6.705  16.673  21.470  1.00  0.00     0.114 C 
HETATM   34  C21 UNL     1      -7.393  15.324  21.275  1.00  0.00     0.041 C 
HETATM   35  C22 UNL     1      -8.837  15.480  20.932  1.00  0.00     0.003 C 
HETATM   36  C23 UNL     1      -9.614  16.397  21.812  1.00  0.00     0.000 C 
HETATM   37  C24 UNL     1      -8.899  17.673  22.100  1.00  0.00     0.003 C 
HETATM   38  C25 UNL     1      -7.714  17.785  21.149  1.00  0.00     0.041 C 
BRANCH  33  39
HETATM   39  C16 UNL     1      -5.565  16.721  20.552  1.00  0.00     0.246 C 
HETATM   40  O3  UNL     1      -4.789  15.780  20.402  1.00  0.00    -0.271 OA
HETATM   41  N4  UNL     1      -5.369  17.937  19.804  1.00  0.00    -0.351 N 
ATOM     42  H4  UNL     1      -6.021  18.712  19.929  1.00  0.00     0.163 HD
BRANCH  41  43
HETATM   43  C17 UNL     1      -4.270  18.080  18.883  1.00  0.00     0.022 C 
HETATM   44  C18 UNL     1      -2.930  17.951  19.612  1.00  0.00     0.037 C 
HETATM   45  C19 UNL     1      -4.320  19.351  18.084  1.00  0.00     0.037 C 
HETATM   46  C20 UNL     1      -4.359  16.923  17.880  1.00  0.00     0.037 C 
ENDBRANCH  41  43
ENDBRANCH  33  39
ENDBRANCH  31  33
ENDBRANCH  26  29
ENDBRANCH  22  25
ENDBRANCH  21  22
ENDBRANCH   9  21
BRANCH  16  47
HETATM   47  C28 UNL     1      -9.508  15.512  32.722  1.00  0.00     0.038 C 
BRANCH  47  48
HETATM   48  C29 UNL     1     -10.866  15.643  33.318  1.00  0.00    -0.020 C 
HETATM   49  C30 UNL     1     -11.783  14.481  33.025  1.00  0.00     0.009 C 
HETATM   50  C31 UNL     1     -10.869  16.031  34.778  1.00  0.00     0.009 C 
ENDBRANCH  47  48
ENDBRANCH  16  47
ENDBRANCH   6   7
ENDBRANCH   5   6
ENDBRANCH   3   4
TORSDOF 13
ENDMDL
