MODEL 1
REMARK VINA RESULT: -6.622544524      0.000      0.000
REMARK  8 active torsions:
REMARK  status: ('A' for Active; 'I' for Inactive)
REMARK    1  A    between atoms: C2_2  and  C3_3 
REMARK    2  A    between atoms: C3_3  and  C4_4 
REMARK    3  A    between atoms: C4_4  and  N1_5 
REMARK       I    between atoms: N1_5  and  C5_7 
REMARK       I    between atoms: C5_7  and  N2_9 
REMARK    4  A    between atoms: N2_9  and  C6_11 
REMARK    5  A    between atoms: C6_11  and  C7_12 
REMARK    6  A    between atoms: C22_27  and  C23_28 
REMARK    7  A    between atoms: C23_28  and  N3_30 
REMARK    8  A    between atoms: C29_35  and  C30_36 
REMARK       I    between atoms: C30_36  and  N4_38 
ROOT
HETATM    1  C7  UNL     1      -6.077  18.003  19.223  1.00  0.00     0.005 C 
HETATM    2  C8  UNL     1      -6.058  18.317  17.790  1.00  0.00     0.015 C 
HETATM    3  C9  UNL     1      -4.877  17.738  17.066  1.00  0.00    -0.043 C 
HETATM    4  C10 UNL     1      -4.632  18.782  15.929  1.00  0.00     0.015 C 
HETATM    5  C11 UNL     1      -5.201  16.503  16.300  1.00  0.00     0.015 C 
HETATM    6  C12 UNL     1      -3.661  17.776  17.890  1.00  0.00     0.002 C 
HETATM    7  C13 UNL     1      -2.382  17.652  17.153  1.00  0.00     0.007 C 
HETATM    8  C14 UNL     1      -1.297  16.871  17.871  1.00  0.00     0.011 C 
HETATM    9  C15 UNL     1      -1.177  17.308  19.338  1.00  0.00    -0.032 C 
HETATM   10  C16 UNL     1      -0.705  18.769  19.122  1.00  0.00     0.016 C 
HETATM   11  C17 UNL     1      -2.486  17.347  20.010  1.00  0.00     0.003 C 
HETATM   12  C18 UNL     1      -2.649  16.731  21.328  1.00  0.00     0.006 C 
HETATM   13  C19 UNL     1      -1.332  16.360  22.039  1.00  0.00     0.006 C 
HETATM   14  C20 UNL     1      -0.563  15.590  21.078  1.00  0.00     0.000 C 
HETATM   15  C21 UNL     1       0.567  14.767  21.341  1.00  0.00     0.014 C 
HETATM   16  C22 UNL     1       0.830  13.621  22.110  1.00  0.00     0.024 C 
HETATM   17  C27 UNL     1       1.852  12.840  21.255  1.00  0.00     0.008 C 
HETATM   18  C28 UNL     1       2.347  13.939  20.264  1.00  0.00     0.020 C 
HETATM   19  C29 UNL     1       0.995  14.422  19.891  1.00  0.00     0.046 C 
HETATM   20  C33 UNL     1       0.843  15.737  19.225  1.00  0.00     0.030 C 
HETATM   21  C34 UNL     1      -0.038  16.633  20.056  1.00  0.00    -0.031 C 
HETATM   22  C35 UNL     1       0.906  17.626  20.651  1.00  0.00     0.016 C 
HETATM   23  C36 UNL     1      -3.721  16.965  19.163  1.00  0.00    -0.035 C 
HETATM   24  C37 UNL     1      -3.935  15.520  18.985  1.00  0.00     0.016 C 
HETATM   25  C38 UNL     1      -4.906  17.492  19.934  1.00  0.00     0.016 C 
ENDROOT
BRANCH   1  26
HETATM   26  C6  UNL     1      -7.265  17.040  19.444  1.00  0.00     0.129 C 
BRANCH  26  27
HETATM   27  N2  UNL     1      -6.975  16.163  20.549  1.00  0.00    -0.343 N 
HETATM   28  C5  UNL     1      -7.850  15.698  21.537  1.00  0.00     0.316 C 
HETATM   29  N1  UNL     1      -7.408  14.816  22.552  1.00  0.00    -0.343 N 
HETATM   30  O1  UNL     1      -9.047  16.038  21.565  1.00  0.00    -0.247 OA
ATOM     31  H1  UNL     1      -6.429  14.529  22.548  1.00  0.00     0.164 HD
ATOM     32  H2  UNL     1      -6.011  15.839  20.620  1.00  0.00     0.164 HD
BRANCH  29  33
HETATM   33  C4  UNL     1      -8.263  14.301  23.588  1.00  0.00     0.124 C 
BRANCH  33  34
HETATM   34  C3  UNL     1      -8.153  15.004  24.900  1.00  0.00     0.019 C 
BRANCH  34  35
HETATM   35  C2  UNL     1      -9.541  15.074  25.534  1.00  0.00    -0.003 C 
HETATM   36  C1  UNL     1     -10.398  16.126  24.850  1.00  0.00     0.005 C 
ENDBRANCH  34  35
ENDBRANCH  33  34
ENDBRANCH  29  33
ENDBRANCH  26  27
ENDBRANCH   1  26
BRANCH  19  37
HETATM   37  C30 UNL     1       0.272  13.381  19.208  1.00  0.00     0.228 C 
HETATM   38  O2  UNL     1      -0.873  12.944  19.515  1.00  0.00    -0.273 OA
HETATM   39  N4  UNL     1       0.790  12.729  18.092  1.00  0.00    -0.360 N 
HETATM   40  C31 UNL     1       0.038  11.672  17.404  1.00  0.00     0.152 C 
HETATM   41  C32 UNL     1       2.065  12.999  17.516  1.00  0.00     0.152 C 
ENDBRANCH  19  37
BRANCH  16  42
HETATM   42  C23 UNL     1      -0.095  12.757  22.841  1.00  0.00     0.222 C 
HETATM   43  C24 UNL     1       0.260  11.255  22.618  1.00  0.00     0.043 C 
BRANCH  42  44
HETATM   44  N3  UNL     1       0.092  12.860  24.304  1.00  0.00     0.084 N 
HETATM   45  C25 UNL     1      -0.028  11.628  24.992  1.00  0.00     0.309 C 
HETATM   46  C26 UNL     1      -0.653  13.956  24.846  1.00  0.00     0.309 C 
ENDBRANCH  42  44
ENDBRANCH  16  42
TORSDOF 8
ENDMDL
MODEL 2
REMARK VINA RESULT: -6.347767065     11.333     19.145
REMARK  8 active torsions:
REMARK  status: ('A' for Active; 'I' for Inactive)
REMARK    1  A    between atoms: C2_2  and  C3_3 
REMARK    2  A    between atoms: C3_3  and  C4_4 
REMARK    3  A    between atoms: C4_4  and  N1_5 
REMARK       I    between atoms: N1_5  and  C5_7 
REMARK       I    between atoms: C5_7  and  N2_9 
REMARK    4  A    between atoms: N2_9  and  C6_11 
REMARK    5  A    between atoms: C6_11  and  C7_12 
REMARK    6  A    between atoms: C22_27  and  C23_28 
REMARK    7  A    between atoms: C23_28  and  N3_30 
REMARK    8  A    between atoms: C29_35  and  C30_36 
REMARK       I    between atoms: C30_36  and  N4_38 
ROOT
HETATM    1  C7  UNL     1     -11.604  14.048  31.317  1.00  0.00     0.005 C 
HETATM    2  C8  UNL     1     -12.221  13.684  30.036  1.00  0.00     0.015 C 
HETATM    3  C9  UNL     1     -13.466  12.860  30.185  1.00  0.00    -0.043 C 
HETATM    4  C10 UNL     1     -13.446  11.980  28.893  1.00  0.00     0.015 C 
HETATM    5  C11 UNL     1     -14.719  13.646  30.015  1.00  0.00     0.015 C 
HETATM    6  C12 UNL     1     -13.360  11.908  31.299  1.00  0.00     0.002 C 
HETATM    7  C13 UNL     1     -14.311  10.772  31.267  1.00  0.00     0.007 C 
HETATM    8  C14 UNL     1     -14.826  10.324  32.621  1.00  0.00     0.011 C 
HETATM    9  C15 UNL     1     -13.683  10.201  33.638  1.00  0.00    -0.032 C 
HETATM   10  C16 UNL     1     -12.890   9.043  32.978  1.00  0.00     0.016 C 
HETATM   11  C17 UNL     1     -12.823  11.396  33.646  1.00  0.00     0.003 C 
HETATM   12  C18 UNL     1     -12.448  12.018  34.917  1.00  0.00     0.006 C 
HETATM   13  C19 UNL     1     -12.743  11.167  36.168  1.00  0.00     0.006 C 
HETATM   14  C20 UNL     1     -14.132  10.758  36.055  1.00  0.00     0.000 C 
HETATM   15  C21 UNL     1     -14.961  10.231  37.084  1.00  0.00     0.014 C 
HETATM   16  C22 UNL     1     -15.442  10.676  38.327  1.00  0.00     0.024 C 
HETATM   17  C27 UNL     1     -16.861  10.071  38.401  1.00  0.00     0.008 C 
HETATM   18  C28 UNL     1     -16.799   8.969  37.299  1.00  0.00     0.020 C 
HETATM   19  C29 UNL     1     -16.210   9.841  36.253  1.00  0.00     0.046 C 
HETATM   20  C33 UNL     1     -15.581   9.230  35.057  1.00  0.00     0.030 C 
HETATM   21  C34 UNL     1     -14.139   9.655  34.965  1.00  0.00    -0.031 C 
HETATM   22  C35 UNL     1     -13.372   8.432  35.352  1.00  0.00     0.016 C 
HETATM   23  C36 UNL     1     -13.190  12.532  32.664  1.00  0.00    -0.035 C 
HETATM   24  C37 UNL     1     -14.289  13.407  33.102  1.00  0.00     0.016 C 
HETATM   25  C38 UNL     1     -11.953  13.391  32.575  1.00  0.00     0.016 C 
ENDROOT
BRANCH   1  26
HETATM   26  C6  UNL     1     -11.787  15.574  31.472  1.00  0.00     0.129 C 
BRANCH  26  27
HETATM   27  N2  UNL     1     -11.795  16.193  30.172  1.00  0.00    -0.343 N 
HETATM   28  C5  UNL     1     -10.757  16.886  29.537  1.00  0.00     0.316 C 
HETATM   29  N1  UNL     1     -10.921  17.422  28.237  1.00  0.00    -0.343 N 
HETATM   30  O1  UNL     1      -9.653  17.057  30.085  1.00  0.00    -0.247 OA
ATOM     31  H1  UNL     1     -11.820  17.295  27.774  1.00  0.00     0.164 HD
ATOM     32  H2  UNL     1     -12.666  16.118  29.647  1.00  0.00     0.164 HD
BRANCH  29  33
HETATM   33  C4  UNL     1      -9.889  18.136  27.534  1.00  0.00     0.124 C 
BRANCH  33  34
HETATM   34  C3  UNL     1      -9.698  17.726  26.113  1.00  0.00     0.019 C 
BRANCH  34  35
HETATM   35  C2  UNL     1     -10.364  16.368  25.903  1.00  0.00    -0.003 C 
HETATM   36  C1  UNL     1     -10.005  15.791  24.543  1.00  0.00     0.005 C 
ENDBRANCH  34  35
ENDBRANCH  33  34
ENDBRANCH  29  33
ENDBRANCH  26  27
ENDBRANCH   1  26
BRANCH  19  37
HETATM   37  C30 UNL     1     -17.138  10.885  35.904  1.00  0.00     0.228 C 
HETATM   38  O2  UNL     1     -16.915  12.128  35.955  1.00  0.00    -0.273 OA
HETATM   39  N4  UNL     1     -18.428  10.611  35.455  1.00  0.00    -0.360 N 
HETATM   40  C31 UNL     1     -19.360  11.688  35.099  1.00  0.00     0.152 C 
HETATM   41  C32 UNL     1     -18.970   9.303  35.301  1.00  0.00     0.152 C 
ENDBRANCH  19  37
BRANCH  16  42
HETATM   42  C23 UNL     1     -15.341  11.996  38.947  1.00  0.00     0.222 C 
HETATM   43  C24 UNL     1     -16.463  12.193  40.012  1.00  0.00     0.043 C 
BRANCH  42  44
HETATM   44  N3  UNL     1     -14.140  12.115  39.800  1.00  0.00     0.084 N 
HETATM   45  C25 UNL     1     -14.413  12.110  41.190  1.00  0.00     0.309 C 
HETATM   46  C26 UNL     1     -13.274  13.156  39.335  1.00  0.00     0.309 C 
ENDBRANCH  42  44
ENDBRANCH  16  42
TORSDOF 8
ENDMDL
MODEL 3
REMARK VINA RESULT: -6.343418968      0.876      1.033
REMARK  8 active torsions:
REMARK  status: ('A' for Active; 'I' for Inactive)
REMARK    1  A    between atoms: C2_2  and  C3_3 
REMARK    2  A    between atoms: C3_3  and  C4_4 
REMARK    3  A    between atoms: C4_4  and  N1_5 
REMARK       I    between atoms: N1_5  and  C5_7 
REMARK       I    between atoms: C5_7  and  N2_9 
REMARK    4  A    between atoms: N2_9  and  C6_11 
REMARK    5  A    between atoms: C6_11  and  C7_12 
REMARK    6  A    between atoms: C22_27  and  C23_28 
REMARK    7  A    between atoms: C23_28  and  N3_30 
REMARK    8  A    between atoms: C29_35  and  C30_36 
REMARK       I    between atoms: C30_36  and  N4_38 
ROOT
HETATM    1  C7  UNL     1      -6.427  17.888  19.874  1.00  0.00     0.005 C 
HETATM    2  C8  UNL     1      -6.453  18.236  18.449  1.00  0.00     0.015 C 
HETATM    3  C9  UNL     1      -5.236  17.780  17.699  1.00  0.00    -0.043 C 
HETATM    4  C10 UNL     1      -5.097  18.869  16.585  1.00  0.00     0.015 C 
HETATM    5  C11 UNL     1      -5.460  16.540  16.906  1.00  0.00     0.015 C 
HETATM    6  C12 UNL     1      -4.017  17.905  18.510  1.00  0.00     0.002 C 
HETATM    7  C13 UNL     1      -2.741  17.911  17.757  1.00  0.00     0.007 C 
HETATM    8  C14 UNL     1      -1.583  17.212  18.444  1.00  0.00     0.011 C 
HETATM    9  C15 UNL     1      -1.483  17.622  19.920  1.00  0.00    -0.032 C 
HETATM   10  C16 UNL     1      -1.143  19.124  19.735  1.00  0.00     0.016 C 
HETATM   11  C17 UNL     1      -2.783  17.530  20.607  1.00  0.00     0.003 C 
HETATM   12  C18 UNL     1      -2.875  16.871  21.911  1.00  0.00     0.006 C 
HETATM   13  C19 UNL     1      -1.521  16.601  22.598  1.00  0.00     0.006 C 
HETATM   14  C20 UNL     1      -0.700  15.924  21.611  1.00  0.00     0.000 C 
HETATM   15  C21 UNL     1       0.501  15.198  21.841  1.00  0.00     0.014 C 
HETATM   16  C22 UNL     1       0.873  14.061  22.579  1.00  0.00     0.024 C 
HETATM   17  C27 UNL     1       1.948  13.393  21.694  1.00  0.00     0.008 C 
HETATM   18  C28 UNL     1       2.333  14.554  20.725  1.00  0.00     0.020 C 
HETATM   19  C29 UNL     1       0.939  14.925  20.379  1.00  0.00     0.046 C 
HETATM   20  C33 UNL     1       0.664  16.238  19.747  1.00  0.00     0.030 C 
HETATM   21  C34 UNL     1      -0.281  17.033  20.609  1.00  0.00    -0.031 C 
HETATM   22  C35 UNL     1       0.580  18.090  21.219  1.00  0.00     0.016 C 
HETATM   23  C36 UNL     1      -3.990  17.062  19.763  1.00  0.00    -0.035 C 
HETATM   24  C37 UNL     1      -4.079  15.609  19.552  1.00  0.00     0.016 C 
HETATM   25  C38 UNL     1      -5.207  17.465  20.560  1.00  0.00     0.016 C 
ENDROOT
BRANCH   1  26
HETATM   26  C6  UNL     1      -7.523  16.820  20.083  1.00  0.00     0.129 C 
BRANCH  26  27
HETATM   27  N2  UNL     1      -7.203  16.020  21.238  1.00  0.00    -0.343 N 
HETATM   28  C5  UNL     1      -8.012  15.733  22.343  1.00  0.00     0.316 C 
HETATM   29  N1  UNL     1      -7.550  14.906  23.395  1.00  0.00    -0.343 N 
HETATM   30  O1  UNL     1      -9.165  16.189  22.446  1.00  0.00    -0.247 OA
ATOM     31  H1  UNL     1      -6.606  14.526  23.330  1.00  0.00     0.164 HD
ATOM     32  H2  UNL     1      -6.269  15.612  21.252  1.00  0.00     0.164 HD
BRANCH  29  33
HETATM   33  C4  UNL     1      -8.339  14.572  24.551  1.00  0.00     0.124 C 
BRANCH  33  34
HETATM   34  C3  UNL     1      -8.061  15.397  25.761  1.00  0.00     0.019 C 
BRANCH  34  35
HETATM   35  C2  UNL     1      -8.295  14.539  27.002  1.00  0.00    -0.003 C 
HETATM   36  C1  UNL     1      -9.777  14.441  27.324  1.00  0.00     0.005 C 
ENDBRANCH  34  35
ENDBRANCH  33  34
ENDBRANCH  29  33
ENDBRANCH  26  27
ENDBRANCH   1  26
BRANCH  19  37
HETATM   37  C30 UNL     1       0.301  13.842  19.678  1.00  0.00     0.228 C 
HETATM   38  O2  UNL     1      -0.780  13.276  20.006  1.00  0.00    -0.273 OA
HETATM   39  N4  UNL     1       0.840  13.291  18.518  1.00  0.00    -0.360 N 
HETATM   40  C31 UNL     1       0.174  12.188  17.812  1.00  0.00     0.152 C 
HETATM   41  C32 UNL     1       2.056  13.715  17.909  1.00  0.00     0.152 C 
ENDBRANCH  19  37
BRANCH  16  42
HETATM   42  C23 UNL     1       0.036  13.102  23.298  1.00  0.00     0.222 C 
HETATM   43  C24 UNL     1       0.507  11.642  23.021  1.00  0.00     0.043 C 
BRANCH  42  44
HETATM   44  N3  UNL     1       0.243  13.176  24.760  1.00  0.00     0.084 N 
HETATM   45  C25 UNL     1       1.410  13.879  25.146  1.00  0.00     0.309 C 
HETATM   46  C26 UNL     1       0.047  11.900  25.377  1.00  0.00     0.309 C 
ENDBRANCH  42  44
ENDBRANCH  16  42
TORSDOF 8
ENDMDL
MODEL 4
REMARK VINA RESULT: -6.285346816     14.342     19.228
REMARK  8 active torsions:
REMARK  status: ('A' for Active; 'I' for Inactive)
REMARK    1  A    between atoms: C2_2  and  C3_3 
REMARK    2  A    between atoms: C3_3  and  C4_4 
REMARK    3  A    between atoms: C4_4  and  N1_5 
REMARK       I    between atoms: N1_5  and  C5_7 
REMARK       I    between atoms: C5_7  and  N2_9 
REMARK    4  A    between atoms: N2_9  and  C6_11 
REMARK    5  A    between atoms: C6_11  and  C7_12 
REMARK    6  A    between atoms: C22_27  and  C23_28 
REMARK    7  A    between atoms: C23_28  and  N3_30 
REMARK    8  A    between atoms: C29_35  and  C30_36 
REMARK       I    between atoms: C30_36  and  N4_38 
ROOT
HETATM    1  C7  UNL     1     -11.689  13.785  30.787  1.00  0.00     0.005 C 
HETATM    2  C8  UNL     1     -12.304  13.675  29.460  1.00  0.00     0.015 C 
HETATM    3  C9  UNL     1     -13.590  12.900  29.459  1.00  0.00    -0.043 C 
HETATM    4  C10 UNL     1     -13.594  12.252  28.036  1.00  0.00     0.015 C 
HETATM    5  C11 UNL     1     -14.801  13.765  29.418  1.00  0.00     0.015 C 
HETATM    6  C12 UNL     1     -13.545  11.769  30.395  1.00  0.00     0.002 C 
HETATM    7  C13 UNL     1     -14.549  10.704  30.165  1.00  0.00     0.007 C 
HETATM    8  C14 UNL     1     -15.104  10.058  31.421  1.00  0.00     0.011 C 
HETATM    9  C15 UNL     1     -13.982   9.708  32.408  1.00  0.00    -0.032 C 
HETATM   10  C16 UNL     1     -13.237   8.641  31.565  1.00  0.00     0.016 C 
HETATM   11  C17 UNL     1     -13.066  10.840  32.624  1.00  0.00     0.003 C 
HETATM   12  C18 UNL     1     -12.680  11.218  33.985  1.00  0.00     0.006 C 
HETATM   13  C19 UNL     1     -13.033  10.182  35.071  1.00  0.00     0.006 C 
HETATM   14  C20 UNL     1     -14.438   9.869  34.882  1.00  0.00     0.000 C 
HETATM   15  C21 UNL     1     -15.306   9.216  35.801  1.00  0.00     0.014 C 
HETATM   16  C22 UNL     1     -15.782   9.467  37.100  1.00  0.00     0.024 C 
HETATM   17  C27 UNL     1     -17.229   8.929  37.061  1.00  0.00     0.008 C 
HETATM   18  C28 UNL     1     -17.205   8.029  35.788  1.00  0.00     0.020 C 
HETATM   19  C29 UNL     1     -16.560   9.035  34.909  1.00  0.00     0.046 C 
HETATM   20  C33 UNL     1     -15.945   8.606  33.630  1.00  0.00     0.030 C 
HETATM   21  C34 UNL     1     -14.482   8.968  33.620  1.00  0.00    -0.031 C 
HETATM   22  C35 UNL     1     -13.780   7.661  33.798  1.00  0.00     0.016 C 
HETATM   23  C36 UNL     1     -13.365  12.143  31.848  1.00  0.00    -0.035 C 
HETATM   24  C37 UNL     1     -14.426  12.984  32.422  1.00  0.00     0.016 C 
HETATM   25  C38 UNL     1     -12.086  12.942  31.914  1.00  0.00     0.016 C 
ENDROOT
BRANCH   1  26
HETATM   26  C6  UNL     1     -11.801  15.270  31.199  1.00  0.00     0.129 C 
BRANCH  26  27
HETATM   27  N2  UNL     1     -10.818  15.566  32.209  1.00  0.00    -0.343 N 
HETATM   28  C5  UNL     1     -11.020  15.782  33.577  1.00  0.00     0.316 C 
HETATM   29  N1  UNL     1      -9.934  16.044  34.446  1.00  0.00    -0.343 N 
HETATM   30  O1  UNL     1     -12.156  15.751  34.084  1.00  0.00    -0.247 OA
ATOM     31  H1  UNL     1      -8.996  16.077  34.048  1.00  0.00     0.164 HD
ATOM     32  H2  UNL     1      -9.852  15.625  31.887  1.00  0.00     0.164 HD
BRANCH  29  33
HETATM   33  C4  UNL     1     -10.081  16.267  35.860  1.00  0.00     0.124 C 
BRANCH  33  34
HETATM   34  C3  UNL     1      -9.913  15.051  36.708  1.00  0.00     0.019 C 
BRANCH  34  35
HETATM   35  C2  UNL     1     -11.276  14.660  37.275  1.00  0.00    -0.003 C 
HETATM   36  C1  UNL     1     -11.747  13.336  36.696  1.00  0.00     0.005 C 
ENDBRANCH  34  35
ENDBRANCH  33  34
ENDBRANCH  29  33
ENDBRANCH  26  27
ENDBRANCH   1  26
BRANCH  19  37
HETATM   37  C30 UNL     1     -17.432  10.167  34.737  1.00  0.00     0.228 C 
HETATM   38  O2  UNL     1     -17.183  11.358  35.080  1.00  0.00    -0.273 OA
HETATM   39  N4  UNL     1     -18.689  10.054  34.149  1.00  0.00    -0.360 N 
HETATM   40  C31 UNL     1     -19.564  11.220  33.977  1.00  0.00     0.152 C 
HETATM   41  C32 UNL     1     -19.250   8.835  33.669  1.00  0.00     0.152 C 
ENDBRANCH  19  37
BRANCH  16  42
HETATM   42  C23 UNL     1     -15.627  10.656  37.935  1.00  0.00     0.222 C 
HETATM   43  C24 UNL     1     -16.471  10.527  39.240  1.00  0.00     0.043 C 
BRANCH  42  44
HETATM   44  N3  UNL     1     -14.267  10.756  38.506  1.00  0.00     0.084 N 
HETATM   45  C25 UNL     1     -13.788   9.551  39.077  1.00  0.00     0.309 C 
HETATM   46  C26 UNL     1     -14.127  11.930  39.312  1.00  0.00     0.309 C 
ENDBRANCH  42  44
ENDBRANCH  16  42
TORSDOF 8
ENDMDL
MODEL 5
REMARK VINA RESULT: -6.278330037     10.831     18.654
REMARK  8 active torsions:
REMARK  status: ('A' for Active; 'I' for Inactive)
REMARK    1  A    between atoms: C2_2  and  C3_3 
REMARK    2  A    between atoms: C3_3  and  C4_4 
REMARK    3  A    between atoms: C4_4  and  N1_5 
REMARK       I    between atoms: N1_5  and  C5_7 
REMARK       I    between atoms: C5_7  and  N2_9 
REMARK    4  A    between atoms: N2_9  and  C6_11 
REMARK    5  A    between atoms: C6_11  and  C7_12 
REMARK    6  A    between atoms: C22_27  and  C23_28 
REMARK    7  A    between atoms: C23_28  and  N3_30 
REMARK    8  A    between atoms: C29_35  and  C30_36 
REMARK       I    between atoms: C30_36  and  N4_38 
ROOT
HETATM    1  C7  UNL     1     -11.730  14.045  30.831  1.00  0.00     0.005 C 
HETATM    2  C8  UNL     1     -12.272  13.839  29.483  1.00  0.00     0.015 C 
HETATM    3  C9  UNL     1     -13.500  12.977  29.457  1.00  0.00    -0.043 C 
HETATM    4  C10 UNL     1     -13.392  12.276  28.064  1.00  0.00     0.015 C 
HETATM    5  C11 UNL     1     -14.764  13.753  29.324  1.00  0.00     0.015 C 
HETATM    6  C12 UNL     1     -13.423  11.889  30.441  1.00  0.00     0.002 C 
HETATM    7  C13 UNL     1     -14.340  10.748  30.211  1.00  0.00     0.007 C 
HETATM    8  C14 UNL     1     -14.910  10.115  31.466  1.00  0.00     0.011 C 
HETATM    9  C15 UNL     1     -13.816   9.883  32.517  1.00  0.00    -0.032 C 
HETATM   10  C16 UNL     1     -12.959   8.839  31.755  1.00  0.00     0.016 C 
HETATM   11  C17 UNL     1     -12.990  11.084  32.727  1.00  0.00     0.003 C 
HETATM   12  C18 UNL     1     -12.697  11.541  34.086  1.00  0.00     0.006 C 
HETATM   13  C19 UNL     1     -13.031  10.526  35.198  1.00  0.00     0.006 C 
HETATM   14  C20 UNL     1     -14.400  10.108  34.959  1.00  0.00     0.000 C 
HETATM   15  C21 UNL     1     -15.265   9.433  35.864  1.00  0.00     0.014 C 
HETATM   16  C22 UNL     1     -15.820   9.700  37.128  1.00  0.00     0.024 C 
HETATM   17  C27 UNL     1     -17.223   9.061  37.047  1.00  0.00     0.008 C 
HETATM   18  C28 UNL     1     -17.076   8.115  35.815  1.00  0.00     0.020 C 
HETATM   19  C29 UNL     1     -16.460   9.129  34.924  1.00  0.00     0.046 C 
HETATM   20  C33 UNL     1     -15.755   8.695  33.695  1.00  0.00     0.030 C 
HETATM   21  C34 UNL     1     -14.322   9.157  33.735  1.00  0.00    -0.031 C 
HETATM   22  C35 UNL     1     -13.542   7.911  34.000  1.00  0.00     0.016 C 
HETATM   23  C36 UNL     1     -13.339  12.331  31.883  1.00  0.00    -0.035 C 
HETATM   24  C37 UNL     1     -14.482  13.118  32.373  1.00  0.00     0.016 C 
HETATM   25  C38 UNL     1     -12.123  13.221  31.973  1.00  0.00     0.016 C 
ENDROOT
BRANCH   1  26
HETATM   26  C6  UNL     1     -11.963  15.532  31.174  1.00  0.00     0.129 C 
BRANCH  26  27
HETATM   27  N2  UNL     1     -11.920  16.318  29.968  1.00  0.00    -0.343 N 
HETATM   28  C5  UNL     1     -10.823  16.978  29.403  1.00  0.00     0.316 C 
HETATM   29  N1  UNL     1     -10.945  17.697  28.190  1.00  0.00    -0.343 N 
HETATM   30  O1  UNL     1      -9.701  16.959  29.939  1.00  0.00    -0.247 OA
ATOM     31  H1  UNL     1     -11.858  17.727  27.737  1.00  0.00     0.164 HD
ATOM     32  H2  UNL     1     -12.801  16.404  29.461  1.00  0.00     0.164 HD
BRANCH  29  33
HETATM   33  C4  UNL     1      -9.851  18.388  27.560  1.00  0.00     0.124 C 
BRANCH  33  34
HETATM   34  C3  UNL     1      -9.629  18.038  26.127  1.00  0.00     0.019 C 
BRANCH  34  35
HETATM   35  C2  UNL     1      -9.548  16.518  26.003  1.00  0.00    -0.003 C 
HETATM   36  C1  UNL     1     -10.329  16.029  24.794  1.00  0.00     0.005 C 
ENDBRANCH  34  35
ENDBRANCH  33  34
ENDBRANCH  29  33
ENDBRANCH  26  27
ENDBRANCH   1  26
BRANCH  19  37
HETATM   37  C30 UNL     1     -17.397  10.190  34.666  1.00  0.00     0.228 C 
HETATM   38  O2  UNL     1     -17.295  11.388  35.058  1.00  0.00    -0.273 OA
HETATM   39  N4  UNL     1     -18.558   9.990  33.923  1.00  0.00    -0.360 N 
HETATM   40  C31 UNL     1     -19.502  11.084  33.665  1.00  0.00     0.152 C 
HETATM   41  C32 UNL     1     -18.950   8.743  33.356  1.00  0.00     0.152 C 
ENDBRANCH  19  37
BRANCH  16  42
HETATM   42  C23 UNL     1     -15.786  10.928  37.919  1.00  0.00     0.222 C 
HETATM   43  C24 UNL     1     -16.658  10.782  39.203  1.00  0.00     0.043 C 
BRANCH  42  44
HETATM   44  N3  UNL     1     -14.457  11.159  38.524  1.00  0.00     0.084 N 
HETATM   45  C25 UNL     1     -14.341  10.702  39.859  1.00  0.00     0.309 C 
HETATM   46  C26 UNL     1     -13.999  12.492  38.276  1.00  0.00     0.309 C 
ENDBRANCH  42  44
ENDBRANCH  16  42
TORSDOF 8
ENDMDL
