MODEL 1
REMARK VINA RESULT: -8.310801133      0.000      0.000
REMARK  9 active torsions:
REMARK  status: ('A' for Active; 'I' for Inactive)
REMARK    1  A    between atoms: C1_2  and  C2_3 
REMARK       I    between atoms: C1_2  and  N1_10 
REMARK    2  A    between atoms: C2_3  and  C3_4 
REMARK    3  A    between atoms: N1_10  and  C9_12 
REMARK    4  A    between atoms: C9_12  and  C10_13 
REMARK    5  A    between atoms: C10_13  and  C11_14 
REMARK    6  A    between atoms: C11_14  and  N2_15 
REMARK    7  A    between atoms: N2_15  and  C12_17 
REMARK    8  A    between atoms: C12_17  and  C13_19 
REMARK       I    between atoms: N3_22  and  C16_23 
REMARK    9  A    between atoms: C16_23  and  C17_25 
ROOT
HETATM    1  N2  UNL     1     -11.705  15.917  27.559  1.00  0.00    -0.383 N 
ATOM      2  H2  UNL     1     -11.592  15.599  26.596  1.00  0.00     0.160 HD
ENDROOT
BRANCH   1   3
HETATM    3  C11 UNL     1     -12.917  15.625  28.250  1.00  0.00     0.122 C 
BRANCH   3   4
HETATM    4  C10 UNL     1     -12.832  14.324  29.038  1.00  0.00     0.039 C 
BRANCH   4   5
HETATM    5  C9  UNL     1     -13.813  14.279  30.157  1.00  0.00     0.124 C 
BRANCH   5   6
HETATM    6  N1  UNL     1     -13.297  14.964  31.306  1.00  0.00    -0.361 N 
HETATM    7  C1  UNL     1     -12.661  14.348  32.404  1.00  0.00     0.217 C 
HETATM    8  O1  UNL     1     -12.511  13.093  32.437  1.00  0.00    -0.274 OA
ATOM      9  H1  UNL     1     -13.398  15.978  31.331  1.00  0.00     0.162 HD
BRANCH   7  10
HETATM   10  C2  UNL     1     -12.165  15.179  33.535  1.00  0.00     0.107 C 
BRANCH  10  11
HETATM   11  C3  UNL     1     -10.695  15.391  33.390  1.00  0.00    -0.006 C 
HETATM   12  C4  UNL     1     -10.264  16.575  34.277  1.00  0.00     0.005 C 
HETATM   13  C5  UNL     1      -8.771  16.808  34.125  1.00  0.00     0.000 C 
HETATM   14  C6  UNL     1      -8.121  15.742  33.268  1.00  0.00     0.000 C 
HETATM   15  C7  UNL     1      -8.767  15.558  31.934  1.00  0.00     0.000 C 
HETATM   16  C8  UNL     1     -10.274  15.818  31.986  1.00  0.00     0.005 C 
ENDBRANCH  10  11
ENDBRANCH   7  10
ENDBRANCH   5   6
ENDBRANCH   4   5
ENDBRANCH   3   4
ENDBRANCH   1   3
BRANCH   1  17
HETATM   17  C12 UNL     1     -10.658  16.636  28.173  1.00  0.00     0.096 C 
HETATM   18  S1  UNL     1     -11.014  17.910  29.133  1.00  0.00    -0.063 SA
BRANCH  17  19
HETATM   19  C13 UNL     1      -9.252  16.223  27.930  1.00  0.00     0.150 A 
HETATM   20  C14 UNL     1      -8.911  14.848  28.353  1.00  0.00     0.052 A 
HETATM   21  C15 UNL     1      -8.585  14.585  26.933  1.00  0.00     0.129 A 
HETATM   22  N3  UNL     1      -8.882  15.939  26.571  1.00  0.00    -0.341 N 
HETATM   23  C16 UNL     1      -8.841  16.741  25.378  1.00  0.00     0.224 C 
HETATM   24  O2  UNL     1      -9.181  17.942  25.454  1.00  0.00    -0.273 OA
BRANCH  23  25
HETATM   25  C17 UNL     1      -8.411  16.190  24.073  1.00  0.00     0.078 C 
HETATM   26  C18 UNL     1      -7.593  17.196  23.369  1.00  0.00     0.014 C 
HETATM   27  C19 UNL     1      -7.977  17.456  21.941  1.00  0.00     0.001 C 
HETATM   28  C20 UNL     1      -8.284  16.093  21.308  1.00  0.00     0.000 C 
HETATM   29  C21 UNL     1      -9.618  15.687  21.897  1.00  0.00     0.001 C 
HETATM   30  C22 UNL     1      -9.627  15.684  23.375  1.00  0.00     0.014 C 
ENDBRANCH  23  25
ENDBRANCH  17  19
ENDBRANCH   1  17
TORSDOF 9
ENDMDL
MODEL 2
REMARK VINA RESULT: -8.205297035      1.599      2.084
REMARK  9 active torsions:
REMARK  status: ('A' for Active; 'I' for Inactive)
REMARK    1  A    between atoms: C1_2  and  C2_3 
REMARK       I    between atoms: C1_2  and  N1_10 
REMARK    2  A    between atoms: C2_3  and  C3_4 
REMARK    3  A    between atoms: N1_10  and  C9_12 
REMARK    4  A    between atoms: C9_12  and  C10_13 
REMARK    5  A    between atoms: C10_13  and  C11_14 
REMARK    6  A    between atoms: C11_14  and  N2_15 
REMARK    7  A    between atoms: N2_15  and  C12_17 
REMARK    8  A    between atoms: C12_17  and  C13_19 
REMARK       I    between atoms: N3_22  and  C16_23 
REMARK    9  A    between atoms: C16_23  and  C17_25 
ROOT
HETATM    1  N2  UNL     1      -9.745  18.225  28.761  1.00  0.00    -0.383 N 
ATOM      2  H2  UNL     1      -9.783  19.216  28.522  1.00  0.00     0.160 HD
ENDROOT
BRANCH   1   3
HETATM    3  C11 UNL     1     -10.928  17.577  29.223  1.00  0.00     0.122 C 
BRANCH   3   4
HETATM    4  C10 UNL     1     -11.469  16.576  28.209  1.00  0.00     0.039 C 
BRANCH   4   5
HETATM    5  C9  UNL     1     -12.344  15.551  28.842  1.00  0.00     0.124 C 
BRANCH   5   6
HETATM    6  N1  UNL     1     -12.263  15.634  30.271  1.00  0.00    -0.361 N 
HETATM    7  C1  UNL     1     -11.882  14.580  31.128  1.00  0.00     0.217 C 
HETATM    8  O1  UNL     1     -11.582  13.446  30.656  1.00  0.00    -0.274 OA
ATOM      9  H1  UNL     1     -12.499  16.527  30.703  1.00  0.00     0.162 HD
BRANCH   7  10
HETATM   10  C2  UNL     1     -11.833  14.801  32.599  1.00  0.00     0.107 C 
BRANCH  10  11
HETATM   11  C3  UNL     1     -10.619  15.596  32.943  1.00  0.00    -0.006 C 
HETATM   12  C4  UNL     1      -9.378  14.683  32.871  1.00  0.00     0.005 C 
HETATM   13  C5  UNL     1      -8.138  15.480  33.234  1.00  0.00     0.000 C 
HETATM   14  C6  UNL     1      -8.450  16.950  33.425  1.00  0.00     0.000 C 
HETATM   15  C7  UNL     1      -9.554  17.215  34.396  1.00  0.00     0.000 C 
HETATM   16  C8  UNL     1     -10.609  16.107  34.382  1.00  0.00     0.005 C 
ENDBRANCH  10  11
ENDBRANCH   7  10
ENDBRANCH   5   6
ENDBRANCH   4   5
ENDBRANCH   3   4
ENDBRANCH   1   3
BRANCH   1  17
HETATM   17  C12 UNL     1      -8.524  17.532  28.629  1.00  0.00     0.096 C 
HETATM   18  S1  UNL     1      -8.195  16.287  29.635  1.00  0.00    -0.063 SA
BRANCH  17  19
HETATM   19  C13 UNL     1      -7.560  17.951  27.580  1.00  0.00     0.150 A 
HETATM   20  C14 UNL     1      -6.164  17.512  27.789  1.00  0.00     0.052 A 
HETATM   21  C15 UNL     1      -6.293  16.779  26.509  1.00  0.00     0.129 A 
HETATM   22  N3  UNL     1      -7.628  17.263  26.320  1.00  0.00    -0.341 N 
HETATM   23  C16 UNL     1      -8.653  17.153  25.318  1.00  0.00     0.224 C 
HETATM   24  O2  UNL     1      -9.737  17.748  25.504  1.00  0.00    -0.273 OA
BRANCH  23  25
HETATM   25  C17 UNL     1      -8.464  16.362  24.080  1.00  0.00     0.078 C 
HETATM   26  C18 UNL     1      -7.678  17.153  23.115  1.00  0.00     0.014 C 
HETATM   27  C19 UNL     1      -8.244  17.225  21.726  1.00  0.00     0.001 C 
HETATM   28  C20 UNL     1      -8.750  15.819  21.380  1.00  0.00     0.000 C 
HETATM   29  C21 UNL     1     -10.012  15.652  22.198  1.00  0.00     0.001 C 
HETATM   30  C22 UNL     1      -9.806  15.882  23.643  1.00  0.00     0.014 C 
ENDBRANCH  23  25
ENDBRANCH  17  19
ENDBRANCH   1  17
TORSDOF 9
ENDMDL
MODEL 3
REMARK VINA RESULT: -8.148166889      1.714      3.631
REMARK  9 active torsions:
REMARK  status: ('A' for Active; 'I' for Inactive)
REMARK    1  A    between atoms: C1_2  and  C2_3 
REMARK       I    between atoms: C1_2  and  N1_10 
REMARK    2  A    between atoms: C2_3  and  C3_4 
REMARK    3  A    between atoms: N1_10  and  C9_12 
REMARK    4  A    between atoms: C9_12  and  C10_13 
REMARK    5  A    between atoms: C10_13  and  C11_14 
REMARK    6  A    between atoms: C11_14  and  N2_15 
REMARK    7  A    between atoms: N2_15  and  C12_17 
REMARK    8  A    between atoms: C12_17  and  C13_19 
REMARK       I    between atoms: N3_22  and  C16_23 
REMARK    9  A    between atoms: C16_23  and  C17_25 
ROOT
HETATM    1  N2  UNL     1      -7.927  16.152  29.429  1.00  0.00    -0.383 N 
ATOM      2  H2  UNL     1      -6.956  15.859  29.312  1.00  0.00     0.160 HD
ENDROOT
BRANCH   1   3
HETATM    3  C11 UNL     1      -8.719  15.540  30.445  1.00  0.00     0.122 C 
BRANCH   3   4
HETATM    4  C10 UNL     1      -8.350  16.033  31.838  1.00  0.00     0.039 C 
BRANCH   4   5
HETATM    5  C9  UNL     1      -9.112  15.327  32.905  1.00  0.00     0.124 C 
BRANCH   5   6
HETATM    6  N1  UNL     1     -10.139  14.508  32.331  1.00  0.00    -0.361 N 
HETATM    7  C1  UNL     1     -11.523  14.656  32.561  1.00  0.00     0.217 C 
HETATM    8  O1  UNL     1     -11.951  15.563  33.331  1.00  0.00    -0.274 OA
ATOM      9  H1  UNL     1      -9.845  13.758  31.705  1.00  0.00     0.162 HD
BRANCH   7  10
HETATM   10  C2  UNL     1     -12.488  13.739  31.896  1.00  0.00     0.107 C 
BRANCH  10  11
HETATM   11  C3  UNL     1     -12.226  13.721  30.428  1.00  0.00    -0.006 C 
HETATM   12  C4  UNL     1     -12.966  14.900  29.766  1.00  0.00     0.005 C 
HETATM   13  C5  UNL     1     -12.717  14.882  28.268  1.00  0.00     0.000 C 
HETATM   14  C6  UNL     1     -11.720  13.811  27.877  1.00  0.00     0.000 C 
HETATM   15  C7  UNL     1     -12.068  12.446  28.374  1.00  0.00     0.000 C 
HETATM   16  C8  UNL     1     -12.796  12.494  29.719  1.00  0.00     0.005 C 
ENDBRANCH  10  11
ENDBRANCH   7  10
ENDBRANCH   5   6
ENDBRANCH   4   5
ENDBRANCH   3   4
ENDBRANCH   1   3
BRANCH   1  17
HETATM   17  C12 UNL     1      -8.451  17.151  28.583  1.00  0.00     0.096 C 
HETATM   18  S1  UNL     1     -10.015  17.596  28.740  1.00  0.00    -0.063 SA
BRANCH  17  19
HETATM   19  C13 UNL     1      -7.571  17.773  27.561  1.00  0.00     0.150 A 
HETATM   20  C14 UNL     1      -6.123  17.529  27.735  1.00  0.00     0.052 A 
HETATM   21  C15 UNL     1      -6.163  16.872  26.408  1.00  0.00     0.129 A 
HETATM   22  N3  UNL     1      -7.557  17.168  26.258  1.00  0.00    -0.341 N 
HETATM   23  C16 UNL     1      -8.569  16.978  25.254  1.00  0.00     0.224 C 
HETATM   24  O2  UNL     1      -9.725  17.396  25.485  1.00  0.00    -0.273 OA
BRANCH  23  25
HETATM   25  C17 UNL     1      -8.284  16.306  23.966  1.00  0.00     0.078 C 
HETATM   26  C18 UNL     1      -7.570  17.243  23.079  1.00  0.00     0.014 C 
HETATM   27  C19 UNL     1      -8.121  17.364  21.688  1.00  0.00     0.001 C 
HETATM   28  C20 UNL     1      -8.478  15.945  21.227  1.00  0.00     0.000 C 
HETATM   29  C21 UNL     1      -9.728  15.592  22.004  1.00  0.00     0.001 C 
HETATM   30  C22 UNL     1      -9.565  15.730  23.466  1.00  0.00     0.014 C 
ENDBRANCH  23  25
ENDBRANCH  17  19
ENDBRANCH   1  17
TORSDOF 9
ENDMDL
MODEL 4
REMARK VINA RESULT: -8.128658765      2.193      7.021
REMARK  9 active torsions:
REMARK  status: ('A' for Active; 'I' for Inactive)
REMARK    1  A    between atoms: C1_2  and  C2_3 
REMARK       I    between atoms: C1_2  and  N1_10 
REMARK    2  A    between atoms: C2_3  and  C3_4 
REMARK    3  A    between atoms: N1_10  and  C9_12 
REMARK    4  A    between atoms: C9_12  and  C10_13 
REMARK    5  A    between atoms: C10_13  and  C11_14 
REMARK    6  A    between atoms: C11_14  and  N2_15 
REMARK    7  A    between atoms: N2_15  and  C12_17 
REMARK    8  A    between atoms: C12_17  and  C13_19 
REMARK       I    between atoms: N3_22  and  C16_23 
REMARK    9  A    between atoms: C16_23  and  C17_25 
ROOT
HETATM    1  N2  UNL     1     -10.789  14.346  30.146  1.00  0.00    -0.383 N 
ATOM      2  H2  UNL     1      -9.892  14.534  29.696  1.00  0.00     0.160 HD
ENDROOT
BRANCH   1   3
HETATM    3  C11 UNL     1     -11.677  13.399  29.556  1.00  0.00     0.122 C 
BRANCH   3   4
HETATM    4  C10 UNL     1     -11.688  13.491  28.035  1.00  0.00     0.039 C 
BRANCH   4   5
HETATM    5  C9  UNL     1     -11.210  14.815  27.548  1.00  0.00     0.124 C 
BRANCH   5   6
HETATM    6  N1  UNL     1     -10.092  14.652  26.666  1.00  0.00    -0.361 N 
HETATM    7  C1  UNL     1      -9.796  15.483  25.564  1.00  0.00     0.217 C 
HETATM    8  O1  UNL     1     -10.543  16.462  25.280  1.00  0.00    -0.274 OA
ATOM      9  H1  UNL     1      -9.460  13.873  26.849  1.00  0.00     0.162 HD
BRANCH   7  10
HETATM   10  C2  UNL     1      -8.596  15.206  24.729  1.00  0.00     0.107 C 
BRANCH  10  11
HETATM   11  C3  UNL     1      -8.705  15.946  23.439  1.00  0.00    -0.006 C 
HETATM   12  C4  UNL     1      -9.030  14.950  22.308  1.00  0.00     0.005 C 
HETATM   13  C5  UNL     1      -9.130  15.692  20.987  1.00  0.00     0.000 C 
HETATM   14  C6  UNL     1      -9.021  17.191  21.176  1.00  0.00     0.000 C 
HETATM   15  C7  UNL     1      -7.808  17.621  21.936  1.00  0.00     0.000 C 
HETATM   16  C8  UNL     1      -7.396  16.589  22.989  1.00  0.00     0.005 C 
ENDBRANCH  10  11
ENDBRANCH   7  10
ENDBRANCH   5   6
ENDBRANCH   4   5
ENDBRANCH   3   4
ENDBRANCH   1   3
BRANCH   1  17
HETATM   17  C12 UNL     1     -11.119  15.029  31.334  1.00  0.00     0.096 C 
HETATM   18  S1  UNL     1     -12.510  14.664  32.110  1.00  0.00    -0.063 SA
BRANCH  17  19
HETATM   19  C13 UNL     1     -10.197  16.072  31.854  1.00  0.00     0.150 A 
HETATM   20  C14 UNL     1      -9.189  15.600  32.827  1.00  0.00     0.052 A 
HETATM   21  C15 UNL     1      -8.166  16.055  31.857  1.00  0.00     0.129 A 
HETATM   22  N3  UNL     1      -9.174  16.540  30.961  1.00  0.00    -0.341 N 
HETATM   23  C16 UNL     1      -9.214  17.222  29.696  1.00  0.00     0.224 C 
HETATM   24  O2  UNL     1     -10.329  17.502  29.203  1.00  0.00    -0.273 OA
BRANCH  23  25
HETATM   25  C17 UNL     1      -7.983  17.601  28.965  1.00  0.00     0.078 C 
HETATM   26  C18 UNL     1      -8.322  18.593  27.927  1.00  0.00     0.014 C 
HETATM   27  C19 UNL     1      -7.783  18.303  26.556  1.00  0.00     0.001 C 
HETATM   28  C20 UNL     1      -6.345  17.801  26.741  1.00  0.00     0.000 C 
HETATM   29  C21 UNL     1      -6.495  16.401  27.296  1.00  0.00     0.001 C 
HETATM   30  C22 UNL     1      -7.318  16.343  28.522  1.00  0.00     0.014 C 
ENDBRANCH  23  25
ENDBRANCH  17  19
ENDBRANCH   1  17
TORSDOF 9
ENDMDL
MODEL 5
REMARK VINA RESULT: -8.119932012      1.869      3.874
REMARK  9 active torsions:
REMARK  status: ('A' for Active; 'I' for Inactive)
REMARK    1  A    between atoms: C1_2  and  C2_3 
REMARK       I    between atoms: C1_2  and  N1_10 
REMARK    2  A    between atoms: C2_3  and  C3_4 
REMARK    3  A    between atoms: N1_10  and  C9_12 
REMARK    4  A    between atoms: C9_12  and  C10_13 
REMARK    5  A    between atoms: C10_13  and  C11_14 
REMARK    6  A    between atoms: C11_14  and  N2_15 
REMARK    7  A    between atoms: N2_15  and  C12_17 
REMARK    8  A    between atoms: C12_17  and  C13_19 
REMARK       I    between atoms: N3_22  and  C16_23 
REMARK    9  A    between atoms: C16_23  and  C17_25 
ROOT
HETATM    1  N2  UNL     1      -7.724  15.777  29.415  1.00  0.00    -0.383 N 
ATOM      2  H2  UNL     1      -6.859  15.262  29.579  1.00  0.00     0.160 HD
ENDROOT
BRANCH   1   3
HETATM    3  C11 UNL     1      -8.787  15.669  30.360  1.00  0.00     0.122 C 
BRANCH   3   4
HETATM    4  C10 UNL     1      -8.350  16.064  31.765  1.00  0.00     0.039 C 
BRANCH   4   5
HETATM    5  C9  UNL     1      -9.118  15.342  32.817  1.00  0.00     0.124 C 
BRANCH   5   6
HETATM    6  N1  UNL     1     -10.171  14.568  32.228  1.00  0.00    -0.361 N 
HETATM    7  C1  UNL     1     -11.545  14.713  32.514  1.00  0.00     0.217 C 
HETATM    8  O1  UNL     1     -11.939  15.573  33.353  1.00  0.00    -0.274 OA
ATOM      9  H1  UNL     1      -9.906  13.857  31.548  1.00  0.00     0.162 HD
BRANCH   7  10
HETATM   10  C2  UNL     1     -12.541  13.846  31.826  1.00  0.00     0.107 C 
BRANCH  10  11
HETATM   11  C3  UNL     1     -12.197  13.746  30.378  1.00  0.00    -0.006 C 
HETATM   12  C4  UNL     1     -12.680  15.017  29.652  1.00  0.00     0.005 C 
HETATM   13  C5  UNL     1     -12.347  14.918  28.175  1.00  0.00     0.000 C 
HETATM   14  C6  UNL     1     -11.528  13.682  27.865  1.00  0.00     0.000 C 
HETATM   15  C7  UNL     1     -12.137  12.410  28.358  1.00  0.00     0.000 C 
HETATM   16  C8  UNL     1     -12.926  12.617  29.653  1.00  0.00     0.005 C 
ENDBRANCH  10  11
ENDBRANCH   7  10
ENDBRANCH   5   6
ENDBRANCH   4   5
ENDBRANCH   3   4
ENDBRANCH   1   3
BRANCH   1  17
HETATM   17  C12 UNL     1      -7.840  16.577  28.260  1.00  0.00     0.096 C 
HETATM   18  S1  UNL     1      -6.496  17.236  27.602  1.00  0.00    -0.063 SA
BRANCH  17  19
HETATM   19  C13 UNL     1      -9.182  16.811  27.667  1.00  0.00     0.150 A 
HETATM   20  C14 UNL     1      -9.759  18.150  27.910  1.00  0.00     0.052 A 
HETATM   21  C15 UNL     1      -9.759  18.321  26.439  1.00  0.00     0.129 A 
HETATM   22  N3  UNL     1      -9.241  16.999  26.244  1.00  0.00    -0.341 N 
HETATM   23  C16 UNL     1      -8.907  16.156  25.128  1.00  0.00     0.224 C 
HETATM   24  O2  UNL     1      -8.469  15.007  25.358  1.00  0.00    -0.273 OA
BRANCH  23  25
HETATM   25  C17 UNL     1      -9.066  16.604  23.726  1.00  0.00     0.078 C 
HETATM   26  C18 UNL     1      -9.924  15.644  23.006  1.00  0.00     0.014 C 
HETATM   27  C19 UNL     1      -9.392  15.169  21.684  1.00  0.00     0.001 C 
HETATM   28  C20 UNL     1      -8.798  16.394  20.978  1.00  0.00     0.000 C 
HETATM   29  C21 UNL     1      -7.511  16.680  21.722  1.00  0.00     0.001 C 
HETATM   30  C22 UNL     1      -7.704  16.855  23.176  1.00  0.00     0.014 C 
ENDBRANCH  23  25
ENDBRANCH  17  19
ENDBRANCH   1  17
TORSDOF 9
ENDMDL
