MODEL 1
REMARK VINA RESULT: -8.012125892      0.000      0.000
REMARK  8 active torsions:
REMARK  status: ('A' for Active; 'I' for Inactive)
REMARK    1  A    between atoms: C2_2  and  C3_3 
REMARK    2  A    between atoms: C2_2  and  N2_16 
REMARK       I    between atoms: C3_3  and  N1_5 
REMARK    3  A    between atoms: N1_5  and  C4_7 
REMARK    4  A    between atoms: N2_16  and  C13_17 
REMARK       I    between atoms: N2_16  and  C20_24 
REMARK    5  A    between atoms: C13_17  and  C14_18 
REMARK    6  A    between atoms: C20_24  and  C21_26 
REMARK    7  A    between atoms: C21_26  and  C22_27 
REMARK    8  A    between atoms: C22_27  and  C23_28 
ROOT
HETATM    1  C1  UNL     1     -11.299  18.017  28.855  1.00  0.00     0.042 C 
HETATM    2  C2  UNL     1     -10.473  17.156  27.983  1.00  0.00     0.175 C 
ENDROOT
BRANCH   2   3
HETATM    3  C3  UNL     1      -9.525  17.971  27.131  1.00  0.00     0.240 C 
HETATM    4  O1  UNL     1      -9.601  19.223  27.118  1.00  0.00    -0.271 OA
HETATM    5  N1  UNL     1      -8.538  17.347  26.335  1.00  0.00    -0.354 N 
ATOM      6  H1  UNL     1      -8.450  16.331  26.323  1.00  0.00     0.162 HD
BRANCH   5   7
HETATM    7  C4  UNL     1      -7.660  18.163  25.543  1.00  0.00     0.093 C 
HETATM    8  C5  UNL     1      -7.719  17.630  24.127  1.00  0.00     0.026 C 
HETATM    9  C6  UNL     1      -6.842  18.356  23.174  1.00  0.00     0.002 C 
HETATM   10  C7  UNL     1      -5.594  18.924  23.691  1.00  0.00     0.001 C 
HETATM   11  C8  UNL     1      -5.446  19.057  25.155  1.00  0.00     0.011 C 
HETATM   12  C9  UNL     1      -6.220  18.074  25.971  1.00  0.00    -0.020 C 
HETATM   13  C10 UNL     1      -5.940  18.232  27.424  1.00  0.00     0.011 C 
HETATM   14  C12 UNL     1      -5.649  16.679  26.039  1.00  0.00     0.011 C 
HETATM   15  C11 UNL     1      -4.879  17.131  27.286  1.00  0.00     0.002 C 
ENDBRANCH   5   7
ENDBRANCH   2   3
BRANCH   2  16
HETATM   16  N2  UNL     1      -9.730  16.123  28.664  1.00  0.00    -0.339 N 
HETATM   17  C20 UNL     1      -9.887  14.728  28.348  1.00  0.00     0.221 C 
HETATM   18  O2  UNL     1      -9.192  13.909  29.050  1.00  0.00    -0.273 OA
BRANCH  16  19
HETATM   19  C13 UNL     1      -8.840  16.433  29.759  1.00  0.00     0.131 C 
BRANCH  19  20
HETATM   20  C14 UNL     1      -9.414  16.829  31.048  1.00  0.00     0.004 C 
HETATM   21  C15 UNL     1      -8.278  17.047  32.052  1.00  0.00     0.006 C 
HETATM   22  C16 UNL     1      -7.869  15.769  32.725  1.00  0.00     0.000 C 
HETATM   23  C17 UNL     1      -9.061  15.051  33.359  1.00  0.00     0.000 C 
HETATM   24  C18 UNL     1      -9.952  14.644  32.177  1.00  0.00     0.000 C 
HETATM   25  C19 UNL     1     -10.478  15.971  31.618  1.00  0.00     0.006 C 
ENDBRANCH  19  20
ENDBRANCH  16  19
BRANCH  17  26
HETATM   26  C21 UNL     1     -10.773  14.201  27.290  1.00  0.00     0.112 C 
BRANCH  26  27
HETATM   27  C22 UNL     1     -11.842  13.350  27.955  1.00  0.00     0.109 C 
BRANCH  27  28
HETATM   28  C23 UNL     1     -12.733  14.171  28.799  1.00  0.00     0.231 C 
HETATM   29  N3  UNL     1     -13.476  15.269  28.325  1.00  0.00    -0.062 NA
HETATM   30  O3  UNL     1     -12.835  13.873  30.011  1.00  0.00    -0.277 OA
ENDBRANCH  27  28
ENDBRANCH  26  27
ENDBRANCH  17  26
ENDBRANCH   2  16
TORSDOF 8
ENDMDL
MODEL 2
REMARK VINA RESULT: -7.986110943      1.889      3.029
REMARK  8 active torsions:
REMARK  status: ('A' for Active; 'I' for Inactive)
REMARK    1  A    between atoms: C2_2  and  C3_3 
REMARK    2  A    between atoms: C2_2  and  N2_16 
REMARK       I    between atoms: C3_3  and  N1_5 
REMARK    3  A    between atoms: N1_5  and  C4_7 
REMARK    4  A    between atoms: N2_16  and  C13_17 
REMARK       I    between atoms: N2_16  and  C20_24 
REMARK    5  A    between atoms: C13_17  and  C14_18 
REMARK    6  A    between atoms: C20_24  and  C21_26 
REMARK    7  A    between atoms: C21_26  and  C22_27 
REMARK    8  A    between atoms: C22_27  and  C23_28 
ROOT
HETATM    1  C1  UNL     1     -11.203  15.754  27.783  1.00  0.00     0.042 C 
HETATM    2  C2  UNL     1     -10.397  14.579  28.174  1.00  0.00     0.175 C 
ENDROOT
BRANCH   2   3
HETATM    3  C3  UNL     1      -8.938  14.759  27.815  1.00  0.00     0.240 C 
HETATM    4  O1  UNL     1      -8.127  13.814  27.967  1.00  0.00    -0.271 OA
HETATM    5  N1  UNL     1      -8.457  15.985  27.304  1.00  0.00    -0.354 N 
ATOM      6  H1  UNL     1      -9.091  16.773  27.169  1.00  0.00     0.162 HD
BRANCH   5   7
HETATM    7  C4  UNL     1      -7.063  16.108  26.977  1.00  0.00     0.093 C 
HETATM    8  C5  UNL     1      -6.414  16.891  28.098  1.00  0.00     0.026 C 
HETATM    9  C6  UNL     1      -4.961  17.128  27.903  1.00  0.00     0.002 C 
HETATM   10  C7  UNL     1      -4.470  17.272  26.529  1.00  0.00     0.001 C 
HETATM   11  C8  UNL     1      -5.351  16.830  25.429  1.00  0.00     0.011 C 
HETATM   12  C9  UNL     1      -6.816  16.887  25.714  1.00  0.00    -0.020 C 
HETATM   13  C10 UNL     1      -7.619  16.506  24.520  1.00  0.00     0.011 C 
HETATM   14  C12 UNL     1      -7.443  18.258  25.666  1.00  0.00     0.011 C 
HETATM   15  C11 UNL     1      -7.727  17.999  24.181  1.00  0.00     0.002 C 
ENDBRANCH   5   7
ENDBRANCH   2   3
BRANCH   2  16
HETATM   16  N2  UNL     1     -10.501  14.195  29.561  1.00  0.00    -0.339 N 
HETATM   17  C20 UNL     1     -11.610  13.431  30.068  1.00  0.00     0.221 C 
HETATM   18  O2  UNL     1     -11.598  13.185  31.326  1.00  0.00    -0.273 OA
BRANCH  16  19
HETATM   19  C13 UNL     1      -9.527  14.628  30.537  1.00  0.00     0.131 C 
BRANCH  19  20
HETATM   20  C14 UNL     1      -9.604  15.996  31.057  1.00  0.00     0.004 C 
HETATM   21  C15 UNL     1      -8.189  16.486  31.381  1.00  0.00     0.006 C 
HETATM   22  C16 UNL     1      -7.755  16.078  32.759  1.00  0.00     0.000 C 
HETATM   23  C17 UNL     1      -8.764  16.505  33.826  1.00  0.00     0.000 C 
HETATM   24  C18 UNL     1     -10.030  15.692  33.520  1.00  0.00     0.000 C 
HETATM   25  C19 UNL     1     -10.532  16.250  32.183  1.00  0.00     0.006 C 
ENDBRANCH  19  20
ENDBRANCH  16  19
BRANCH  17  26
HETATM   26  C21 UNL     1     -12.727  12.926  29.243  1.00  0.00     0.112 C 
BRANCH  26  27
HETATM   27  C22 UNL     1     -13.406  11.804  30.011  1.00  0.00     0.109 C 
BRANCH  27  28
HETATM   28  C23 UNL     1     -14.688  12.251  30.591  1.00  0.00     0.231 C 
HETATM   29  N3  UNL     1     -15.676  11.379  31.085  1.00  0.00    -0.062 NA
HETATM   30  O3  UNL     1     -14.911  13.482  30.647  1.00  0.00    -0.277 OA
ENDBRANCH  27  28
ENDBRANCH  26  27
ENDBRANCH  17  26
ENDBRANCH   2  16
TORSDOF 8
ENDMDL
MODEL 3
REMARK VINA RESULT: -7.940150491      2.215      3.879
REMARK  8 active torsions:
REMARK  status: ('A' for Active; 'I' for Inactive)
REMARK    1  A    between atoms: C2_2  and  C3_3 
REMARK    2  A    between atoms: C2_2  and  N2_16 
REMARK       I    between atoms: C3_3  and  N1_5 
REMARK    3  A    between atoms: N1_5  and  C4_7 
REMARK    4  A    between atoms: N2_16  and  C13_17 
REMARK       I    between atoms: N2_16  and  C20_24 
REMARK    5  A    between atoms: C13_17  and  C14_18 
REMARK    6  A    between atoms: C20_24  and  C21_26 
REMARK    7  A    between atoms: C21_26  and  C22_27 
REMARK    8  A    between atoms: C22_27  and  C23_28 
ROOT
HETATM    1  C1  UNL     1     -13.077  15.926  28.336  1.00  0.00     0.042 C 
HETATM    2  C2  UNL     1     -12.314  14.833  28.974  1.00  0.00     0.175 C 
ENDROOT
BRANCH   2   3
HETATM    3  C3  UNL     1     -10.864  14.838  28.539  1.00  0.00     0.240 C 
HETATM    4  O1  UNL     1     -10.198  13.775  28.542  1.00  0.00    -0.271 OA
HETATM    5  N1  UNL     1     -10.230  16.030  28.123  1.00  0.00    -0.354 N 
ATOM      6  H1  UNL     1     -10.744  16.911  28.109  1.00  0.00     0.162 HD
BRANCH   5   7
HETATM    7  C4  UNL     1      -8.852  15.985  27.718  1.00  0.00     0.093 C 
HETATM    8  C5  UNL     1      -8.163  17.168  28.363  1.00  0.00     0.026 C 
HETATM    9  C6  UNL     1      -6.722  17.283  28.026  1.00  0.00     0.002 C 
HETATM   10  C7  UNL     1      -6.290  16.814  26.706  1.00  0.00     0.001 C 
HETATM   11  C8  UNL     1      -7.211  15.949  25.941  1.00  0.00     0.011 C 
HETATM   12  C9  UNL     1      -8.664  16.140  26.234  1.00  0.00    -0.020 C 
HETATM   13  C10 UNL     1      -9.512  15.289  25.356  1.00  0.00     0.011 C 
HETATM   14  C12 UNL     1      -9.304  17.362  25.624  1.00  0.00     0.011 C 
HETATM   15  C11 UNL     1      -9.647  16.490  24.410  1.00  0.00     0.002 C 
ENDBRANCH   5   7
ENDBRANCH   2   3
BRANCH   2  16
HETATM   16  N2  UNL     1     -12.376  14.797  30.415  1.00  0.00    -0.339 N 
HETATM   17  C20 UNL     1     -13.362  14.024  31.123  1.00  0.00     0.221 C 
HETATM   18  O2  UNL     1     -13.331  14.105  32.403  1.00  0.00    -0.273 OA
BRANCH  16  19
HETATM   19  C13 UNL     1     -11.494  15.603  31.228  1.00  0.00     0.131 C 
BRANCH  19  20
HETATM   20  C14 UNL     1     -10.378  14.954  31.920  1.00  0.00     0.004 C 
HETATM   21  C15 UNL     1     -10.579  15.096  33.432  1.00  0.00     0.006 C 
HETATM   22  C16 UNL     1     -10.034  16.395  33.952  1.00  0.00     0.000 C 
HETATM   23  C17 UNL     1      -8.573  16.604  33.548  1.00  0.00     0.000 C 
HETATM   24  C18 UNL     1      -8.600  16.734  32.019  1.00  0.00     0.000 C 
HETATM   25  C19 UNL     1      -9.005  15.342  31.521  1.00  0.00     0.006 C 
ENDBRANCH  19  20
ENDBRANCH  16  19
BRANCH  17  26
HETATM   26  C21 UNL     1     -14.377  13.165  30.478  1.00  0.00     0.112 C 
BRANCH  26  27
HETATM   27  C22 UNL     1     -14.256  11.772  31.072  1.00  0.00     0.109 C 
BRANCH  27  28
HETATM   28  C23 UNL     1     -13.017  11.103  30.624  1.00  0.00     0.231 C 
HETATM   29  N3  UNL     1     -12.394  10.051  31.320  1.00  0.00    -0.062 NA
HETATM   30  O3  UNL     1     -12.488  11.498  29.560  1.00  0.00    -0.277 OA
ENDBRANCH  27  28
ENDBRANCH  26  27
ENDBRANCH  17  26
ENDBRANCH   2  16
TORSDOF 8
ENDMDL
MODEL 4
REMARK VINA RESULT: -7.826102044      2.536      5.109
REMARK  8 active torsions:
REMARK  status: ('A' for Active; 'I' for Inactive)
REMARK    1  A    between atoms: C2_2  and  C3_3 
REMARK    2  A    between atoms: C2_2  and  N2_16 
REMARK       I    between atoms: C3_3  and  N1_5 
REMARK    3  A    between atoms: N1_5  and  C4_7 
REMARK    4  A    between atoms: N2_16  and  C13_17 
REMARK       I    between atoms: N2_16  and  C20_24 
REMARK    5  A    between atoms: C13_17  and  C14_18 
REMARK    6  A    between atoms: C20_24  and  C21_26 
REMARK    7  A    between atoms: C21_26  and  C22_27 
REMARK    8  A    between atoms: C22_27  and  C23_28 
ROOT
HETATM    1  C1  UNL     1      -9.797  18.095  26.404  1.00  0.00     0.042 C 
HETATM    2  C2  UNL     1      -9.591  16.647  26.192  1.00  0.00     0.175 C 
ENDROOT
BRANCH   2   3
HETATM    3  C3  UNL     1      -8.562  16.382  25.115  1.00  0.00     0.240 C 
HETATM    4  O1  UNL     1      -7.865  15.339  25.147  1.00  0.00    -0.271 OA
HETATM    5  N1  UNL     1      -8.362  17.295  24.055  1.00  0.00    -0.354 N 
ATOM      6  H1  UNL     1      -8.912  18.152  24.000  1.00  0.00     0.162 HD
BRANCH   5   7
HETATM    7  C4  UNL     1      -7.374  16.999  23.055  1.00  0.00     0.093 C 
HETATM    8  C5  UNL     1      -6.722  18.312  22.675  1.00  0.00     0.026 C 
HETATM    9  C6  UNL     1      -5.681  18.186  21.625  1.00  0.00     0.002 C 
HETATM   10  C7  UNL     1      -5.851  17.134  20.617  1.00  0.00     0.001 C 
HETATM   11  C8  UNL     1      -6.825  16.059  20.894  1.00  0.00     0.011 C 
HETATM   12  C9  UNL     1      -7.960  16.434  21.790  1.00  0.00    -0.020 C 
HETATM   13  C10 UNL     1      -8.929  15.314  21.939  1.00  0.00     0.011 C 
HETATM   14  C12 UNL     1      -9.053  17.260  21.157  1.00  0.00     0.011 C 
HETATM   15  C11 UNL     1      -9.749  15.940  20.802  1.00  0.00     0.002 C 
ENDBRANCH   5   7
ENDBRANCH   2   3
BRANCH   2  16
HETATM   16  N2  UNL     1      -9.244  15.895  27.374  1.00  0.00    -0.339 N 
HETATM   17  C20 UNL     1      -8.154  16.272  28.234  1.00  0.00     0.221 C 
HETATM   18  O2  UNL     1      -7.929  15.500  29.233  1.00  0.00    -0.273 OA
BRANCH  16  19
HETATM   19  C13 UNL     1      -9.930  14.669  27.715  1.00  0.00     0.131 C 
BRANCH  19  20
HETATM   20  C14 UNL     1     -11.393  14.633  27.647  1.00  0.00     0.004 C 
HETATM   21  C15 UNL     1     -11.962  15.665  28.627  1.00  0.00     0.006 C 
HETATM   22  C16 UNL     1     -12.098  15.107  30.013  1.00  0.00     0.000 C 
HETATM   23  C17 UNL     1     -12.898  13.803  30.029  1.00  0.00     0.000 C 
HETATM   24  C18 UNL     1     -12.036  12.801  29.250  1.00  0.00     0.000 C 
HETATM   25  C19 UNL     1     -12.055  13.318  27.806  1.00  0.00     0.006 C 
ENDBRANCH  19  20
ENDBRANCH  16  19
BRANCH  17  26
HETATM   26  C21 UNL     1      -7.307  17.467  28.040  1.00  0.00     0.112 C 
BRANCH  26  27
HETATM   27  C22 UNL     1      -5.899  16.995  27.717  1.00  0.00     0.109 C 
BRANCH  27  28
HETATM   28  C23 UNL     1      -5.448  17.508  26.408  1.00  0.00     0.231 C 
HETATM   29  N3  UNL     1      -4.499  16.863  25.593  1.00  0.00    -0.062 NA
HETATM   30  O3  UNL     1      -5.940  18.584  25.997  1.00  0.00    -0.277 OA
ENDBRANCH  27  28
ENDBRANCH  26  27
ENDBRANCH  17  26
ENDBRANCH   2  16
TORSDOF 8
ENDMDL
MODEL 5
REMARK VINA RESULT: -7.781990420      3.027      8.068
REMARK  8 active torsions:
REMARK  status: ('A' for Active; 'I' for Inactive)
REMARK    1  A    between atoms: C2_2  and  C3_3 
REMARK    2  A    between atoms: C2_2  and  N2_16 
REMARK       I    between atoms: C3_3  and  N1_5 
REMARK    3  A    between atoms: N1_5  and  C4_7 
REMARK    4  A    between atoms: N2_16  and  C13_17 
REMARK       I    between atoms: N2_16  and  C20_24 
REMARK    5  A    between atoms: C13_17  and  C14_18 
REMARK    6  A    between atoms: C20_24  and  C21_26 
REMARK    7  A    between atoms: C21_26  and  C22_27 
REMARK    8  A    between atoms: C22_27  and  C23_28 
ROOT
HETATM    1  C1  UNL     1      -7.027  19.496  27.439  1.00  0.00     0.042 C 
HETATM    2  C2  UNL     1      -6.508  18.328  26.699  1.00  0.00     0.175 C 
ENDROOT
BRANCH   2   3
HETATM    3  C3  UNL     1      -7.175  17.044  27.142  1.00  0.00     0.240 C 
HETATM    4  O1  UNL     1      -6.539  15.964  27.134  1.00  0.00    -0.271 OA
HETATM    5  N1  UNL     1      -8.521  17.032  27.574  1.00  0.00    -0.354 N 
ATOM      6  H1  UNL     1      -9.066  17.894  27.592  1.00  0.00     0.162 HD
BRANCH   5   7
HETATM    7  C4  UNL     1      -9.111  15.789  27.987  1.00  0.00     0.093 C 
HETATM    8  C5  UNL     1     -10.482  15.717  27.351  1.00  0.00     0.026 C 
HETATM    9  C6  UNL     1     -11.244  14.491  27.697  1.00  0.00     0.002 C 
HETATM   10  C7  UNL     1     -11.018  13.897  29.018  1.00  0.00     0.001 C 
HETATM   11  C8  UNL     1      -9.822  14.321  29.774  1.00  0.00     0.011 C 
HETATM   12  C9  UNL     1      -9.326  15.698  29.473  1.00  0.00    -0.020 C 
HETATM   13  C10 UNL     1      -8.175  16.064  30.343  1.00  0.00     0.011 C 
HETATM   14  C12 UNL     1     -10.114  16.830  30.084  1.00  0.00     0.011 C 
HETATM   15  C11 UNL     1      -9.174  16.740  31.292  1.00  0.00     0.002 C 
ENDBRANCH   5   7
ENDBRANCH   2   3
BRANCH   2  16
HETATM   16  N2  UNL     1      -6.581  18.428  25.260  1.00  0.00    -0.339 N 
HETATM   17  C20 UNL     1      -5.581  19.112  24.484  1.00  0.00     0.221 C 
HETATM   18  O2  UNL     1      -5.782  19.157  23.219  1.00  0.00    -0.273 OA
BRANCH  16  19
HETATM   19  C13 UNL     1      -7.713  17.909  24.527  1.00  0.00     0.131 C 
BRANCH  19  20
HETATM   20  C14 UNL     1      -7.594  16.605  23.870  1.00  0.00     0.004 C 
HETATM   21  C15 UNL     1      -7.556  16.814  22.352  1.00  0.00     0.006 C 
HETATM   22  C16 UNL     1      -8.933  16.890  21.760  1.00  0.00     0.000 C 
HETATM   23  C17 UNL     1      -9.790  15.685  22.149  1.00  0.00     0.000 C 
HETATM   24  C18 UNL     1      -9.972  15.802  23.669  1.00  0.00     0.000 C 
HETATM   25  C19 UNL     1      -8.572  15.557  24.244  1.00  0.00     0.006 C 
ENDBRANCH  19  20
ENDBRANCH  16  19
BRANCH  17  26
HETATM   26  C21 UNL     1      -4.369  19.742  25.047  1.00  0.00     0.112 C 
BRANCH  26  27
HETATM   27  C22 UNL     1      -3.162  18.977  24.531  1.00  0.00     0.109 C 
BRANCH  27  28
HETATM   28  C23 UNL     1      -2.296  19.838  23.700  1.00  0.00     0.231 C 
HETATM   29  N3  UNL     1      -2.291  19.826  22.293  1.00  0.00    -0.062 NA
HETATM   30  O3  UNL     1      -1.518  20.627  24.284  1.00  0.00    -0.277 OA
ENDBRANCH  27  28
ENDBRANCH  26  27
ENDBRANCH  17  26
ENDBRANCH   2  16
TORSDOF 8
ENDMDL
