MODEL 1
REMARK VINA RESULT: -6.917774093      0.000      0.000
REMARK  1 active torsions:
REMARK  status: ('A' for Active; 'I' for Inactive)
REMARK    1  A    between atoms: N4_12  and  O3_13 
ROOT
HETATM    1  O1  UNL     1      28.296  64.990  10.713  1.00  0.00    -0.247 OA
HETATM    2  C1  UNL     1      29.162  65.501   9.939  1.00  0.00     0.328 A 
HETATM    3  N1  UNL     1      28.749  66.027   8.772  1.00  0.00    -0.273 N 
ATOM      4  H1  UNL     1      27.759  66.010   8.523  1.00  0.00     0.173 HD
HETATM    5  C2  UNL     1      29.648  66.573   7.937  1.00  0.00     0.283 A 
HETATM    6  O2  UNL     1      29.277  67.065   6.850  1.00  0.00    -0.265 OA
HETATM    7  C3  UNL     1      30.991  66.612   8.245  1.00  0.00     0.192 A 
HETATM    8  C4  UNL     1      31.412  66.064   9.461  1.00  0.00     0.159 A 
HETATM    9  N2  UNL     1      32.747  66.225   9.522  1.00  0.00    -0.265 N 
ATOM     10  H2  UNL     1      33.340  65.922  10.294  1.00  0.00     0.186 HD
HETATM   11  N3  UNL     1      33.171  66.834   8.427  1.00  0.00     0.008 NA
HETATM   12  N4  UNL     1      32.109  67.061   7.669  1.00  0.00    -0.138 N 
HETATM   13  N5  UNL     1      30.470  65.532  10.253  1.00  0.00    -0.291 N 
ATOM     14  H5  UNL     1      30.761  65.128  11.142  1.00  0.00     0.172 HD
ENDROOT
BRANCH  12  15
HETATM   15  O3  UNL     1      32.154  67.615   6.574  1.00  0.00    -0.269 OA
ATOM     16  H3  UNL     1      32.586  68.445   6.407  1.00  0.00     0.246 HD
ENDBRANCH  12  15
TORSDOF 1
ENDMDL
MODEL 2
REMARK VINA RESULT: -6.883684680      1.004      1.040
REMARK  1 active torsions:
REMARK  status: ('A' for Active; 'I' for Inactive)
REMARK    1  A    between atoms: N4_12  and  O3_13 
ROOT
HETATM    1  O1  UNL     1      27.199  65.540   9.306  1.00  0.00    -0.247 OA
HETATM    2  C1  UNL     1      28.377  65.883   8.980  1.00  0.00     0.328 A 
HETATM    3  N1  UNL     1      28.545  66.617   7.866  1.00  0.00    -0.273 N 
ATOM      4  H1  UNL     1      27.739  66.887   7.302  1.00  0.00     0.173 HD
HETATM    5  C2  UNL     1      29.783  66.992   7.501  1.00  0.00     0.283 A 
HETATM    6  O2  UNL     1      29.953  67.674   6.469  1.00  0.00    -0.265 OA
HETATM    7  C3  UNL     1      30.892  66.644   8.243  1.00  0.00     0.192 A 
HETATM    8  C4  UNL     1      30.707  65.881   9.400  1.00  0.00     0.159 A 
HETATM    9  N2  UNL     1      31.926  65.679   9.934  1.00  0.00    -0.265 N 
ATOM     10  H2  UNL     1      32.113  65.153  10.787  1.00  0.00     0.186 HD
HETATM   11  N3  UNL     1      32.843  66.265   9.183  1.00  0.00     0.008 NA
HETATM   12  N4  UNL     1      32.211  66.841   8.171  1.00  0.00    -0.138 N 
HETATM   13  N5  UNL     1      29.450  65.537   9.713  1.00  0.00    -0.291 N 
ATOM     14  H5  UNL     1      29.299  64.980  10.554  1.00  0.00     0.172 HD
ENDROOT
BRANCH  12  15
HETATM   15  O3  UNL     1      32.774  67.475   7.283  1.00  0.00    -0.269 OA
ATOM     16  H3  UNL     1      33.390  68.182   7.432  1.00  0.00     0.246 HD
ENDBRANCH  12  15
TORSDOF 1
ENDMDL
MODEL 3
REMARK VINA RESULT: -6.874401531      1.483      1.919
REMARK  1 active torsions:
REMARK  status: ('A' for Active; 'I' for Inactive)
REMARK    1  A    between atoms: N4_12  and  O3_13 
ROOT
HETATM    1  O1  UNL     1      27.333  66.113   7.572  1.00  0.00    -0.247 OA
HETATM    2  C1  UNL     1      28.581  66.280   7.734  1.00  0.00     0.328 A 
HETATM    3  N1  UNL     1      29.253  67.007   6.825  1.00  0.00    -0.273 N 
ATOM      4  H1  UNL     1      28.763  67.412   6.026  1.00  0.00     0.173 HD
HETATM    5  C2  UNL     1      30.574  67.198   6.975  1.00  0.00     0.283 A 
HETATM    6  O2  UNL     1      31.210  67.872   6.138  1.00  0.00    -0.265 OA
HETATM    7  C3  UNL     1      31.265  66.666   8.044  1.00  0.00     0.192 A 
HETATM    8  C4  UNL     1      30.557  65.911   8.985  1.00  0.00     0.159 A 
HETATM    9  N2  UNL     1      31.446  65.511   9.913  1.00  0.00    -0.265 N 
ATOM     10  H2  UNL     1      31.226  64.941  10.730  1.00  0.00     0.186 HD
HETATM   11  N3  UNL     1      32.648  65.970   9.605  1.00  0.00     0.008 NA
HETATM   12  N4  UNL     1      32.526  66.661   8.481  1.00  0.00    -0.138 N 
HETATM   13  N5  UNL     1      29.242  65.755   8.782  1.00  0.00    -0.291 N 
ATOM     14  H5  UNL     1      28.712  65.207   9.459  1.00  0.00     0.172 HD
ENDROOT
BRANCH  12  15
HETATM   15  O3  UNL     1      33.462  67.224   7.919  1.00  0.00    -0.269 OA
ATOM     16  H3  UNL     1      34.369  67.169   8.195  1.00  0.00     0.246 HD
ENDBRANCH  12  15
TORSDOF 1
ENDMDL
MODEL 4
REMARK VINA RESULT: -6.732296175      1.534      2.470
REMARK  1 active torsions:
REMARK  status: ('A' for Active; 'I' for Inactive)
REMARK    1  A    between atoms: N4_12  and  O3_13 
ROOT
HETATM    1  O1  UNL     1      27.858  65.694  10.634  1.00  0.00    -0.247 OA
HETATM    2  C1  UNL     1      28.832  65.987   9.875  1.00  0.00     0.328 A 
HETATM    3  N1  UNL     1      30.070  65.622  10.253  1.00  0.00    -0.273 N 
ATOM      4  H1  UNL     1      30.214  65.121  11.130  1.00  0.00     0.173 HD
HETATM    5  C2  UNL     1      31.117  65.921   9.465  1.00  0.00     0.283 A 
HETATM    6  O2  UNL     1      32.272  65.588   9.804  1.00  0.00    -0.265 OA
HETATM    7  C3  UNL     1      30.956  66.596   8.273  1.00  0.00     0.192 A 
HETATM    8  C4  UNL     1      29.665  66.971   7.889  1.00  0.00     0.159 A 
HETATM    9  N2  UNL     1      29.777  67.605   6.708  1.00  0.00    -0.265 N 
ATOM     10  H2  UNL     1      29.001  67.997   6.175  1.00  0.00     0.186 HD
HETATM   11  N3  UNL     1      31.048  67.643   6.343  1.00  0.00     0.008 NA
HETATM   12  N4  UNL     1      31.746  67.034   7.290  1.00  0.00    -0.138 N 
HETATM   13  N5  UNL     1      28.661  66.645   8.715  1.00  0.00    -0.291 N 
ATOM     14  H5  UNL     1      27.713  66.912   8.449  1.00  0.00     0.172 HD
ENDROOT
BRANCH  12  15
HETATM   15  O3  UNL     1      32.965  66.895   7.261  1.00  0.00    -0.269 OA
ATOM     16  H3  UNL     1      33.538  67.290   6.613  1.00  0.00     0.246 HD
ENDBRANCH  12  15
TORSDOF 1
ENDMDL
MODEL 5
REMARK VINA RESULT: -6.703025492      1.474      2.693
REMARK  1 active torsions:
REMARK  status: ('A' for Active; 'I' for Inactive)
REMARK    1  A    between atoms: N4_12  and  O3_13 
ROOT
HETATM    1  O1  UNL     1      29.388  64.807  11.254  1.00  0.00    -0.247 OA
HETATM    2  C1  UNL     1      29.731  65.425  10.200  1.00  0.00     0.328 A 
HETATM    3  N1  UNL     1      31.017  65.793  10.063  1.00  0.00    -0.273 N 
ATOM      4  H1  UNL     1      31.694  65.577  10.794  1.00  0.00     0.173 HD
HETATM    5  C2  UNL     1      31.403  66.449   8.955  1.00  0.00     0.283 A 
HETATM    6  O2  UNL     1      32.594  66.797   8.815  1.00  0.00    -0.265 OA
HETATM    7  C3  UNL     1      30.512  66.756   7.949  1.00  0.00     0.192 A 
HETATM    8  C4  UNL     1      29.177  66.368   8.100  1.00  0.00     0.159 A 
HETATM    9  N2  UNL     1      28.523  66.779   6.998  1.00  0.00    -0.265 N 
ATOM     10  H2  UNL     1      27.529  66.641   6.818  1.00  0.00     0.186 HD
HETATM   11  N3  UNL     1      29.366  67.392   6.183  1.00  0.00     0.008 NA
HETATM   12  N4  UNL     1      30.557  67.371   6.764  1.00  0.00    -0.138 N 
HETATM   13  N5  UNL     1      28.851  65.718   9.226  1.00  0.00    -0.291 N 
ATOM     14  H5  UNL     1      27.881  65.429   9.350  1.00  0.00     0.172 HD
ENDROOT
BRANCH  12  15
HETATM   15  O3  UNL     1      31.569  67.859   6.270  1.00  0.00    -0.269 OA
ATOM     16  H3  UNL     1      32.083  67.453   5.582  1.00  0.00     0.246 HD
ENDBRANCH  12  15
TORSDOF 1
ENDMDL
