MODEL 1
REMARK VINA RESULT: -5.737073544      0.000      0.000
REMARK  1 active torsions:
REMARK  status: ('A' for Active; 'I' for Inactive)
REMARK       I    between atoms: C2_4  and  N3_6 
REMARK    1  A    between atoms: N3_6  and  C3_8 
ROOT
HETATM    1  C3  UNL     1      29.313  65.983   8.036  1.00  0.00     0.705 A 
HETATM    2  N4  UNL     1      28.264  65.854   7.207  1.00  0.00    -0.138 N 
ATOM      3  H4  UNL     1      28.296  65.586   6.224  1.00  0.00     0.189 HD
HETATM    4  C4  UNL     1      27.151  66.150   7.932  1.00  0.00     0.353 A 
HETATM    5  O1  UNL     1      25.989  66.131   7.476  1.00  0.00    -0.245 OA
HETATM    6  N5  UNL     1      27.580  66.448   9.180  1.00  0.00    -0.235 N 
ATOM      7  H5  UNL     1      26.975  66.712   9.959  1.00  0.00     0.192 HD
HETATM    8  N6  UNL     1      28.884  66.348   9.246  1.00  0.00    -0.124 N 
HETATM    9  C5  UNL     1      29.714  66.585  10.397  1.00  0.00     0.197 C 
ENDROOT
BRANCH   1  10
HETATM   10  N3  UNL     1      30.532  65.784   7.705  1.00  0.00    -0.162 N 
HETATM   11  C2  UNL     1      31.325  66.770   7.059  1.00  0.00     0.202 C 
HETATM   12  N1  UNL     1      32.407  67.155   7.635  1.00  0.00    -0.368 N 
HETATM   13  N2  UNL     1      30.982  67.349   5.814  1.00  0.00    -0.063 NA
HETATM   14  C1  UNL     1      32.810  66.600   8.909  1.00  0.00     0.148 C 
ATOM     15  H1  UNL     1      32.990  67.861   7.187  1.00  0.00     0.161 HD
ATOM     16  H3  UNL     1      30.953  64.879   7.914  1.00  0.00     0.187 HD
ENDBRANCH   1  10
TORSDOF 1
ENDMDL
MODEL 2
REMARK VINA RESULT: -5.642754880      2.630      4.596
REMARK  1 active torsions:
REMARK  status: ('A' for Active; 'I' for Inactive)
REMARK       I    between atoms: C2_4  and  N3_6 
REMARK    1  A    between atoms: N3_6  and  C3_8 
ROOT
HETATM    1  C3  UNL     1      29.838  66.707   8.382  1.00  0.00     0.705 A 
HETATM    2  N4  UNL     1      31.051  66.724   8.958  1.00  0.00    -0.138 N 
ATOM      3  H4  UNL     1      31.255  66.601   9.950  1.00  0.00     0.189 HD
HETATM    4  C4  UNL     1      31.956  66.936   7.964  1.00  0.00     0.353 A 
HETATM    5  O1  UNL     1      33.189  67.011   8.140  1.00  0.00    -0.245 OA
HETATM    6  N5  UNL     1      31.243  67.040   6.819  1.00  0.00    -0.235 N 
ATOM      7  H5  UNL     1      31.643  67.201   5.894  1.00  0.00     0.192 HD
HETATM    8  N6  UNL     1      29.964  66.902   7.068  1.00  0.00    -0.124 N 
HETATM    9  C5  UNL     1      28.887  66.950   6.117  1.00  0.00     0.197 C 
ENDROOT
BRANCH   1  10
HETATM   10  N3  UNL     1      28.736  66.531   9.007  1.00  0.00    -0.162 N 
HETATM   11  C2  UNL     1      28.645  65.773  10.206  1.00  0.00     0.202 C 
HETATM   12  N1  UNL     1      28.196  66.353  11.261  1.00  0.00    -0.368 N 
HETATM   13  N2  UNL     1      29.026  64.412  10.296  1.00  0.00    -0.063 NA
HETATM   14  C1  UNL     1      27.793  67.742  11.231  1.00  0.00     0.148 C 
ATOM     15  H1  UNL     1      28.123  65.827  12.131  1.00  0.00     0.161 HD
ATOM     16  H3  UNL     1      27.887  66.951   8.630  1.00  0.00     0.187 HD
ENDBRANCH   1  10
TORSDOF 1
ENDMDL
MODEL 3
REMARK VINA RESULT: -5.640426435      2.531      4.710
REMARK  1 active torsions:
REMARK  status: ('A' for Active; 'I' for Inactive)
REMARK       I    between atoms: C2_4  and  N3_6 
REMARK    1  A    between atoms: N3_6  and  C3_8 
ROOT
HETATM    1  C3  UNL     1      30.268  66.218   8.033  1.00  0.00     0.705 A 
HETATM    2  N4  UNL     1      31.447  66.373   8.657  1.00  0.00    -0.138 N 
ATOM      3  H4  UNL     1      31.667  66.103   9.616  1.00  0.00     0.189 HD
HETATM    4  C4  UNL     1      32.291  66.960   7.765  1.00  0.00     0.353 A 
HETATM    5  O1  UNL     1      33.479  67.253   8.009  1.00  0.00    -0.245 OA
HETATM    6  N5  UNL     1      31.577  67.135   6.629  1.00  0.00    -0.235 N 
ATOM      7  H5  UNL     1      31.939  67.555   5.771  1.00  0.00     0.192 HD
HETATM    8  N6  UNL     1      30.356  66.689   6.787  1.00  0.00    -0.124 N 
HETATM    9  C5  UNL     1      29.298  66.697   5.814  1.00  0.00     0.197 C 
ENDROOT
BRANCH   1  10
HETATM   10  N3  UNL     1      29.226  65.697   8.561  1.00  0.00    -0.162 N 
HETATM   11  C2  UNL     1      28.413  66.387   9.500  1.00  0.00     0.202 C 
HETATM   12  N1  UNL     1      27.172  66.562   9.218  1.00  0.00    -0.368 N 
HETATM   13  N2  UNL     1      28.902  66.890  10.729  1.00  0.00    -0.063 NA
HETATM   14  C1  UNL     1      26.615  66.071   7.976  1.00  0.00     0.148 C 
ATOM     15  H1  UNL     1      26.571  67.055   9.878  1.00  0.00     0.161 HD
ATOM     16  H3  UNL     1      28.969  64.746   8.297  1.00  0.00     0.187 HD
ENDBRANCH   1  10
TORSDOF 1
ENDMDL
MODEL 4
REMARK VINA RESULT: -5.559785339      2.387      3.323
REMARK  1 active torsions:
REMARK  status: ('A' for Active; 'I' for Inactive)
REMARK       I    between atoms: C2_4  and  N3_6 
REMARK    1  A    between atoms: N3_6  and  C3_8 
ROOT
HETATM    1  C3  UNL     1      29.159  66.056   9.865  1.00  0.00     0.705 A 
HETATM    2  N4  UNL     1      29.798  65.497  10.905  1.00  0.00    -0.138 N 
ATOM      3  H4  UNL     1      30.781  65.618  11.152  1.00  0.00     0.189 HD
HETATM    4  C4  UNL     1      28.883  64.738  11.568  1.00  0.00     0.353 A 
HETATM    5  O1  UNL     1      29.133  64.071  12.593  1.00  0.00    -0.245 OA
HETATM    6  N5  UNL     1      27.719  64.873  10.892  1.00  0.00    -0.235 N 
ATOM      7  H5  UNL     1      26.840  64.421  11.146  1.00  0.00     0.192 HD
HETATM    8  N6  UNL     1      27.882  65.668   9.864  1.00  0.00    -0.124 N 
HETATM    9  C5  UNL     1      26.885  66.059   8.904  1.00  0.00     0.197 C 
ENDROOT
BRANCH   1  10
HETATM   10  N3  UNL     1      29.701  66.840   9.012  1.00  0.00    -0.162 N 
HETATM   11  C2  UNL     1      31.003  66.623   8.487  1.00  0.00     0.202 C 
HETATM   12  N1  UNL     1      31.134  66.492   7.216  1.00  0.00    -0.368 N 
HETATM   13  N2  UNL     1      32.163  66.544   9.296  1.00  0.00    -0.063 NA
HETATM   14  C1  UNL     1      29.985  66.563   6.339  1.00  0.00     0.148 C 
ATOM     15  H1  UNL     1      32.060  66.336   6.820  1.00  0.00     0.161 HD
ATOM     16  H3  UNL     1      29.177  67.655   8.696  1.00  0.00     0.187 HD
ENDBRANCH   1  10
TORSDOF 1
ENDMDL
MODEL 5
REMARK VINA RESULT: -5.499770266      2.540      4.159
REMARK  1 active torsions:
REMARK  status: ('A' for Active; 'I' for Inactive)
REMARK       I    between atoms: C2_4  and  N3_6 
REMARK    1  A    between atoms: N3_6  and  C3_8 
ROOT
HETATM    1  C3  UNL     1      29.794  66.593   8.919  1.00  0.00     0.705 A 
HETATM    2  N4  UNL     1      30.907  66.985   8.276  1.00  0.00    -0.138 N 
ATOM      3  H4  UNL     1      30.955  67.601   7.464  1.00  0.00     0.189 HD
HETATM    4  C4  UNL     1      31.957  66.403   8.916  1.00  0.00     0.353 A 
HETATM    5  O1  UNL     1      33.152  66.549   8.585  1.00  0.00    -0.245 OA
HETATM    6  N5  UNL     1      31.428  65.677   9.928  1.00  0.00    -0.235 N 
ATOM      7  H5  UNL     1      31.968  65.121  10.593  1.00  0.00     0.192 HD
HETATM    8  N6  UNL     1      30.123  65.789   9.932  1.00  0.00    -0.124 N 
HETATM    9  C5  UNL     1      29.203  65.171  10.848  1.00  0.00     0.197 C 
ENDROOT
BRANCH   1  10
HETATM   10  N3  UNL     1      28.607  66.943   8.600  1.00  0.00    -0.162 N 
HETATM   11  C2  UNL     1      27.987  66.545   7.385  1.00  0.00     0.202 C 
HETATM   12  N1  UNL     1      26.889  65.882   7.449  1.00  0.00    -0.368 N 
HETATM   13  N2  UNL     1      28.521  66.842   6.107  1.00  0.00    -0.063 NA
HETATM   14  C1  UNL     1      26.296  65.548   8.726  1.00  0.00     0.148 C 
ATOM     15  H1  UNL     1      26.429  65.586   6.589  1.00  0.00     0.161 HD
ATOM     16  H3  UNL     1      28.082  67.533   9.244  1.00  0.00     0.187 HD
ENDBRANCH   1  10
TORSDOF 1
ENDMDL
