MODEL 1
REMARK VINA RESULT: -5.999285184      0.000      0.000
REMARK  2 active torsions:
REMARK  status: ('A' for Active; 'I' for Inactive)
REMARK    1  A    between atoms: C2_2  and  C3_3 
REMARK    2  A    between atoms: C3_3  and  O1_4 
ROOT
HETATM    1  C3  UNL     1      27.648  66.139   8.135  1.00  0.00     0.163 C 
HETATM    2  N1  UNL     1      26.519  65.512   7.765  1.00  0.00    -0.275 N 
ATOM      3  H1  UNL     1      26.712  65.093   6.856  1.00  0.00     0.180 HD
HETATM    4  C4  UNL     1      25.243  65.192   8.064  1.00  0.00     0.183 C 
HETATM    5  N2  UNL     1      24.135  64.982   8.354  1.00  0.00    -0.172 NA
ENDROOT
BRANCH   1   6
HETATM    6  C2  UNL     1      28.919  66.028   7.367  1.00  0.00     0.178 C 
HETATM    7  C1  UNL     1      28.923  65.166   6.176  1.00  0.00     0.058 C 
HETATM    8  N3  UNL     1      29.425  67.415   7.099  1.00  0.00    -0.318 N 
HETATM    9  C5  UNL     1      30.823  67.293   6.998  1.00  0.00     0.324 C 
ATOM     10  H3  UNL     1      28.872  68.267   7.009  1.00  0.00     0.166 HD
HETATM   11  O2  UNL     1      31.549  68.088   6.311  1.00  0.00    -0.247 OA
HETATM   12  N4  UNL     1      31.260  66.127   7.778  1.00  0.00    -0.277 N 
HETATM   13  C6  UNL     1      30.029  65.613   8.307  1.00  0.00     0.262 C 
ATOM     14  H4  UNL     1      32.207  65.771   7.910  1.00  0.00     0.173 HD
HETATM   15  O3  UNL     1      29.920  64.939   9.337  1.00  0.00    -0.270 OA
ENDBRANCH   1   6
BRANCH   1  16
HETATM   16  O1  UNL     1      27.757  66.924   9.214  1.00  0.00    -0.347 OA
ATOM     17  H1  UNL     1      27.328  66.562   9.980  1.00  0.00     0.219 HD
ENDBRANCH   1  16
TORSDOF 2
ENDMDL
MODEL 2
REMARK VINA RESULT: -5.805506037      2.353      5.079
REMARK  2 active torsions:
REMARK  status: ('A' for Active; 'I' for Inactive)
REMARK    1  A    between atoms: C2_2  and  C3_3 
REMARK    2  A    between atoms: C3_3  and  O1_4 
ROOT
HETATM    1  C3  UNL     1      29.792  65.949   8.883  1.00  0.00     0.163 C 
HETATM    2  N1  UNL     1      30.916  66.684   8.894  1.00  0.00    -0.275 N 
ATOM      3  H1  UNL     1      30.710  67.509   9.458  1.00  0.00     0.180 HD
HETATM    4  C4  UNL     1      32.198  66.815   8.491  1.00  0.00     0.183 C 
HETATM    5  N2  UNL     1      33.283  66.896   8.078  1.00  0.00    -0.172 NA
ENDROOT
BRANCH   1   6
HETATM    6  C2  UNL     1      28.601  66.287   9.708  1.00  0.00     0.178 C 
HETATM    7  C1  UNL     1      28.756  67.327  10.737  1.00  0.00     0.058 C 
HETATM    8  N3  UNL     1      27.446  66.536   8.781  1.00  0.00    -0.318 N 
HETATM    9  C5  UNL     1      26.294  66.203   9.517  1.00  0.00     0.324 C 
ATOM     10  H3  UNL     1      27.488  66.876   7.821  1.00  0.00     0.166 HD
HETATM   11  O2  UNL     1      25.148  66.722   9.299  1.00  0.00    -0.247 OA
HETATM   12  N4  UNL     1      26.649  65.211  10.541  1.00  0.00    -0.277 N 
HETATM   13  C6  UNL     1      28.057  65.022  10.333  1.00  0.00     0.262 C 
ATOM     14  H4  UNL     1      26.043  64.766  11.231  1.00  0.00     0.173 HD
HETATM   15  O3  UNL     1      28.693  64.006  10.633  1.00  0.00    -0.270 OA
ENDBRANCH   1   6
BRANCH   1  16
HETATM   16  O1  UNL     1      29.617  64.850   8.138  1.00  0.00    -0.347 OA
ATOM     17  H1  UNL     1      30.435  64.438   7.888  1.00  0.00     0.219 HD
ENDBRANCH   1  16
TORSDOF 2
ENDMDL
MODEL 3
REMARK VINA RESULT: -5.789678379      3.276      3.747
REMARK  2 active torsions:
REMARK  status: ('A' for Active; 'I' for Inactive)
REMARK    1  A    between atoms: C2_2  and  C3_3 
REMARK    2  A    between atoms: C3_3  and  O1_4 
ROOT
HETATM    1  C3  UNL     1      28.385  64.972  10.551  1.00  0.00     0.163 C 
HETATM    2  N1  UNL     1      28.694  64.226  11.625  1.00  0.00    -0.275 N 
ATOM      3  H1  UNL     1      29.664  64.447  11.854  1.00  0.00     0.180 HD
HETATM    4  C4  UNL     1      28.291  63.315  12.535  1.00  0.00     0.183 C 
HETATM    5  N2  UNL     1      27.902  62.498  13.267  1.00  0.00    -0.172 NA
ENDROOT
BRANCH   1   6
HETATM    6  C2  UNL     1      29.302  66.006   9.999  1.00  0.00     0.178 C 
HETATM    7  C1  UNL     1      28.988  67.415  10.276  1.00  0.00     0.058 C 
HETATM    8  N3  UNL     1      30.708  65.628  10.365  1.00  0.00    -0.318 N 
HETATM    9  C5  UNL     1      31.521  66.172   9.353  1.00  0.00     0.324 C 
ATOM     10  H3  UNL     1      31.011  65.089  11.176  1.00  0.00     0.166 HD
HETATM   11  O2  UNL     1      32.740  66.505   9.536  1.00  0.00    -0.247 OA
HETATM   12  N4  UNL     1      30.733  66.294   8.119  1.00  0.00    -0.277 N 
HETATM   13  C6  UNL     1      29.445  65.794   8.507  1.00  0.00     0.262 C 
ATOM     14  H4  UNL     1      31.029  66.648   7.209  1.00  0.00     0.173 HD
HETATM   15  O3  UNL     1      28.610  65.298   7.743  1.00  0.00    -0.270 OA
ENDBRANCH   1   6
BRANCH   1  16
HETATM   16  O1  UNL     1      27.240  64.868   9.865  1.00  0.00    -0.347 OA
ATOM     17  H1  UNL     1      26.635  65.578  10.047  1.00  0.00     0.219 HD
ENDBRANCH   1  16
TORSDOF 2
ENDMDL
MODEL 4
REMARK VINA RESULT: -5.787227913      2.488      3.247
REMARK  2 active torsions:
REMARK  status: ('A' for Active; 'I' for Inactive)
REMARK    1  A    between atoms: C2_2  and  C3_3 
REMARK    2  A    between atoms: C3_3  and  O1_4 
ROOT
HETATM    1  C3  UNL     1      29.196  64.954   9.765  1.00  0.00     0.163 C 
HETATM    2  N1  UNL     1      28.364  64.697  10.788  1.00  0.00    -0.275 N 
ATOM      3  H1  UNL     1      27.858  65.564  10.967  1.00  0.00     0.180 HD
HETATM    4  C4  UNL     1      27.901  63.800  11.683  1.00  0.00     0.183 C 
HETATM    5  N2  UNL     1      27.570  62.998  12.458  1.00  0.00    -0.172 NA
ENDROOT
BRANCH   1   6
HETATM    6  C2  UNL     1      29.172  66.237   9.011  1.00  0.00     0.178 C 
HETATM    7  C1  UNL     1      28.991  67.478   9.779  1.00  0.00     0.058 C 
HETATM    8  N3  UNL     1      30.370  66.269   8.106  1.00  0.00    -0.318 N 
HETATM    9  C5  UNL     1      29.997  67.077   7.015  1.00  0.00     0.324 C 
ATOM     10  H3  UNL     1      31.265  65.804   8.250  1.00  0.00     0.166 HD
HETATM   11  O2  UNL     1      30.833  67.742   6.317  1.00  0.00    -0.247 OA
HETATM   12  N4  UNL     1      28.537  67.023   6.857  1.00  0.00    -0.277 N 
HETATM   13  C6  UNL     1      28.128  66.149   7.920  1.00  0.00     0.262 C 
ATOM     14  H4  UNL     1      27.956  67.492   6.161  1.00  0.00     0.173 HD
HETATM   15  O3  UNL     1      27.097  65.470   7.930  1.00  0.00    -0.270 OA
ENDBRANCH   1   6
BRANCH   1  16
HETATM   16  O1  UNL     1      30.129  64.103   9.319  1.00  0.00    -0.347 OA
ATOM     17  H1  UNL     1      29.793  63.491   8.675  1.00  0.00     0.219 HD
ENDBRANCH   1  16
TORSDOF 2
ENDMDL
MODEL 5
REMARK VINA RESULT: -5.771253891      1.627      1.775
REMARK  2 active torsions:
REMARK  status: ('A' for Active; 'I' for Inactive)
REMARK    1  A    between atoms: C2_2  and  C3_3 
REMARK    2  A    between atoms: C3_3  and  O1_4 
ROOT
HETATM    1  C3  UNL     1      27.622  66.032   8.222  1.00  0.00     0.163 C 
HETATM    2  N1  UNL     1      27.565  66.601   9.437  1.00  0.00    -0.275 N 
ATOM      3  H1  UNL     1      28.527  66.827   9.691  1.00  0.00     0.180 HD
HETATM    4  C4  UNL     1      26.799  67.008  10.472  1.00  0.00     0.183 C 
HETATM    5  N2  UNL     1      26.094  67.300  11.351  1.00  0.00    -0.172 NA
ENDROOT
BRANCH   1   6
HETATM    6  C2  UNL     1      28.878  65.955   7.427  1.00  0.00     0.178 C 
HETATM    7  C1  UNL     1      28.883  65.088   6.240  1.00  0.00     0.058 C 
HETATM    8  N3  UNL     1      29.336  67.356   7.141  1.00  0.00    -0.318 N 
HETATM    9  C5  UNL     1      30.735  67.276   7.010  1.00  0.00     0.324 C 
ATOM     10  H3  UNL     1      28.756  68.191   7.059  1.00  0.00     0.166 HD
HETATM   11  O2  UNL     1      31.421  68.089   6.304  1.00  0.00    -0.247 OA
HETATM   12  N4  UNL     1      31.224  66.129   7.785  1.00  0.00    -0.277 N 
HETATM   13  C6  UNL     1      30.021  65.580   8.344  1.00  0.00     0.262 C 
ATOM     14  H4  UNL     1      32.184  65.802   7.899  1.00  0.00     0.173 HD
HETATM   15  O3  UNL     1      29.955  64.909   9.380  1.00  0.00    -0.270 OA
ENDBRANCH   1   6
BRANCH   1  16
HETATM   16  O1  UNL     1      26.576  65.474   7.600  1.00  0.00    -0.347 OA
ATOM     17  H1  UNL     1      25.742  65.726   7.981  1.00  0.00     0.219 HD
ENDBRANCH   1  16
TORSDOF 2
ENDMDL
