MODEL 1
REMARK VINA RESULT: -6.103466117      0.000      0.000
REMARK  0 active torsions:
REMARK  status: ('A' for Active; 'I' for Inactive)
ROOT
HETATM    1  C1  UNL     1      32.725  67.003   8.072  1.00  0.00     0.064 C 
HETATM    2  C2  UNL     1      31.428  66.755   8.284  1.00  0.00     0.114 C 
HETATM    3  N1  UNL     1      30.522  67.128   7.252  1.00  0.00    -0.305 N 
ATOM      4  H1  UNL     1      30.905  67.733   6.526  1.00  0.00     0.170 HD
HETATM    5  C3  UNL     1      29.139  66.765   7.097  1.00  0.00     0.315 C 
HETATM    6  O1  UNL     1      28.577  67.216   6.065  1.00  0.00    -0.262 OA
HETATM    7  C4  UNL     1      28.268  65.951   7.943  1.00  0.00     0.328 C 
HETATM    8  O2  UNL     1      27.155  65.579   7.477  1.00  0.00    -0.261 OA
HETATM    9  N2  UNL     1      28.603  65.548   9.279  1.00  0.00    -0.151 N 
ATOM     10  H2  UNL     1      27.861  65.055   9.776  1.00  0.00     0.188 HD
HETATM   11  C5  UNL     1      29.804  65.723  10.023  1.00  0.00     0.682 C 
HETATM   12  N3  UNL     1      29.782  65.486  11.291  1.00  0.00    -0.230 N 
ATOM     13  H3  UNL     1      30.651  65.618  11.807  1.00  0.00     0.177 HD
HETATM   14  C6  UNL     1      28.642  65.057  12.030  1.00  0.00     0.165 C 
HETATM   15  N4  UNL     1      31.069  66.143   9.518  1.00  0.00    -0.177 N 
ATOM     16  H4  UNL     1      31.852  65.976  10.149  1.00  0.00     0.185 HD
ENDROOT
TORSDOF 0
ENDMDL
MODEL 2
REMARK VINA RESULT: -5.860340998      1.647      1.879
REMARK  0 active torsions:
REMARK  status: ('A' for Active; 'I' for Inactive)
ROOT
HETATM    1  C1  UNL     1      32.840  66.085   9.825  1.00  0.00     0.064 C 
HETATM    2  C2  UNL     1      31.699  66.447   9.227  1.00  0.00     0.114 C 
HETATM    3  N1  UNL     1      31.793  66.906   7.883  1.00  0.00    -0.305 N 
ATOM      4  H1  UNL     1      32.735  67.113   7.551  1.00  0.00     0.170 HD
HETATM    5  C3  UNL     1      30.736  67.116   6.931  1.00  0.00     0.315 C 
HETATM    6  O1  UNL     1      31.106  67.503   5.792  1.00  0.00    -0.262 OA
HETATM    7  C4  UNL     1      29.289  66.954   7.064  1.00  0.00     0.328 C 
HETATM    8  O2  UNL     1      28.584  66.973   6.017  1.00  0.00    -0.261 OA
HETATM    9  N2  UNL     1      28.618  66.773   8.319  1.00  0.00    -0.151 N 
ATOM     10  H2  UNL     1      27.600  66.759   8.262  1.00  0.00     0.188 HD
HETATM   11  C5  UNL     1      29.143  66.608   9.633  1.00  0.00     0.682 C 
HETATM   12  N3  UNL     1      28.336  66.705  10.634  1.00  0.00    -0.230 N 
ATOM     13  H3  UNL     1      28.731  66.586  11.567  1.00  0.00     0.177 HD
HETATM   14  C6  UNL     1      26.939  66.966  10.545  1.00  0.00     0.165 C 
HETATM   15  N4  UNL     1      30.499  66.342   9.984  1.00  0.00    -0.177 N 
ATOM     16  H4  UNL     1      30.631  66.022  10.943  1.00  0.00     0.185 HD
ENDROOT
TORSDOF 0
ENDMDL
MODEL 3
REMARK VINA RESULT: -5.601615316      2.636      3.686
REMARK  0 active torsions:
REMARK  status: ('A' for Active; 'I' for Inactive)
ROOT
HETATM    1  C1  UNL     1      29.343  66.670   5.898  1.00  0.00     0.064 C 
HETATM    2  C2  UNL     1      28.958  66.242   7.106  1.00  0.00     0.114 C 
HETATM    3  N1  UNL     1      29.978  65.765   7.976  1.00  0.00    -0.305 N 
ATOM      4  H1  UNL     1      30.887  65.599   7.543  1.00  0.00     0.170 HD
HETATM    5  C3  UNL     1      29.898  65.486   9.385  1.00  0.00     0.315 C 
HETATM    6  O1  UNL     1      30.970  65.098   9.918  1.00  0.00    -0.262 OA
HETATM    7  C4  UNL     1      28.771  65.579  10.311  1.00  0.00     0.328 C 
HETATM    8  O2  UNL     1      29.004  65.508  11.550  1.00  0.00    -0.261 OA
HETATM    9  N2  UNL     1      27.408  65.749   9.895  1.00  0.00    -0.151 N 
ATOM     10  H2  UNL     1      26.722  65.712  10.649  1.00  0.00     0.188 HD
HETATM   11  C5  UNL     1      26.857  65.962   8.599  1.00  0.00     0.682 C 
HETATM   12  N3  UNL     1      25.582  65.842   8.447  1.00  0.00    -0.230 N 
ATOM     13  H3  UNL     1      25.206  65.998   7.511  1.00  0.00     0.177 HD
HETATM   14  C6  UNL     1      24.655  65.511   9.476  1.00  0.00     0.165 C 
HETATM   15  N4  UNL     1      27.570  66.300   7.412  1.00  0.00    -0.177 N 
ATOM     16  H4  UNL     1      26.984  66.644   6.652  1.00  0.00     0.185 HD
ENDROOT
TORSDOF 0
ENDMDL
MODEL 4
REMARK VINA RESULT: -5.562301501      1.750      1.753
REMARK  0 active torsions:
REMARK  status: ('A' for Active; 'I' for Inactive)
ROOT
HETATM    1  C1  UNL     1      32.387  66.202   9.575  1.00  0.00     0.064 C 
HETATM    2  C2  UNL     1      31.089  66.351   9.286  1.00  0.00     0.114 C 
HETATM    3  N1  UNL     1      30.677  66.000   7.970  1.00  0.00    -0.305 N 
ATOM      4  H1  UNL     1      31.428  65.857   7.295  1.00  0.00     0.170 HD
HETATM    5  C3  UNL     1      29.342  65.821   7.465  1.00  0.00     0.315 C 
HETATM    6  O1  UNL     1      29.266  65.479   6.257  1.00  0.00    -0.262 OA
HETATM    7  C4  UNL     1      28.047  65.969   8.126  1.00  0.00     0.328 C 
HETATM    8  O2  UNL     1      27.020  65.528   7.540  1.00  0.00    -0.261 OA
HETATM    9  N2  UNL     1      27.872  66.588   9.409  1.00  0.00    -0.151 N 
ATOM     10  H2  UNL     1      26.901  66.695   9.703  1.00  0.00     0.188 HD
HETATM   11  C5  UNL     1      28.833  67.077  10.339  1.00  0.00     0.682 C 
HETATM   12  N3  UNL     1      28.424  67.812  11.316  1.00  0.00    -0.230 N 
ATOM     13  H3  UNL     1      29.128  68.153  11.971  1.00  0.00     0.177 HD
HETATM   14  C6  UNL     1      27.072  68.186  11.557  1.00  0.00     0.165 C 
HETATM   15  N4  UNL     1      30.239  66.845  10.315  1.00  0.00    -0.177 N 
ATOM     16  H4  UNL     1      30.719  67.072  11.186  1.00  0.00     0.185 HD
ENDROOT
TORSDOF 0
ENDMDL
MODEL 5
REMARK VINA RESULT: -5.554417123      2.661      4.363
REMARK  0 active torsions:
REMARK  status: ('A' for Active; 'I' for Inactive)
ROOT
HETATM    1  C1  UNL     1      26.659  66.093   7.625  1.00  0.00     0.064 C 
HETATM    2  C2  UNL     1      27.496  65.938   8.657  1.00  0.00     0.114 C 
HETATM    3  N1  UNL     1      26.912  65.683   9.929  1.00  0.00    -0.305 N 
ATOM      4  H1  UNL     1      25.906  65.837   9.993  1.00  0.00     0.170 HD
HETATM    5  C3  UNL     1      27.552  65.236  11.137  1.00  0.00     0.315 C 
HETATM    6  O1  UNL     1      26.785  65.061  12.119  1.00  0.00    -0.262 OA
HETATM    7  C4  UNL     1      28.957  64.946  11.419  1.00  0.00     0.328 C 
HETATM    8  O2  UNL     1      29.242  64.341  12.489  1.00  0.00    -0.261 OA
HETATM    9  N2  UNL     1      30.037  65.310  10.547  1.00  0.00    -0.151 N 
ATOM     10  H2  UNL     1      30.968  65.118  10.916  1.00  0.00     0.188 HD
HETATM   11  C5  UNL     1      30.020  65.895   9.249  1.00  0.00     0.682 C 
HETATM   12  N3  UNL     1      31.126  66.352   8.766  1.00  0.00    -0.230 N 
ATOM     13  H3  UNL     1      31.094  66.768   7.836  1.00  0.00     0.177 HD
HETATM   14  C6  UNL     1      32.387  66.323   9.425  1.00  0.00     0.165 C 
HETATM   15  N4  UNL     1      28.890  66.043   8.393  1.00  0.00    -0.177 N 
ATOM     16  H4  UNL     1      29.121  66.261   7.424  1.00  0.00     0.185 HD
ENDROOT
TORSDOF 0
ENDMDL
