MODEL 1
REMARK VINA RESULT: -7.336848766      0.000      0.000
REMARK  18 active torsions:
REMARK  status: ('A' for Active; 'I' for Inactive)
REMARK    1  A    between atoms: C2_2  and  C3_3 
REMARK    2  A    between atoms: C3_3  and  C4_4 
REMARK    3  A    between atoms: C4_4  and  C5_5 
REMARK    4  A    between atoms: C6_8  and  O1_9 
REMARK    5  A    between atoms: C7_11  and  C8_12 
REMARK    6  A    between atoms: C8_12  and  C9_13 
REMARK    7  A    between atoms: C10_18  and  O4_19 
REMARK    8  A    between atoms: C11_21  and  C12_22 
REMARK    9  A    between atoms: C12_22  and  C13_23 
REMARK   10  A    between atoms: C17_28  and  O5_29 
REMARK   11  A    between atoms: C18_31  and  C19_32 
REMARK   12  A    between atoms: C19_32  and  C21_34 
REMARK   13  A    between atoms: C23_38  and  O6_39 
REMARK   14  A    between atoms: C24_41  and  C25_42 
REMARK   15  A    between atoms: C28_47  and  O7_48 
REMARK   16  A    between atoms: C29_50  and  C30_51 
REMARK   17  A    between atoms: C30_51  and  C31_52 
REMARK   18  A    between atoms: C34_57  and  O8_58 
ROOT
HETATM    1  C5  UNL     1      19.981  -0.403   8.705  1.00  0.00     0.158 C 
HETATM    2  N1  UNL     1      18.772  -0.949   8.207  1.00  0.00    -0.361 N 
ATOM      3  H1  UNL     1      17.962  -0.697   8.774  1.00  0.00     0.162 HD
HETATM    4  C6  UNL     1      18.442  -1.742   7.130  1.00  0.00     0.136 C 
HETATM    5  C7  UNL     1      18.685  -1.850   5.732  1.00  0.00     0.167 C 
HETATM    6  N2  UNL     1      17.368  -1.975   5.049  1.00  0.00    -0.360 N 
ATOM      7  H2  UNL     1      16.730  -1.182   5.124  1.00  0.00     0.162 HD
HETATM    8  C10 UNL     1      16.922  -3.085   4.310  1.00  0.00     0.135 C 
HETATM    9  C11 UNL     1      16.599  -4.448   4.791  1.00  0.00     0.160 C 
HETATM   10  N3  UNL     1      17.762  -5.296   5.001  1.00  0.00    -0.352 N 
HETATM   11  C16 UNL     1      18.583  -5.299   3.746  1.00  0.00     0.152 C 
HETATM   12  C17 UNL     1      18.173  -6.021   6.114  1.00  0.00     0.166 C 
HETATM   13  C18 UNL     1      17.751  -7.097   6.959  1.00  0.00     0.087 C 
HETATM   14  N4  UNL     1      18.212  -7.093   8.338  1.00  0.00    -0.335 N 
ATOM     15  H4  UNL     1      18.152  -8.034   8.726  1.00  0.00     0.168 HD
HETATM   16  C23 UNL     1      18.695  -6.241   9.273  1.00  0.00     0.139 C 
HETATM   17  C24 UNL     1      18.117  -5.239  10.215  1.00  0.00     0.161 C 
HETATM   18  N5  UNL     1      19.119  -4.675  11.115  1.00  0.00    -0.357 N 
ATOM     19  H5  UNL     1      19.556  -5.397  11.687  1.00  0.00     0.162 HD
HETATM   20  C28 UNL     1      19.627  -3.440  11.396  1.00  0.00     0.159 C 
HETATM   21  C29 UNL     1      19.207  -2.162  11.923  1.00  0.00     0.062 C 
HETATM   22  N6  UNL     1      19.626  -0.954  11.257  1.00  0.00    -0.339 N 
ATOM     23  H6  UNL     1      19.329  -0.131  11.780  1.00  0.00     0.167 HD
HETATM   24  C34 UNL     1      20.307  -0.591  10.128  1.00  0.00     0.139 C 
ENDROOT
BRANCH   1  25
HETATM   25  C4  UNL     1      19.834   1.115   8.438  1.00  0.00     0.033 C 
BRANCH  25  26
HETATM   26  C3  UNL     1      18.478   1.647   8.698  1.00  0.00     0.002 C 
BRANCH  26  27
HETATM   27  C2  UNL     1      18.659   2.747   9.769  1.00  0.00    -0.004 C 
HETATM   28  C1  UNL     1      17.772   2.422  10.969  1.00  0.00     0.005 C 
ENDBRANCH  26  27
ENDBRANCH  25  26
ENDBRANCH   1  25
BRANCH  24  29
HETATM   29  O8  UNL     1      21.584  -0.327  10.305  1.00  0.00    -0.348 OA
ATOM     30  H8  UNL     1      21.670   0.284  11.028  1.00  0.00     0.219 HD
ENDBRANCH  24  29
BRANCH   4  31
HETATM   31  O1  UNL     1      17.629  -2.729   7.517  1.00  0.00    -0.348 OA
ATOM     32  H1  UNL     1      16.945  -2.863   6.872  1.00  0.00     0.219 HD
ENDBRANCH   4  31
BRANCH   5  33
HETATM   33  C8  UNL     1      19.532  -0.997   4.906  1.00  0.00     0.146 C 
BRANCH  33  34
HETATM   34  C9  UNL     1      19.058   0.345   4.535  1.00  0.00     0.174 C 
HETATM   35  O2  UNL     1      19.311   1.408   5.159  1.00  0.00    -0.648 OA
HETATM   36  O3  UNL     1      18.251   0.518   3.401  1.00  0.00    -0.648 OA
ENDBRANCH  33  34
ENDBRANCH   5  33
BRANCH  21  37
HETATM   37  C30 UNL     1      18.017  -1.941  12.758  1.00  0.00     0.065 C 
BRANCH  37  38
HETATM   38  C31 UNL     1      18.191  -1.358  14.115  1.00  0.00    -0.017 C 
HETATM   39  C32 UNL     1      17.726   0.132  14.019  1.00  0.00     0.010 C 
HETATM   40  C33 UNL     1      19.493  -1.303  14.771  1.00  0.00     0.010 C 
ENDBRANCH  37  38
ENDBRANCH  21  37
BRANCH  20  41
HETATM   41  O7  UNL     1      20.915  -3.350  11.100  1.00  0.00    -0.345 OA
ATOM     42  H7  UNL     1      21.362  -2.705  11.635  1.00  0.00     0.219 HD
ENDBRANCH  20  41
BRANCH   8  43
HETATM   43  O4  UNL     1      16.796  -2.821   3.033  1.00  0.00    -0.348 OA
ATOM     44  H4  UNL     1      16.677  -3.605   2.509  1.00  0.00     0.219 HD
ENDBRANCH   8  43
BRANCH   9  45
HETATM   45  C12 UNL     1      15.658  -5.134   3.836  1.00  0.00     0.037 C 
BRANCH  45  46
HETATM   46  C13 UNL     1      14.994  -6.371   4.220  1.00  0.00    -0.020 C 
HETATM   47  C14 UNL     1      13.554  -6.541   4.380  1.00  0.00     0.009 C 
HETATM   48  C15 UNL     1      15.431  -7.441   3.165  1.00  0.00     0.009 C 
ENDBRANCH  45  46
ENDBRANCH   9  45
BRANCH  17  49
HETATM   49  C25 UNL     1      17.158  -5.933  11.218  1.00  0.00     0.008 C 
HETATM   50  C26 UNL     1      17.731  -6.169  12.552  1.00  0.00     0.012 C 
HETATM   51  C27 UNL     1      15.933  -5.039  11.396  1.00  0.00     0.012 C 
ENDBRANCH  17  49
BRANCH  16  52
HETATM   52  O6  UNL     1      20.003  -6.270   9.429  1.00  0.00    -0.348 OA
ATOM     53  H6  UNL     1      20.340  -7.060   9.836  1.00  0.00     0.219 HD
ENDBRANCH  16  52
BRANCH  12  54
HETATM   54  O5  UNL     1      19.347  -5.594   6.552  1.00  0.00    -0.344 OA
ATOM     55  H5  UNL     1      19.565  -5.992   7.387  1.00  0.00     0.219 HD
ENDBRANCH  12  54
BRANCH  13  56
HETATM   56  C19 UNL     1      16.457  -7.798   6.850  1.00  0.00    -0.053 C 
HETATM   57  C20 UNL     1      16.377  -9.190   6.389  1.00  0.00     0.046 C 
BRANCH  56  58
HETATM   58  C21 UNL     1      15.519  -7.525   8.036  1.00  0.00     0.031 C 
HETATM   59  C22 UNL     1      14.858  -6.168   7.895  1.00  0.00     0.010 C 
ENDBRANCH  56  58
ENDBRANCH  13  56
TORSDOF 18
ENDMDL
MODEL 2
REMARK VINA RESULT: -6.839764724      5.590     12.773
REMARK  18 active torsions:
REMARK  status: ('A' for Active; 'I' for Inactive)
REMARK    1  A    between atoms: C2_2  and  C3_3 
REMARK    2  A    between atoms: C3_3  and  C4_4 
REMARK    3  A    between atoms: C4_4  and  C5_5 
REMARK    4  A    between atoms: C6_8  and  O1_9 
REMARK    5  A    between atoms: C7_11  and  C8_12 
REMARK    6  A    between atoms: C8_12  and  C9_13 
REMARK    7  A    between atoms: C10_18  and  O4_19 
REMARK    8  A    between atoms: C11_21  and  C12_22 
REMARK    9  A    between atoms: C12_22  and  C13_23 
REMARK   10  A    between atoms: C17_28  and  O5_29 
REMARK   11  A    between atoms: C18_31  and  C19_32 
REMARK   12  A    between atoms: C19_32  and  C21_34 
REMARK   13  A    between atoms: C23_38  and  O6_39 
REMARK   14  A    between atoms: C24_41  and  C25_42 
REMARK   15  A    between atoms: C28_47  and  O7_48 
REMARK   16  A    between atoms: C29_50  and  C30_51 
REMARK   17  A    between atoms: C30_51  and  C31_52 
REMARK   18  A    between atoms: C34_57  and  O8_58 
ROOT
HETATM    1  C5  UNL     1      19.978   0.047  13.816  1.00  0.00     0.158 C 
HETATM    2  N1  UNL     1      18.799   0.534  14.432  1.00  0.00    -0.361 N 
ATOM      3  H1  UNL     1      17.968   0.396  13.857  1.00  0.00     0.162 HD
HETATM    4  C6  UNL     1      18.520   1.152  15.631  1.00  0.00     0.136 C 
HETATM    5  C7  UNL     1      18.803   1.028  17.020  1.00  0.00     0.167 C 
HETATM    6  N2  UNL     1      17.509   1.073  17.755  1.00  0.00    -0.360 N 
ATOM      7  H2  UNL     1      16.847   0.318  17.573  1.00  0.00     0.162 HD
HETATM    8  C10 UNL     1      17.114   2.060  18.675  1.00  0.00     0.135 C 
HETATM    9  C11 UNL     1      16.818   3.490  18.428  1.00  0.00     0.160 C 
HETATM   10  N3  UNL     1      17.999   4.333  18.321  1.00  0.00    -0.352 N 
HETATM   11  C16 UNL     1      18.852   4.115  19.534  1.00  0.00     0.152 C 
HETATM   12  C17 UNL     1      18.401   5.217  17.326  1.00  0.00     0.166 C 
HETATM   13  C18 UNL     1      17.987   6.425  16.677  1.00  0.00     0.087 C 
HETATM   14  N4  UNL     1      18.411   6.631  15.302  1.00  0.00    -0.335 N 
ATOM     15  H4  UNL     1      18.368   7.623  15.071  1.00  0.00     0.168 HD
HETATM   16  C23 UNL     1      18.845   5.929  14.228  1.00  0.00     0.139 C 
HETATM   17  C24 UNL     1      18.213   5.105  13.156  1.00  0.00     0.161 C 
HETATM   18  N5  UNL     1      19.175   4.669  12.147  1.00  0.00    -0.357 N 
ATOM     19  H5  UNL     1      19.617   5.463  11.685  1.00  0.00     0.162 HD
HETATM   20  C28 UNL     1      19.640   3.483  11.657  1.00  0.00     0.159 C 
HETATM   21  C29 UNL     1      19.170   2.317  10.945  1.00  0.00     0.062 C 
HETATM   22  N6  UNL     1      19.572   1.009  11.396  1.00  0.00    -0.339 N 
ATOM     23  H6  UNL     1      19.238   0.288  10.758  1.00  0.00     0.167 HD
HETATM   24  C34 UNL     1      20.272   0.453  12.431  1.00  0.00     0.139 C 
ENDROOT
BRANCH   1  25
HETATM   25  C4  UNL     1      19.796  -1.491  13.841  1.00  0.00     0.033 C 
BRANCH  25  26
HETATM   26  C3  UNL     1      18.586  -1.968  13.136  1.00  0.00     0.002 C 
BRANCH  26  27
HETATM   27  C2  UNL     1      19.084  -3.010  12.108  1.00  0.00    -0.004 C 
HETATM   28  C1  UNL     1      17.966  -4.013  11.836  1.00  0.00     0.005 C 
ENDBRANCH  26  27
ENDBRANCH  25  26
ENDBRANCH   1  25
BRANCH  24  29
HETATM   29  O8  UNL     1      21.536   0.190  12.176  1.00  0.00    -0.348 OA
ATOM     30  H8  UNL     1      21.601  -0.154  11.292  1.00  0.00     0.219 HD
ENDBRANCH  24  29
BRANCH   4  31
HETATM   31  O1  UNL     1      17.726   2.207  15.432  1.00  0.00    -0.348 OA
ATOM     32  H1  UNL     1      18.007   2.936  15.973  1.00  0.00     0.219 HD
ENDBRANCH   4  31
BRANCH   5  33
HETATM   33  C8  UNL     1      19.648   0.033  17.672  1.00  0.00     0.146 C 
BRANCH  33  34
HETATM   34  C9  UNL     1      19.398  -1.396  17.425  1.00  0.00     0.174 C 
HETATM   35  O2  UNL     1      20.140  -2.342  17.798  1.00  0.00    -0.648 OA
HETATM   36  O3  UNL     1      18.255  -1.799  16.721  1.00  0.00    -0.648 OA
ENDBRANCH  33  34
ENDBRANCH   5  33
BRANCH  21  37
HETATM   37  C30 UNL     1      17.953   2.262  10.123  1.00  0.00     0.065 C 
BRANCH  37  38
HETATM   38  C31 UNL     1      18.032   1.668   8.762  1.00  0.00    -0.017 C 
HETATM   39  C32 UNL     1      17.526   0.194   8.892  1.00  0.00     0.010 C 
HETATM   40  C33 UNL     1      19.294   1.569   8.036  1.00  0.00     0.010 C 
ENDBRANCH  37  38
ENDBRANCH  21  37
BRANCH  20  41
HETATM   41  O7  UNL     1      20.933   3.317  11.895  1.00  0.00    -0.345 OA
ATOM     42  H7  UNL     1      21.139   2.425  12.145  1.00  0.00     0.219 HD
ENDBRANCH  20  41
BRANCH   8  43
HETATM   43  O4  UNL     1      17.015   1.597  19.897  1.00  0.00    -0.348 OA
ATOM     44  H4  UNL     1      16.132   1.664  20.241  1.00  0.00     0.219 HD
ENDBRANCH   8  43
BRANCH   9  45
HETATM   45  C12 UNL     1      15.923   4.036  19.509  1.00  0.00     0.037 C 
BRANCH  45  46
HETATM   46  C13 UNL     1      15.511   5.432  19.487  1.00  0.00    -0.020 C 
HETATM   47  C14 UNL     1      14.135   5.904  19.384  1.00  0.00     0.009 C 
HETATM   48  C15 UNL     1      16.081   6.070  20.796  1.00  0.00     0.009 C 
ENDBRANCH  45  46
ENDBRANCH   9  45
BRANCH  17  49
HETATM   49  C25 UNL     1      17.248   5.974  12.307  1.00  0.00     0.008 C 
HETATM   50  C26 UNL     1      17.282   5.696  10.863  1.00  0.00     0.012 C 
HETATM   51  C27 UNL     1      15.825   5.711  12.791  1.00  0.00     0.012 C 
ENDBRANCH  17  49
BRANCH  16  52
HETATM   52  O6  UNL     1      20.148   5.952  14.039  1.00  0.00    -0.348 OA
ATOM     53  H6  UNL     1      20.447   6.574  13.385  1.00  0.00     0.219 HD
ENDBRANCH  16  52
BRANCH  12  54
HETATM   54  O5  UNL     1      19.550   4.838  16.789  1.00  0.00    -0.344 OA
ATOM     55  H5  UNL     1      19.435   4.590  15.879  1.00  0.00     0.219 HD
ENDBRANCH  12  54
BRANCH  13  56
HETATM   56  C19 UNL     1      16.717   7.130  16.936  1.00  0.00    -0.053 C 
HETATM   57  C20 UNL     1      16.674   8.584  17.132  1.00  0.00     0.046 C 
BRANCH  56  58
HETATM   58  C21 UNL     1      15.557   6.628  16.062  1.00  0.00     0.031 C 
HETATM   59  C22 UNL     1      14.590   7.755  15.757  1.00  0.00     0.010 C 
ENDBRANCH  56  58
ENDBRANCH  13  56
TORSDOF 18
ENDMDL
MODEL 3
REMARK VINA RESULT: -6.301012400      3.153      5.603
REMARK  18 active torsions:
REMARK  status: ('A' for Active; 'I' for Inactive)
REMARK    1  A    between atoms: C2_2  and  C3_3 
REMARK    2  A    between atoms: C3_3  and  C4_4 
REMARK    3  A    between atoms: C4_4  and  C5_5 
REMARK    4  A    between atoms: C6_8  and  O1_9 
REMARK    5  A    between atoms: C7_11  and  C8_12 
REMARK    6  A    between atoms: C8_12  and  C9_13 
REMARK    7  A    between atoms: C10_18  and  O4_19 
REMARK    8  A    between atoms: C11_21  and  C12_22 
REMARK    9  A    between atoms: C12_22  and  C13_23 
REMARK   10  A    between atoms: C17_28  and  O5_29 
REMARK   11  A    between atoms: C18_31  and  C19_32 
REMARK   12  A    between atoms: C19_32  and  C21_34 
REMARK   13  A    between atoms: C23_38  and  O6_39 
REMARK   14  A    between atoms: C24_41  and  C25_42 
REMARK   15  A    between atoms: C28_47  and  O7_48 
REMARK   16  A    between atoms: C29_50  and  C30_51 
REMARK   17  A    between atoms: C30_51  and  C31_52 
REMARK   18  A    between atoms: C34_57  and  O8_58 
ROOT
HETATM    1  C5  UNL     1      17.960  -3.292   4.499  1.00  0.00     0.158 C 
HETATM    2  N1  UNL     1      16.620  -3.707   4.298  1.00  0.00    -0.361 N 
ATOM      3  H1  UNL     1      15.989  -3.367   5.023  1.00  0.00     0.162 HD
HETATM    4  C6  UNL     1      15.977  -4.465   3.344  1.00  0.00     0.136 C 
HETATM    5  C7  UNL     1      15.888  -4.605   1.931  1.00  0.00     0.167 C 
HETATM    6  N2  UNL     1      14.446  -4.590   1.561  1.00  0.00    -0.360 N 
ATOM      7  H2  UNL     1      13.928  -3.733   1.753  1.00  0.00     0.162 HD
HETATM    8  C10 UNL     1      13.733  -5.649   0.971  1.00  0.00     0.135 C 
HETATM    9  C11 UNL     1      13.386  -6.968   1.550  1.00  0.00     0.160 C 
HETATM   10  N3  UNL     1      14.472  -7.935   1.521  1.00  0.00    -0.352 N 
HETATM   11  C16 UNL     1      14.986  -8.032   0.116  1.00  0.00     0.152 C 
HETATM   12  C17 UNL     1      15.045  -8.695   2.535  1.00  0.00     0.166 C 
HETATM   13  C18 UNL     1      14.712  -9.715   3.484  1.00  0.00     0.087 C 
HETATM   14  N4  UNL     1      15.468  -9.754   4.725  1.00  0.00    -0.335 N 
ATOM     15  H4  UNL     1      15.399 -10.682   5.143  1.00  0.00     0.168 HD
HETATM   16  C23 UNL     1      16.234  -8.955   5.504  1.00  0.00     0.139 C 
HETATM   17  C24 UNL     1      15.989  -7.893   6.522  1.00  0.00     0.161 C 
HETATM   18  N5  UNL     1      17.220  -7.435   7.161  1.00  0.00    -0.357 N 
ATOM     19  H5  UNL     1      17.697  -8.198   7.642  1.00  0.00     0.162 HD
HETATM   20  C28 UNL     1      17.904  -6.261   7.287  1.00  0.00     0.159 C 
HETATM   21  C29 UNL     1      17.748  -4.943   7.858  1.00  0.00     0.062 C 
HETATM   22  N6  UNL     1      18.131  -3.791   7.081  1.00  0.00    -0.339 N 
ATOM     23  H6  UNL     1      18.045  -2.938   7.633  1.00  0.00     0.167 HD
HETATM   24  C34 UNL     1      18.575  -3.508   5.819  1.00  0.00     0.139 C 
ENDROOT
BRANCH   1  25
HETATM   25  C4  UNL     1      17.916  -1.768   4.228  1.00  0.00     0.033 C 
BRANCH  25  26
HETATM   26  C3  UNL     1      17.107  -1.004   5.203  1.00  0.00     0.002 C 
BRANCH  26  27
HETATM   27  C2  UNL     1      18.003   0.171   5.659  1.00  0.00    -0.004 C 
HETATM   28  C1  UNL     1      19.298   0.151   4.852  1.00  0.00     0.005 C 
ENDBRANCH  26  27
ENDBRANCH  25  26
ENDBRANCH   1  25
BRANCH  24  29
HETATM   29  O8  UNL     1      19.880  -3.382   5.700  1.00  0.00    -0.348 OA
ATOM     30  H8  UNL     1      20.276  -3.511   6.554  1.00  0.00     0.219 HD
ENDBRANCH  24  29
BRANCH   4  31
HETATM   31  O1  UNL     1      15.174  -5.357   3.930  1.00  0.00    -0.348 OA
ATOM     32  H1  UNL     1      15.670  -6.123   4.192  1.00  0.00     0.219 HD
ENDBRANCH   4  31
BRANCH   5  33
HETATM   33  C8  UNL     1      16.613  -3.851   0.913  1.00  0.00     0.146 C 
BRANCH  33  34
HETATM   34  C9  UNL     1      17.176  -4.563  -0.245  1.00  0.00     0.174 C 
HETATM   35  O2  UNL     1      18.402  -4.698  -0.495  1.00  0.00    -0.648 OA
HETATM   36  O3  UNL     1      16.324  -5.163  -1.184  1.00  0.00    -0.648 OA
ENDBRANCH  33  34
ENDBRANCH   5  33
BRANCH  21  37
HETATM   37  C30 UNL     1      16.805  -4.592   8.929  1.00  0.00     0.065 C 
BRANCH  37  38
HETATM   38  C31 UNL     1      17.181  -4.879  10.339  1.00  0.00    -0.017 C 
HETATM   39  C32 UNL     1      18.612  -4.282  10.545  1.00  0.00     0.010 C 
HETATM   40  C33 UNL     1      17.265  -6.242  10.853  1.00  0.00     0.010 C 
ENDBRANCH  37  38
ENDBRANCH  21  37
BRANCH  20  41
HETATM   41  O7  UNL     1      19.095  -6.312   6.710  1.00  0.00    -0.345 OA
ATOM     42  H7  UNL     1      19.046  -6.166   5.773  1.00  0.00     0.219 HD
ENDBRANCH  20  41
BRANCH   8  43
HETATM   43  O4  UNL     1      13.353  -5.379  -0.253  1.00  0.00    -0.348 OA
ATOM     44  H4  UNL     1      13.236  -6.161  -0.780  1.00  0.00     0.219 HD
ENDBRANCH   8  43
BRANCH   9  45
HETATM   45  C12 UNL     1      12.189  -7.552   0.848  1.00  0.00     0.037 C 
BRANCH  45  46
HETATM   46  C13 UNL     1      10.844  -7.156   1.237  1.00  0.00    -0.020 C 
HETATM   47  C14 UNL     1       9.967  -6.279   0.467  1.00  0.00     0.009 C 
HETATM   48  C15 UNL     1      10.043  -8.485   1.436  1.00  0.00     0.009 C 
ENDBRANCH  45  46
ENDBRANCH   9  45
BRANCH  17  49
HETATM   49  C25 UNL     1      15.212  -8.475   7.733  1.00  0.00     0.008 C 
HETATM   50  C26 UNL     1      13.751  -8.512   7.564  1.00  0.00     0.012 C 
HETATM   51  C27 UNL     1      15.685  -9.909   7.953  1.00  0.00     0.012 C 
ENDBRANCH  17  49
BRANCH  16  52
HETATM   52  O6  UNL     1      17.533  -9.125   5.367  1.00  0.00    -0.348 OA
ATOM     53  H6  UNL     1      17.787  -9.760   4.708  1.00  0.00     0.219 HD
ENDBRANCH  16  52
BRANCH  12  54
HETATM   54  O5  UNL     1      16.325  -8.394   2.690  1.00  0.00    -0.344 OA
ATOM     55  H5  UNL     1      16.612  -8.573   3.578  1.00  0.00     0.219 HD
ENDBRANCH  12  54
BRANCH  13  56
HETATM   56  C19 UNL     1      13.361 -10.273   3.684  1.00  0.00    -0.053 C 
HETATM   57  C20 UNL     1      13.162 -11.605   4.270  1.00  0.00     0.046 C 
BRANCH  56  58
HETATM   58  C21 UNL     1      12.357  -9.244   4.227  1.00  0.00     0.031 C 
HETATM   59  C22 UNL     1      11.291  -9.926   5.062  1.00  0.00     0.010 C 
ENDBRANCH  56  58
ENDBRANCH  13  56
TORSDOF 18
ENDMDL
MODEL 4
REMARK VINA RESULT: -5.845615181      7.718     11.875
REMARK  18 active torsions:
REMARK  status: ('A' for Active; 'I' for Inactive)
REMARK    1  A    between atoms: C2_2  and  C3_3 
REMARK    2  A    between atoms: C3_3  and  C4_4 
REMARK    3  A    between atoms: C4_4  and  C5_5 
REMARK    4  A    between atoms: C6_8  and  O1_9 
REMARK    5  A    between atoms: C7_11  and  C8_12 
REMARK    6  A    between atoms: C8_12  and  C9_13 
REMARK    7  A    between atoms: C10_18  and  O4_19 
REMARK    8  A    between atoms: C11_21  and  C12_22 
REMARK    9  A    between atoms: C12_22  and  C13_23 
REMARK   10  A    between atoms: C17_28  and  O5_29 
REMARK   11  A    between atoms: C18_31  and  C19_32 
REMARK   12  A    between atoms: C19_32  and  C21_34 
REMARK   13  A    between atoms: C23_38  and  O6_39 
REMARK   14  A    between atoms: C24_41  and  C25_42 
REMARK   15  A    between atoms: C28_47  and  O7_48 
REMARK   16  A    between atoms: C29_50  and  C30_51 
REMARK   17  A    between atoms: C30_51  and  C31_52 
REMARK   18  A    between atoms: C34_57  and  O8_58 
ROOT
HETATM    1  C5  UNL     1      16.157   7.873  17.726  1.00  0.00     0.158 C 
HETATM    2  N1  UNL     1      15.772   6.869  16.805  1.00  0.00    -0.361 N 
ATOM      3  H1  UNL     1      14.908   6.398  17.073  1.00  0.00     0.162 HD
HETATM    4  C6  UNL     1      16.299   6.385  15.627  1.00  0.00     0.136 C 
HETATM    5  C7  UNL     1      16.839   6.849  14.395  1.00  0.00     0.167 C 
HETATM    6  N2  UNL     1      16.134   6.141  13.292  1.00  0.00    -0.360 N 
ATOM      7  H2  UNL     1      15.133   6.312  13.198  1.00  0.00     0.162 HD
HETATM    8  C10 UNL     1      16.720   5.257  12.369  1.00  0.00     0.135 C 
HETATM    9  C11 UNL     1      17.306   3.919  12.612  1.00  0.00     0.160 C 
HETATM   10  N3  UNL     1      18.657   3.949  13.151  1.00  0.00    -0.352 N 
HETATM   11  C16 UNL     1      19.506   4.805  12.260  1.00  0.00     0.152 C 
HETATM   12  C17 UNL     1      19.201   3.354  14.284  1.00  0.00     0.166 C 
HETATM   13  C18 UNL     1      19.445   2.063  14.853  1.00  0.00     0.087 C 
HETATM   14  N4  UNL     1      19.478   1.961  16.303  1.00  0.00    -0.335 N 
ATOM     15  H4  UNL     1      19.987   1.121  16.579  1.00  0.00     0.168 HD
HETATM   16  C23 UNL     1      19.051   2.621  17.404  1.00  0.00     0.139 C 
HETATM   17  C24 UNL     1      17.767   2.739  18.156  1.00  0.00     0.161 C 
HETATM   18  N5  UNL     1      17.908   3.517  19.385  1.00  0.00    -0.357 N 
ATOM     19  H5  UNL     1      18.583   3.092  20.020  1.00  0.00     0.162 HD
HETATM   20  C28 UNL     1      17.379   4.660  19.910  1.00  0.00     0.159 C 
HETATM   21  C29 UNL     1      16.110   5.195  20.348  1.00  0.00     0.062 C 
HETATM   22  N6  UNL     1      15.737   6.530  19.954  1.00  0.00    -0.339 N 
ATOM     23  H6  UNL     1      14.861   6.806  20.398  1.00  0.00     0.167 HD
HETATM   24  C34 UNL     1      16.214   7.534  19.158  1.00  0.00     0.139 C 
ENDROOT
BRANCH   1  25
HETATM   25  C4  UNL     1      15.089   8.978  17.533  1.00  0.00     0.033 C 
BRANCH  25  26
HETATM   26  C3  UNL     1      15.647  10.337  17.360  1.00  0.00     0.002 C 
BRANCH  26  27
HETATM   27  C2  UNL     1      15.045  10.872  16.041  1.00  0.00    -0.004 C 
HETATM   28  C1  UNL     1      13.969   9.903  15.557  1.00  0.00     0.005 C 
ENDBRANCH  26  27
ENDBRANCH  25  26
ENDBRANCH   1  25
BRANCH  24  29
HETATM   29  O8  UNL     1      16.905   8.464  19.783  1.00  0.00    -0.348 OA
ATOM     30  H8  UNL     1      17.829   8.254  19.712  1.00  0.00     0.219 HD
ENDBRANCH  24  29
BRANCH   4  31
HETATM   31  O1  UNL     1      16.305   5.050  15.639  1.00  0.00    -0.348 OA
ATOM     32  H1  UNL     1      15.800   4.726  16.376  1.00  0.00     0.219 HD
ENDBRANCH   4  31
BRANCH   5  33
HETATM   33  C8  UNL     1      17.041   8.232  13.975  1.00  0.00     0.146 C 
BRANCH  33  34
HETATM   34  C9  UNL     1      17.891   9.114  14.790  1.00  0.00     0.174 C 
HETATM   35  O2  UNL     1      18.317   8.855  15.945  1.00  0.00    -0.648 OA
HETATM   36  O3  UNL     1      18.291  10.362  14.291  1.00  0.00    -0.648 OA
ENDBRANCH  33  34
ENDBRANCH   5  33
BRANCH  21  37
HETATM   37  C30 UNL     1      14.941   4.391  20.733  1.00  0.00     0.065 C 
BRANCH  37  38
HETATM   38  C31 UNL     1      14.328   4.611  22.070  1.00  0.00    -0.017 C 
HETATM   39  C32 UNL     1      13.132   5.594  21.851  1.00  0.00     0.010 C 
HETATM   40  C33 UNL     1      15.083   5.181  23.181  1.00  0.00     0.010 C 
ENDBRANCH  37  38
ENDBRANCH  21  37
BRANCH  20  41
HETATM   41  O7  UNL     1      18.295   5.600  20.084  1.00  0.00    -0.345 OA
ATOM     42  H7  UNL     1      18.402   6.144  19.313  1.00  0.00     0.219 HD
ENDBRANCH  20  41
BRANCH   8  43
HETATM   43  O4  UNL     1      16.723   5.735  11.148  1.00  0.00    -0.348 OA
ATOM     44  H4  UNL     1      17.446   5.401  10.629  1.00  0.00     0.219 HD
ENDBRANCH   8  43
BRANCH   9  45
HETATM   45  C12 UNL     1      17.301   3.105  11.345  1.00  0.00     0.037 C 
BRANCH  45  46
HETATM   46  C13 UNL     1      17.782   1.731  11.353  1.00  0.00    -0.020 C 
HETATM   47  C14 UNL     1      16.951   0.545  11.182  1.00  0.00     0.009 C 
HETATM   48  C15 UNL     1      18.871   1.649  10.232  1.00  0.00     0.009 C 
ENDBRANCH  45  46
ENDBRANCH   9  45
BRANCH  17  49
HETATM   49  C25 UNL     1      17.341   1.355  18.715  1.00  0.00     0.008 C 
HETATM   50  C26 UNL     1      16.418   0.603  17.852  1.00  0.00     0.012 C 
HETATM   51  C27 UNL     1      18.600   0.508  18.889  1.00  0.00     0.012 C 
ENDBRANCH  17  49
BRANCH  16  52
HETATM   52  O6  UNL     1      19.965   3.359  18.000  1.00  0.00    -0.348 OA
ATOM     53  H6  UNL     1      20.644   2.870  18.450  1.00  0.00     0.219 HD
ENDBRANCH  16  52
BRANCH  12  54
HETATM   54  O5  UNL     1      19.653   4.266  15.129  1.00  0.00    -0.344 OA
ATOM     55  H5  UNL     1      20.496   4.603  14.848  1.00  0.00     0.219 HD
ENDBRANCH  12  54
BRANCH  13  56
HETATM   56  C19 UNL     1      19.022   0.782  14.255  1.00  0.00    -0.053 C 
HETATM   57  C20 UNL     1      19.991  -0.134  13.641  1.00  0.00     0.046 C 
BRANCH  56  58
HETATM   58  C21 UNL     1      17.973   0.039  15.097  1.00  0.00     0.031 C 
HETATM   59  C22 UNL     1      18.450  -1.361  15.431  1.00  0.00     0.010 C 
ENDBRANCH  56  58
ENDBRANCH  13  56
TORSDOF 18
ENDMDL
MODEL 5
REMARK VINA RESULT: -5.556529728     10.315     16.856
REMARK  18 active torsions:
REMARK  status: ('A' for Active; 'I' for Inactive)
REMARK    1  A    between atoms: C2_2  and  C3_3 
REMARK    2  A    between atoms: C3_3  and  C4_4 
REMARK    3  A    between atoms: C4_4  and  C5_5 
REMARK    4  A    between atoms: C6_8  and  O1_9 
REMARK    5  A    between atoms: C7_11  and  C8_12 
REMARK    6  A    between atoms: C8_12  and  C9_13 
REMARK    7  A    between atoms: C10_18  and  O4_19 
REMARK    8  A    between atoms: C11_21  and  C12_22 
REMARK    9  A    between atoms: C12_22  and  C13_23 
REMARK   10  A    between atoms: C17_28  and  O5_29 
REMARK   11  A    between atoms: C18_31  and  C19_32 
REMARK   12  A    between atoms: C19_32  and  C21_34 
REMARK   13  A    between atoms: C23_38  and  O6_39 
REMARK   14  A    between atoms: C24_41  and  C25_42 
REMARK   15  A    between atoms: C28_47  and  O7_48 
REMARK   16  A    between atoms: C29_50  and  C30_51 
REMARK   17  A    between atoms: C30_51  and  C31_52 
REMARK   18  A    between atoms: C34_57  and  O8_58 
ROOT
HETATM    1  C5  UNL     1      17.926   3.574  18.409  1.00  0.00     0.158 C 
HETATM    2  N1  UNL     1      16.596   4.052  18.498  1.00  0.00    -0.361 N 
ATOM      3  H1  UNL     1      16.025   3.783  17.697  1.00  0.00     0.162 HD
HETATM    4  C6  UNL     1      15.898   4.798  19.422  1.00  0.00     0.136 C 
HETATM    5  C7  UNL     1      15.674   4.874  20.826  1.00  0.00     0.167 C 
HETATM    6  N2  UNL     1      14.202   4.922  21.050  1.00  0.00    -0.360 N 
ATOM      7  H2  UNL     1      13.664   4.105  20.762  1.00  0.00     0.162 HD
HETATM    8  C10 UNL     1      13.488   5.990  21.622  1.00  0.00     0.135 C 
HETATM    9  C11 UNL     1      13.269   7.352  21.083  1.00  0.00     0.160 C 
HETATM   10  N3  UNL     1      14.394   8.254  21.271  1.00  0.00    -0.352 N 
HETATM   11  C16 UNL     1      14.767   8.254  22.723  1.00  0.00     0.152 C 
HETATM   12  C17 UNL     1      15.104   9.029  20.361  1.00  0.00     0.166 C 
HETATM   13  C18 UNL     1      14.921  10.111  19.440  1.00  0.00     0.087 C 
HETATM   14  N4  UNL     1      15.800  10.167  18.284  1.00  0.00    -0.335 N 
ATOM     15  H4  UNL     1      15.822  11.117  17.912  1.00  0.00     0.168 HD
HETATM   16  C23 UNL     1      16.600   9.366  17.542  1.00  0.00     0.139 C 
HETATM   17  C24 UNL     1      16.406   8.369  16.449  1.00  0.00     0.161 C 
HETATM   18  N5  UNL     1      17.672   7.875  15.912  1.00  0.00    -0.357 N 
ATOM     19  H5  UNL     1      18.233   8.632  15.522  1.00  0.00     0.162 HD
HETATM   20  C28 UNL     1      18.304   6.672  15.792  1.00  0.00     0.159 C 
HETATM   21  C29 UNL     1      18.141   5.393  15.138  1.00  0.00     0.062 C 
HETATM   22  N6  UNL     1      18.384   4.186  15.886  1.00  0.00    -0.339 N 
ATOM     23  H6  UNL     1      18.311   3.366  15.283  1.00  0.00     0.167 HD
HETATM   24  C34 UNL     1      18.683   3.818  17.169  1.00  0.00     0.139 C 
ENDROOT
BRANCH   1  25
HETATM   25  C4  UNL     1      17.778   2.043  18.591  1.00  0.00     0.033 C 
BRANCH  25  26
HETATM   26  C3  UNL     1      19.049   1.294  18.477  1.00  0.00     0.002 C 
BRANCH  26  27
HETATM   27  C2  UNL     1      18.663  -0.106  17.946  1.00  0.00    -0.004 C 
HETATM   28  C1  UNL     1      17.372   0.007  17.140  1.00  0.00     0.005 C 
ENDBRANCH  26  27
ENDBRANCH  25  26
ENDBRANCH   1  25
BRANCH  24  29
HETATM   29  O8  UNL     1      19.960   3.614  17.409  1.00  0.00    -0.348 OA
ATOM     30  H8  UNL     1      20.456   4.341  17.053  1.00  0.00     0.219 HD
ENDBRANCH  24  29
BRANCH   4  31
HETATM   31  O1  UNL     1      15.205   5.760  18.809  1.00  0.00    -0.348 OA
ATOM     32  H1  UNL     1      15.774   6.490  18.596  1.00  0.00     0.219 HD
ENDBRANCH   4  31
BRANCH   5  33
HETATM   33  C8  UNL     1      16.253   4.033  21.868  1.00  0.00     0.146 C 
BRANCH  33  34
HETATM   34  C9  UNL     1      16.696   4.651  23.127  1.00  0.00     0.174 C 
HETATM   35  O2  UNL     1      17.882   4.684  23.547  1.00  0.00    -0.648 OA
HETATM   36  O3  UNL     1      15.765   5.272  23.973  1.00  0.00    -0.648 OA
ENDBRANCH  33  34
ENDBRANCH   5  33
BRANCH  21  37
HETATM   37  C30 UNL     1      17.295   5.147  13.962  1.00  0.00     0.065 C 
BRANCH  37  38
HETATM   38  C31 UNL     1      17.840   4.334  12.843  1.00  0.00    -0.017 C 
HETATM   39  C32 UNL     1      19.322   4.793  12.644  1.00  0.00     0.010 C 
HETATM   40  C33 UNL     1      17.255   4.368  11.506  1.00  0.00     0.010 C 
ENDBRANCH  37  38
ENDBRANCH  21  37
BRANCH  20  41
HETATM   41  O7  UNL     1      19.432   6.629  16.485  1.00  0.00    -0.345 OA
ATOM     42  H7  UNL     1      20.170   6.964  15.990  1.00  0.00     0.219 HD
ENDBRANCH  20  41
BRANCH   8  43
HETATM   43  O4  UNL     1      12.972   5.682  22.787  1.00  0.00    -0.348 OA
ATOM     44  H4  UNL     1      12.046   5.891  22.842  1.00  0.00     0.219 HD
ENDBRANCH   8  43
BRANCH   9  45
HETATM   45  C12 UNL     1      12.038   7.967  21.694  1.00  0.00     0.037 C 
BRANCH  45  46
HETATM   46  C13 UNL     1      10.771   7.941  20.977  1.00  0.00    -0.020 C 
HETATM   47  C14 UNL     1      10.513   7.203  19.746  1.00  0.00     0.009 C 
HETATM   48  C15 UNL     1       9.705   7.437  22.005  1.00  0.00     0.009 C 
ENDBRANCH  45  46
ENDBRANCH   9  45
BRANCH  17  49
HETATM   49  C25 UNL     1      15.787   9.051  15.201  1.00  0.00     0.008 C 
HETATM   50  C26 UNL     1      14.458   9.642  15.421  1.00  0.00     0.012 C 
HETATM   51  C27 UNL     1      16.722  10.176  14.764  1.00  0.00     0.012 C 
ENDBRANCH  17  49
BRANCH  16  52
HETATM   52  O6  UNL     1      17.886   9.456  17.816  1.00  0.00    -0.348 OA
ATOM     53  H6  UNL     1      18.152  10.270  18.227  1.00  0.00     0.219 HD
ENDBRANCH  16  52
BRANCH  12  54
HETATM   54  O5  UNL     1      16.376   8.666  20.318  1.00  0.00    -0.344 OA
ATOM     55  H5  UNL     1      16.486   7.870  19.810  1.00  0.00     0.219 HD
ENDBRANCH  12  54
BRANCH  13  56
HETATM   56  C19 UNL     1      13.628  10.752  19.137  1.00  0.00    -0.053 C 
HETATM   57  C20 UNL     1      12.565  10.033  18.425  1.00  0.00     0.046 C 
BRANCH  56  58
HETATM   58  C21 UNL     1      13.080  11.590  20.303  1.00  0.00     0.031 C 
HETATM   59  C22 UNL     1      11.567  11.520  20.349  1.00  0.00     0.010 C 
ENDBRANCH  56  58
ENDBRANCH  13  56
TORSDOF 18
ENDMDL
