MODEL 1
REMARK VINA RESULT: -7.105695943      0.000      0.000
REMARK  12 active torsions:
REMARK  status: ('A' for Active; 'I' for Inactive)
REMARK    1  A    between atoms: C6_6  and  C7_7 
REMARK    2  A    between atoms: C7_7  and  C8_8 
REMARK    3  A    between atoms: C10_13  and  C11_14 
REMARK    4  A    between atoms: C11_14  and  C12_15 
REMARK    5  A    between atoms: C12_15  and  C13_16 
REMARK    6  A    between atoms: C13_16  and  N2_17 
REMARK    7  A    between atoms: C16_26  and  C17_27 
REMARK    8  A    between atoms: C17_27  and  C18_28 
REMARK    9  A    between atoms: C26_41  and  C27_42 
REMARK   10  A    between atoms: C27_42  and  C28_43 
REMARK   11  A    between atoms: C28_43  and  C29_44 
REMARK   12  A    between atoms: C29_44  and  C30_45 
ROOT
HETATM    1  C8  UNL     1      16.974  -4.501   3.958  1.00  0.00     0.063 C 
HETATM    2  N1  UNL     1      16.016  -4.751   4.982  1.00  0.00    -0.325 N 
ATOM      3  H1  UNL     1      15.345  -3.990   5.086  1.00  0.00     0.168 HD
HETATM    4  C9  UNL     1      15.786  -5.790   5.869  1.00  0.00     0.244 C 
HETATM    5  O1  UNL     1      14.568  -6.217   5.960  1.00  0.00    -0.271 OA
HETATM    6  C10 UNL     1      16.697  -6.535   6.772  1.00  0.00     0.177 C 
HETATM    7  N5  UNL     1      17.305  -7.662   6.168  1.00  0.00    -0.346 N 
ATOM      8  H5  UNL     1      18.156  -7.424   5.660  1.00  0.00     0.163 HD
HETATM    9  C15 UNL     1      17.007  -9.026   6.108  1.00  0.00     0.241 C 
HETATM   10  O2  UNL     1      18.037  -9.780   6.317  1.00  0.00    -0.271 OA
HETATM   11  C16 UNL     1      15.767  -9.735   5.855  1.00  0.00     0.177 C 
HETATM   12  N6  UNL     1      15.700 -10.536   4.652  1.00  0.00    -0.346 N 
ATOM     13  H6  UNL     1      15.319 -11.475   4.775  1.00  0.00     0.163 HD
HETATM   14  C21 UNL     1      16.080 -10.214   3.349  1.00  0.00     0.240 C 
HETATM   15  O3  UNL     1      15.246 -10.448   2.395  1.00  0.00    -0.271 OA
HETATM   16  C22 UNL     1      17.350  -9.620   2.873  1.00  0.00     0.174 C 
HETATM   17  C23 UNL     1      18.360 -10.746   2.547  1.00  0.00     0.042 C 
HETATM   18  N7  UNL     1      17.125  -8.835   1.662  1.00  0.00    -0.343 N 
HETATM   19  C24 UNL     1      17.033  -9.638   0.429  1.00  0.00     0.153 C 
HETATM   20  C25 UNL     1      16.995  -7.453   1.574  1.00  0.00     0.232 C 
HETATM   21  O4  UNL     1      17.615  -6.861   0.618  1.00  0.00    -0.272 OA
HETATM   22  C26 UNL     1      16.206  -6.561   2.472  1.00  0.00     0.154 C 
HETATM   23  C31 UNL     1      16.865  -5.260   2.726  1.00  0.00     0.185 C 
HETATM   24  O5  UNL     1      17.387  -4.782   1.701  1.00  0.00    -0.290 OA
ENDROOT
BRANCH   1  25
HETATM   25  C7  UNL     1      18.357  -4.251   4.408  1.00  0.00     0.100 C 
BRANCH  25  26
HETATM   26  C6  UNL     1      18.592  -3.337   5.530  1.00  0.00    -0.040 A 
HETATM   27  C4  UNL     1      19.245  -3.641   6.699  1.00  0.00    -0.054 A 
HETATM   28  C3  UNL     1      19.482  -2.665   7.683  1.00  0.00     0.014 A 
HETATM   29  C5  UNL     1      19.688  -5.028   7.048  1.00  0.00     0.049 C 
HETATM   30  C2  UNL     1      19.070  -1.370   7.518  1.00  0.00    -0.055 A 
HETATM   31  C1  UNL     1      19.305  -0.312   8.538  1.00  0.00     0.049 C 
HETATM   32  C34 UNL     1      18.414  -1.080   6.342  1.00  0.00    -0.050 A 
HETATM   33  C32 UNL     1      18.167  -2.011   5.359  1.00  0.00    -0.048 A 
HETATM   34  C35 UNL     1      17.957   0.326   6.142  1.00  0.00     0.049 C 
HETATM   35  C33 UNL     1      17.447  -1.550   4.135  1.00  0.00     0.049 C 
ENDBRANCH  25  26
ENDBRANCH   1  25
BRANCH  22  36
HETATM   36  C27 UNL     1      14.936  -6.274   1.692  1.00  0.00     0.022 C 
BRANCH  36  37
HETATM   37  C28 UNL     1      13.708  -6.102   2.492  1.00  0.00     0.008 C 
BRANCH  37  38
HETATM   38  C29 UNL     1      12.653  -7.147   2.082  1.00  0.00     0.072 C 
BRANCH  38  39
HETATM   39  C30 UNL     1      12.557  -8.214   3.089  1.00  0.00     0.086 C 
HETATM   40  N8  UNL     1      13.006  -8.055   4.285  1.00  0.00    -0.391 N 
ATOM     41  H82 UNL     1      13.441  -7.169   4.543  1.00  0.00     0.157 HD
ATOM     42  H81 UNL     1      12.940  -8.795   4.983  1.00  0.00     0.157 HD
HETATM   43  N9  UNL     1      11.953  -9.443   2.729  1.00  0.00    -0.088 NA
ENDBRANCH  38  39
ENDBRANCH  37  38
ENDBRANCH  36  37
ENDBRANCH  22  36
BRANCH   6  44
HETATM   44  C11 UNL     1      16.025  -6.843   8.101  1.00  0.00     0.036 C 
BRANCH  44  45
HETATM   45  C12 UNL     1      17.007  -6.593   9.209  1.00  0.00     0.022 C 
BRANCH  45  46
HETATM   46  C13 UNL     1      17.005  -5.214   9.776  1.00  0.00     0.122 C 
BRANCH  46  47
HETATM   47  N2  UNL     1      18.322  -4.889  10.366  1.00  0.00    -0.367 N 
HETATM   48  C14 UNL     1      18.337  -3.828  11.097  1.00  0.00     0.196 C 
HETATM   49  N3  UNL     1      17.209  -3.005  11.345  1.00  0.00    -0.067 NA
HETATM   50  N4  UNL     1      19.573  -3.462  11.697  1.00  0.00    -0.067 NA
ATOM     51  H2  UNL     1      19.151  -5.460  10.207  1.00  0.00     0.161 HD
ENDBRANCH  46  47
ENDBRANCH  45  46
ENDBRANCH  44  45
ENDBRANCH   6  44
BRANCH  11  52
HETATM   52  C17 UNL     1      15.362 -10.523   7.060  1.00  0.00     0.038 C 
BRANCH  52  53
HETATM   53  C18 UNL     1      13.939 -10.626   7.429  1.00  0.00    -0.020 C 
HETATM   54  C19 UNL     1      13.781 -11.506   8.705  1.00  0.00     0.009 C 
HETATM   55  C20 UNL     1      13.232  -9.351   7.773  1.00  0.00     0.009 C 
ENDBRANCH  52  53
ENDBRANCH  11  52
TORSDOF 12
ENDMDL
MODEL 2
REMARK VINA RESULT: -6.859187660      2.182      6.750
REMARK  12 active torsions:
REMARK  status: ('A' for Active; 'I' for Inactive)
REMARK    1  A    between atoms: C6_6  and  C7_7 
REMARK    2  A    between atoms: C7_7  and  C8_8 
REMARK    3  A    between atoms: C10_13  and  C11_14 
REMARK    4  A    between atoms: C11_14  and  C12_15 
REMARK    5  A    between atoms: C12_15  and  C13_16 
REMARK    6  A    between atoms: C13_16  and  N2_17 
REMARK    7  A    between atoms: C16_26  and  C17_27 
REMARK    8  A    between atoms: C17_27  and  C18_28 
REMARK    9  A    between atoms: C26_41  and  C27_42 
REMARK   10  A    between atoms: C27_42  and  C28_43 
REMARK   11  A    between atoms: C28_43  and  C29_44 
REMARK   12  A    between atoms: C29_44  and  C30_45 
ROOT
HETATM    1  C8  UNL     1      14.721  -8.812   4.699  1.00  0.00     0.063 C 
HETATM    2  N1  UNL     1      15.795  -8.463   5.566  1.00  0.00    -0.325 N 
ATOM      3  H1  UNL     1      16.114  -9.249   6.132  1.00  0.00     0.168 HD
HETATM    4  C9  UNL     1      16.507  -7.301   5.817  1.00  0.00     0.244 C 
HETATM    5  O1  UNL     1      17.797  -7.403   5.836  1.00  0.00    -0.271 OA
HETATM    6  C10 UNL     1      16.063  -5.912   6.082  1.00  0.00     0.177 C 
HETATM    7  N5  UNL     1      15.899  -5.130   4.913  1.00  0.00    -0.346 N 
ATOM      8  H5  UNL     1      14.977  -5.244   4.491  1.00  0.00     0.163 HD
HETATM    9  C15 UNL     1      16.708  -4.240   4.203  1.00  0.00     0.241 C 
HETATM   10  O2  UNL     1      16.090  -3.156   3.858  1.00  0.00    -0.271 OA
HETATM   11  C16 UNL     1      18.096  -4.315   3.788  1.00  0.00     0.177 C 
HETATM   12  N6  UNL     1      18.357  -4.356   2.365  1.00  0.00    -0.346 N 
ATOM     13  H6  UNL     1      19.091  -3.727   2.039  1.00  0.00     0.163 HD
HETATM   14  C21 UNL     1      17.752  -5.129   1.374  1.00  0.00     0.240 C 
HETATM   15  O3  UNL     1      18.511  -5.771   0.553  1.00  0.00    -0.271 OA
HETATM   16  C22 UNL     1      16.311  -5.334   1.107  1.00  0.00     0.174 C 
HETATM   17  C23 UNL     1      15.806  -4.254   0.120  1.00  0.00     0.042 C 
HETATM   18  N7  UNL     1      16.083  -6.648   0.511  1.00  0.00    -0.343 N 
HETATM   19  C24 UNL     1      16.364  -6.713  -0.935  1.00  0.00     0.153 C 
HETATM   20  C25 UNL     1      15.641  -7.796   1.160  1.00  0.00     0.232 C 
HETATM   21  O4  UNL     1      14.745  -8.501   0.571  1.00  0.00    -0.272 OA
HETATM   22  C26 UNL     1      16.094  -8.316   2.483  1.00  0.00     0.154 C 
HETATM   23  C31 UNL     1      15.000  -8.916   3.278  1.00  0.00     0.185 C 
HETATM   24  O5  UNL     1      14.232  -9.609   2.585  1.00  0.00    -0.290 OA
ENDROOT
BRANCH   1  25
HETATM   25  C7  UNL     1      13.405  -8.230   5.027  1.00  0.00     0.100 C 
BRANCH  25  26
HETATM   26  C6  UNL     1      12.689  -8.702   6.217  1.00  0.00    -0.040 A 
HETATM   27  C4  UNL     1      12.319  -9.998   6.477  1.00  0.00    -0.054 A 
HETATM   28  C3  UNL     1      11.699 -10.355   7.688  1.00  0.00     0.014 A 
HETATM   29  C5  UNL     1      12.475 -11.106   5.483  1.00  0.00     0.049 C 
HETATM   30  C2  UNL     1      11.437  -9.425   8.658  1.00  0.00    -0.055 A 
HETATM   31  C1  UNL     1      10.784  -9.769   9.951  1.00  0.00     0.049 C 
HETATM   32  C34 UNL     1      11.813  -8.129   8.382  1.00  0.00    -0.050 A 
HETATM   33  C32 UNL     1      12.421  -7.747   7.209  1.00  0.00    -0.048 A 
HETATM   34  C35 UNL     1      11.537  -7.100   9.426  1.00  0.00     0.049 C 
HETATM   35  C33 UNL     1      12.774  -6.305   7.050  1.00  0.00     0.049 C 
ENDBRANCH  25  26
ENDBRANCH   1  25
BRANCH  22  36
HETATM   36  C27 UNL     1      17.060  -9.433   2.135  1.00  0.00     0.022 C 
BRANCH  36  37
HETATM   37  C28 UNL     1      18.488  -9.159   2.389  1.00  0.00     0.008 C 
BRANCH  37  38
HETATM   38  C29 UNL     1      19.270  -9.130   1.063  1.00  0.00     0.072 C 
BRANCH  38  39
HETATM   39  C30 UNL     1      20.621  -8.588   1.265  1.00  0.00     0.086 C 
HETATM   40  N8  UNL     1      20.953  -7.423   0.828  1.00  0.00    -0.391 N 
ATOM     41  H82 UNL     1      20.264  -6.861   0.329  1.00  0.00     0.157 HD
ATOM     42  H81 UNL     1      21.890  -7.047   0.969  1.00  0.00     0.157 HD
HETATM   43  N9  UNL     1      21.577  -9.369   1.960  1.00  0.00    -0.088 NA
ENDBRANCH  38  39
ENDBRANCH  37  38
ENDBRANCH  36  37
ENDBRANCH  22  36
BRANCH   6  44
HETATM   44  C11 UNL     1      16.931  -5.248   7.141  1.00  0.00     0.036 C 
BRANCH  44  45
HETATM   45  C12 UNL     1      16.413  -5.627   8.498  1.00  0.00     0.022 C 
BRANCH  45  46
HETATM   46  C13 UNL     1      17.396  -6.287   9.405  1.00  0.00     0.122 C 
BRANCH  46  47
HETATM   47  N2  UNL     1      18.653  -6.582   8.686  1.00  0.00    -0.367 N 
HETATM   48  C14 UNL     1      19.669  -5.886   9.068  1.00  0.00     0.196 C 
HETATM   49  N3  UNL     1      19.632  -4.903  10.090  1.00  0.00    -0.067 NA
HETATM   50  N4  UNL     1      20.911  -6.125   8.418  1.00  0.00    -0.067 NA
ATOM     51  H2  UNL     1      18.713  -7.282   7.947  1.00  0.00     0.161 HD
ENDBRANCH  46  47
ENDBRANCH  45  46
ENDBRANCH  44  45
ENDBRANCH   6  44
BRANCH  11  52
HETATM   52  C17 UNL     1      18.899  -3.247   4.459  1.00  0.00     0.038 C 
BRANCH  52  53
HETATM   53  C18 UNL     1      18.513  -2.767   5.798  1.00  0.00    -0.020 C 
HETATM   54  C19 UNL     1      19.673  -3.016   6.809  1.00  0.00     0.009 C 
HETATM   55  C20 UNL     1      18.213  -1.306   5.936  1.00  0.00     0.009 C 
ENDBRANCH  52  53
ENDBRANCH  11  52
TORSDOF 12
ENDMDL
MODEL 3
REMARK VINA RESULT: -6.818032790      2.034      6.599
REMARK  12 active torsions:
REMARK  status: ('A' for Active; 'I' for Inactive)
REMARK    1  A    between atoms: C6_6  and  C7_7 
REMARK    2  A    between atoms: C7_7  and  C8_8 
REMARK    3  A    between atoms: C10_13  and  C11_14 
REMARK    4  A    between atoms: C11_14  and  C12_15 
REMARK    5  A    between atoms: C12_15  and  C13_16 
REMARK    6  A    between atoms: C13_16  and  N2_17 
REMARK    7  A    between atoms: C16_26  and  C17_27 
REMARK    8  A    between atoms: C17_27  and  C18_28 
REMARK    9  A    between atoms: C26_41  and  C27_42 
REMARK   10  A    between atoms: C27_42  and  C28_43 
REMARK   11  A    between atoms: C28_43  and  C29_44 
REMARK   12  A    between atoms: C29_44  and  C30_45 
ROOT
HETATM    1  C8  UNL     1      14.517  -8.809   5.028  1.00  0.00     0.063 C 
HETATM    2  N1  UNL     1      15.636  -8.450   5.834  1.00  0.00    -0.325 N 
ATOM      3  H1  UNL     1      15.955  -9.216   6.426  1.00  0.00     0.168 HD
HETATM    4  C9  UNL     1      16.389  -7.299   5.997  1.00  0.00     0.244 C 
HETATM    5  O1  UNL     1      17.676  -7.439   5.971  1.00  0.00    -0.271 OA
HETATM    6  C10 UNL     1      15.996  -5.885   6.209  1.00  0.00     0.177 C 
HETATM    7  N5  UNL     1      15.806  -5.159   5.008  1.00  0.00    -0.346 N 
ATOM      8  H5  UNL     1      14.865  -5.265   4.630  1.00  0.00     0.163 HD
HETATM    9  C15 UNL     1      16.610  -4.329   4.223  1.00  0.00     0.241 C 
HETATM   10  O2  UNL     1      16.009  -3.246   3.848  1.00  0.00    -0.271 OA
HETATM   11  C16 UNL     1      17.977  -4.467   3.758  1.00  0.00     0.177 C 
HETATM   12  N6  UNL     1      18.179  -4.586   2.330  1.00  0.00    -0.346 N 
ATOM     13  H6  UNL     1      18.916  -3.996   1.944  1.00  0.00     0.163 HD
HETATM   14  C21 UNL     1      17.513  -5.389   1.404  1.00  0.00     0.240 C 
HETATM   15  O3  UNL     1      18.219  -6.094   0.588  1.00  0.00    -0.271 OA
HETATM   16  C22 UNL     1      16.057  -5.564   1.205  1.00  0.00     0.174 C 
HETATM   17  C23 UNL     1      15.543  -4.519   0.185  1.00  0.00     0.042 C 
HETATM   18  N7  UNL     1      15.767  -6.898   0.686  1.00  0.00    -0.343 N 
HETATM   19  C24 UNL     1      15.987  -7.044  -0.765  1.00  0.00     0.153 C 
HETATM   20  C25 UNL     1      15.321  -7.999   1.410  1.00  0.00     0.232 C 
HETATM   21  O4  UNL     1      14.382  -8.705   0.892  1.00  0.00    -0.272 OA
HETATM   22  C26 UNL     1      15.812  -8.465   2.738  1.00  0.00     0.154 C 
HETATM   23  C31 UNL     1      14.735  -8.992   3.605  1.00  0.00     0.185 C 
HETATM   24  O5  UNL     1      13.920  -9.696   2.979  1.00  0.00    -0.290 OA
ENDROOT
BRANCH   1  25
HETATM   25  C7  UNL     1      13.233  -8.172   5.378  1.00  0.00     0.100 C 
BRANCH  25  26
HETATM   26  C6  UNL     1      12.495  -8.645   6.554  1.00  0.00    -0.040 A 
HETATM   27  C4  UNL     1      12.107  -9.939   6.800  1.00  0.00    -0.054 A 
HETATM   28  C3  UNL     1      11.467 -10.298   7.999  1.00  0.00     0.014 A 
HETATM   29  C5  UNL     1      12.266 -11.042   5.800  1.00  0.00     0.049 C 
HETATM   30  C2  UNL     1      11.201  -9.371   8.972  1.00  0.00    -0.055 A 
HETATM   31  C1  UNL     1      10.525  -9.717  10.253  1.00  0.00     0.049 C 
HETATM   32  C34 UNL     1      11.593  -8.078   8.710  1.00  0.00    -0.050 A 
HETATM   33  C32 UNL     1      12.223  -7.694   7.549  1.00  0.00    -0.048 A 
HETATM   34  C35 UNL     1      11.314  -7.053   9.758  1.00  0.00     0.049 C 
HETATM   35  C33 UNL     1      12.593  -6.254   7.405  1.00  0.00     0.049 C 
ENDBRANCH  25  26
ENDBRANCH   1  25
BRANCH  22  36
HETATM   36  C27 UNL     1      16.731  -9.627   2.410  1.00  0.00     0.022 C 
BRANCH  36  37
HETATM   37  C28 UNL     1      17.828  -9.878   3.366  1.00  0.00     0.008 C 
BRANCH  37  38
HETATM   38  C29 UNL     1      17.752 -11.321   3.898  1.00  0.00     0.072 C 
BRANCH  38  39
HETATM   39  C30 UNL     1      17.391 -11.333   5.323  1.00  0.00     0.086 C 
HETATM   40  N8  UNL     1      16.340 -11.942   5.747  1.00  0.00    -0.391 N 
ATOM     41  H82 UNL     1      15.739 -12.428   5.081  1.00  0.00     0.157 HD
ATOM     42  H81 UNL     1      16.089 -11.951   6.736  1.00  0.00     0.157 HD
HETATM   43  N9  UNL     1      18.226 -10.658   6.247  1.00  0.00    -0.088 NA
ENDBRANCH  38  39
ENDBRANCH  37  38
ENDBRANCH  36  37
ENDBRANCH  22  36
BRANCH   6  44
HETATM   44  C11 UNL     1      16.924  -5.196   7.197  1.00  0.00     0.036 C 
BRANCH  44  45
HETATM   45  C12 UNL     1      16.470  -5.518   8.592  1.00  0.00     0.022 C 
BRANCH  45  46
HETATM   46  C13 UNL     1      17.467  -6.217   9.452  1.00  0.00     0.122 C 
BRANCH  46  47
HETATM   47  N2  UNL     1      18.701  -6.508   8.692  1.00  0.00    -0.367 N 
HETATM   48  C14 UNL     1      19.742  -5.855   9.083  1.00  0.00     0.196 C 
HETATM   49  N3  UNL     1      19.751  -4.922  10.151  1.00  0.00    -0.067 NA
HETATM   50  N4  UNL     1      20.963  -6.091   8.395  1.00  0.00    -0.067 NA
ATOM     51  H2  UNL     1      18.727  -7.172   7.919  1.00  0.00     0.161 HD
ENDBRANCH  46  47
ENDBRANCH  45  46
ENDBRANCH  44  45
ENDBRANCH   6  44
BRANCH  11  52
HETATM   52  C17 UNL     1      18.837  -3.392   4.342  1.00  0.00     0.038 C 
BRANCH  52  53
HETATM   53  C18 UNL     1      18.543  -2.862   5.685  1.00  0.00    -0.020 C 
HETATM   54  C19 UNL     1      19.746  -3.129   6.640  1.00  0.00     0.009 C 
HETATM   55  C20 UNL     1      18.306  -1.387   5.798  1.00  0.00     0.009 C 
ENDBRANCH  52  53
ENDBRANCH  11  52
TORSDOF 12
ENDMDL
MODEL 4
REMARK VINA RESULT: -6.698871793      2.458      6.764
REMARK  12 active torsions:
REMARK  status: ('A' for Active; 'I' for Inactive)
REMARK    1  A    between atoms: C6_6  and  C7_7 
REMARK    2  A    between atoms: C7_7  and  C8_8 
REMARK    3  A    between atoms: C10_13  and  C11_14 
REMARK    4  A    between atoms: C11_14  and  C12_15 
REMARK    5  A    between atoms: C12_15  and  C13_16 
REMARK    6  A    between atoms: C13_16  and  N2_17 
REMARK    7  A    between atoms: C16_26  and  C17_27 
REMARK    8  A    between atoms: C17_27  and  C18_28 
REMARK    9  A    between atoms: C26_41  and  C27_42 
REMARK   10  A    between atoms: C27_42  and  C28_43 
REMARK   11  A    between atoms: C28_43  and  C29_44 
REMARK   12  A    between atoms: C29_44  and  C30_45 
ROOT
HETATM    1  C8  UNL     1      13.808  -9.306   6.809  1.00  0.00     0.063 C 
HETATM    2  N1  UNL     1      14.884  -8.774   7.576  1.00  0.00    -0.325 N 
ATOM      3  H1  UNL     1      15.108  -9.348   8.388  1.00  0.00     0.168 HD
HETATM    4  C9  UNL     1      15.695  -7.656   7.472  1.00  0.00     0.244 C 
HETATM    5  O1  UNL     1      16.969  -7.849   7.602  1.00  0.00    -0.271 OA
HETATM    6  C10 UNL     1      15.378  -6.227   7.235  1.00  0.00     0.177 C 
HETATM    7  N5  UNL     1      15.326  -5.872   5.866  1.00  0.00    -0.346 N 
ATOM      8  H5  UNL     1      14.411  -6.046   5.450  1.00  0.00     0.163 HD
HETATM    9  C15 UNL     1      16.238  -5.338   4.952  1.00  0.00     0.241 C 
HETATM   10  O2  UNL     1      15.737  -4.386   4.232  1.00  0.00    -0.271 OA
HETATM   11  C16 UNL     1      17.625  -5.658   4.671  1.00  0.00     0.177 C 
HETATM   12  N6  UNL     1      17.924  -6.193   3.361  1.00  0.00    -0.346 N 
ATOM     13  H6  UNL     1      18.725  -5.770   2.890  1.00  0.00     0.163 HD
HETATM   14  C21 UNL     1      17.279  -7.203   2.646  1.00  0.00     0.240 C 
HETATM   15  O3  UNL     1      17.998  -8.141   2.131  1.00  0.00    -0.271 OA
HETATM   16  C22 UNL     1      15.834  -7.369   2.374  1.00  0.00     0.174 C 
HETATM   17  C23 UNL     1      15.465  -6.645   1.057  1.00  0.00     0.042 C 
HETATM   18  N7  UNL     1      15.499  -8.784   2.233  1.00  0.00    -0.343 N 
HETATM   19  C24 UNL     1      15.818  -9.352   0.909  1.00  0.00     0.153 C 
HETATM   20  C25 UNL     1      14.930  -9.610   3.197  1.00  0.00     0.232 C 
HETATM   21  O4  UNL     1      13.989 -10.397   2.820  1.00  0.00    -0.272 OA
HETATM   22  C26 UNL     1      15.290  -9.691   4.642  1.00  0.00     0.154 C 
HETATM   23  C31 UNL     1      14.119  -9.902   5.523  1.00  0.00     0.185 C 
HETATM   24  O5  UNL     1      13.310 -10.723   5.051  1.00  0.00    -0.290 OA
ENDROOT
BRANCH   1  25
HETATM   25  C7  UNL     1      12.544  -8.544   6.845  1.00  0.00     0.100 C 
BRANCH  25  26
HETATM   26  C6  UNL     1      11.708  -8.600   8.049  1.00  0.00    -0.040 A 
HETATM   27  C4  UNL     1      11.172  -9.732   8.610  1.00  0.00    -0.054 A 
HETATM   28  C3  UNL     1      10.444  -9.682   9.812  1.00  0.00     0.014 A 
HETATM   29  C5  UNL     1      11.254 -11.080   7.963  1.00  0.00     0.049 C 
HETATM   30  C2  UNL     1      10.237  -8.501  10.472  1.00  0.00    -0.055 A 
HETATM   31  C1  UNL     1       9.472  -8.412  11.747  1.00  0.00     0.049 C 
HETATM   32  C34 UNL     1      10.779  -7.374   9.897  1.00  0.00    -0.050 A 
HETATM   33  C32 UNL     1      11.497  -7.388   8.724  1.00  0.00    -0.048 A 
HETATM   34  C35 UNL     1      10.567  -6.076  10.602  1.00  0.00     0.049 C 
HETATM   35  C33 UNL     1      12.028  -6.087   8.220  1.00  0.00     0.049 C 
ENDBRANCH  25  26
ENDBRANCH   1  25
BRANCH  22  36
HETATM   36  C27 UNL     1      16.155 -10.934   4.742  1.00  0.00     0.022 C 
BRANCH  36  37
HETATM   37  C28 UNL     1      17.457 -10.766   5.418  1.00  0.00     0.008 C 
BRANCH  37  38
HETATM   38  C29 UNL     1      17.376 -11.281   6.866  1.00  0.00     0.072 C 
BRANCH  38  39
HETATM   39  C30 UNL     1      18.637 -11.924   7.263  1.00  0.00     0.086 C 
HETATM   40  N8  UNL     1      18.739 -12.588   8.362  1.00  0.00    -0.391 N 
ATOM     41  H82 UNL     1      17.928 -12.672   8.974  1.00  0.00     0.157 HD
ATOM     42  H81 UNL     1      19.614 -13.034   8.637  1.00  0.00     0.157 HD
HETATM   43  N9  UNL     1      19.764 -11.807   6.413  1.00  0.00    -0.088 NA
ENDBRANCH  38  39
ENDBRANCH  37  38
ENDBRANCH  36  37
ENDBRANCH  22  36
BRANCH   6  44
HETATM   44  C11 UNL     1      16.272  -5.319   8.066  1.00  0.00     0.036 C 
BRANCH  44  45
HETATM   45  C12 UNL     1      15.846  -5.404   9.503  1.00  0.00     0.022 C 
BRANCH  45  46
HETATM   46  C13 UNL     1      16.856  -4.957  10.505  1.00  0.00     0.122 C 
BRANCH  46  47
HETATM   47  N2  UNL     1      17.825  -4.025   9.891  1.00  0.00    -0.367 N 
HETATM   48  C14 UNL     1      17.918  -2.880  10.477  1.00  0.00     0.196 C 
HETATM   49  N3  UNL     1      17.171  -2.500  11.621  1.00  0.00    -0.067 NA
HETATM   50  N4  UNL     1      18.835  -1.938   9.937  1.00  0.00    -0.067 NA
ATOM     51  H2  UNL     1      18.376  -4.268   9.069  1.00  0.00     0.161 HD
ENDBRANCH  46  47
ENDBRANCH  45  46
ENDBRANCH  44  45
ENDBRANCH   6  44
BRANCH  11  52
HETATM   52  C17 UNL     1      18.505  -4.495   5.000  1.00  0.00     0.038 C 
BRANCH  52  53
HETATM   53  C18 UNL     1      18.906  -4.246   6.396  1.00  0.00    -0.020 C 
HETATM   54  C19 UNL     1      19.876  -5.366   6.881  1.00  0.00     0.009 C 
HETATM   55  C20 UNL     1      19.646  -2.974   6.675  1.00  0.00     0.009 C 
ENDBRANCH  52  53
ENDBRANCH  11  52
TORSDOF 12
ENDMDL
MODEL 5
REMARK VINA RESULT: -6.681693210     11.355     17.405
REMARK  12 active torsions:
REMARK  status: ('A' for Active; 'I' for Inactive)
REMARK    1  A    between atoms: C6_6  and  C7_7 
REMARK    2  A    between atoms: C7_7  and  C8_8 
REMARK    3  A    between atoms: C10_13  and  C11_14 
REMARK    4  A    between atoms: C11_14  and  C12_15 
REMARK    5  A    between atoms: C12_15  and  C13_16 
REMARK    6  A    between atoms: C13_16  and  N2_17 
REMARK    7  A    between atoms: C16_26  and  C17_27 
REMARK    8  A    between atoms: C17_27  and  C18_28 
REMARK    9  A    between atoms: C26_41  and  C27_42 
REMARK   10  A    between atoms: C27_42  and  C28_43 
REMARK   11  A    between atoms: C28_43  and  C29_44 
REMARK   12  A    between atoms: C29_44  and  C30_45 
ROOT
HETATM    1  C8  UNL     1      17.741   5.524  14.041  1.00  0.00     0.063 C 
HETATM    2  N1  UNL     1      18.872   5.387  14.896  1.00  0.00    -0.325 N 
ATOM      3  H1  UNL     1      19.746   5.638  14.433  1.00  0.00     0.168 HD
HETATM    4  C9  UNL     1      19.058   4.991  16.210  1.00  0.00     0.244 C 
HETATM    5  O1  UNL     1      19.803   5.752  16.946  1.00  0.00    -0.271 OA
HETATM    6  C10 UNL     1      18.555   3.819  16.967  1.00  0.00     0.177 C 
HETATM    7  N5  UNL     1      17.301   4.035  17.587  1.00  0.00    -0.346 N 
ATOM      8  H5  UNL     1      16.517   3.848  16.962  1.00  0.00     0.163 HD
HETATM    9  C15 UNL     1      16.889   4.443  18.858  1.00  0.00     0.241 C 
HETATM   10  O2  UNL     1      15.925   3.724  19.335  1.00  0.00    -0.271 OA
HETATM   11  C16 UNL     1      17.343   5.516  19.723  1.00  0.00     0.177 C 
HETATM   12  N6  UNL     1      16.400   6.575  20.009  1.00  0.00    -0.346 N 
ATOM     13  H6  UNL     1      16.332   6.844  20.991  1.00  0.00     0.163 HD
HETATM   14  C21 UNL     1      15.569   7.282  19.140  1.00  0.00     0.240 C 
HETATM   15  O3  UNL     1      15.562   8.569  19.215  1.00  0.00    -0.271 OA
HETATM   16  C22 UNL     1      14.655   6.760  18.099  1.00  0.00     0.174 C 
HETATM   17  C23 UNL     1      13.257   6.508  18.715  1.00  0.00     0.042 C 
HETATM   18  N7  UNL     1      14.514   7.724  17.011  1.00  0.00    -0.343 N 
HETATM   19  C24 UNL     1      13.572   8.823  17.294  1.00  0.00     0.153 C 
HETATM   20  C25 UNL     1      15.164   7.698  15.782  1.00  0.00     0.232 C 
HETATM   21  O4  UNL     1      14.463   7.955  14.737  1.00  0.00    -0.272 OA
HETATM   22  C26 UNL     1      16.604   7.405  15.528  1.00  0.00     0.154 C 
HETATM   23  C31 UNL     1      16.830   6.626  14.290  1.00  0.00     0.185 C 
HETATM   24  O5  UNL     1      16.114   7.012  13.346  1.00  0.00    -0.290 OA
ENDROOT
BRANCH   1  25
HETATM   25  C7  UNL     1      17.088   4.268  13.620  1.00  0.00     0.100 C 
BRANCH  25  26
HETATM   26  C6  UNL     1      17.603   3.550  12.450  1.00  0.00    -0.040 A 
HETATM   27  C4  UNL     1      17.562   3.988  11.149  1.00  0.00    -0.054 A 
HETATM   28  C3  UNL     1      18.154   3.252  10.107  1.00  0.00     0.014 A 
HETATM   29  C5  UNL     1      16.834   5.226  10.728  1.00  0.00     0.049 C 
HETATM   30  C2  UNL     1      18.795   2.065  10.347  1.00  0.00    -0.055 A 
HETATM   31  C1  UNL     1      19.433   1.261   9.268  1.00  0.00     0.049 C 
HETATM   32  C34 UNL     1      18.827   1.639  11.655  1.00  0.00    -0.050 A 
HETATM   33  C32 UNL     1      18.259   2.335  12.697  1.00  0.00    -0.048 A 
HETATM   34  C35 UNL     1      19.522   0.349  11.937  1.00  0.00     0.049 C 
HETATM   35  C33 UNL     1      18.375   1.750  14.066  1.00  0.00     0.049 C 
ENDBRANCH  25  26
ENDBRANCH   1  25
BRANCH  22  36
HETATM   36  C27 UNL     1      17.233   8.770  15.319  1.00  0.00     0.022 C 
BRANCH  36  37
HETATM   37  C28 UNL     1      17.590   9.515  16.543  1.00  0.00     0.008 C 
BRANCH  37  38
HETATM   38  C29 UNL     1      17.416  11.028  16.316  1.00  0.00     0.072 C 
BRANCH  38  39
HETATM   39  C30 UNL     1      16.091  11.475  16.768  1.00  0.00     0.086 C 
HETATM   40  N8  UNL     1      15.820  11.623  18.018  1.00  0.00    -0.391 N 
ATOM     41  H82 UNL     1      16.539  11.426  18.714  1.00  0.00     0.157 HD
ATOM     42  H81 UNL     1      14.900  11.934  18.332  1.00  0.00     0.157 HD
HETATM   43  N9  UNL     1      15.092  11.748  15.802  1.00  0.00    -0.088 NA
ENDBRANCH  38  39
ENDBRANCH  37  38
ENDBRANCH  36  37
ENDBRANCH  22  36
BRANCH   6  44
HETATM   44  C11 UNL     1      19.617   3.276  17.911  1.00  0.00     0.036 C 
BRANCH  44  45
HETATM   45  C12 UNL     1      19.123   1.987  18.503  1.00  0.00     0.022 C 
BRANCH  45  46
HETATM   46  C13 UNL     1      19.250   0.784  17.632  1.00  0.00     0.122 C 
BRANCH  46  47
HETATM   47  N2  UNL     1      17.994   0.004  17.631  1.00  0.00    -0.367 N 
HETATM   48  C14 UNL     1      17.982  -0.998  16.820  1.00  0.00     0.196 C 
HETATM   49  N3  UNL     1      19.062  -1.362  15.976  1.00  0.00    -0.067 NA
HETATM   50  N4  UNL     1      16.803  -1.791  16.774  1.00  0.00    -0.067 NA
ATOM     51  H2  UNL     1      17.200   0.240  18.225  1.00  0.00     0.161 HD
ENDBRANCH  46  47
ENDBRANCH  45  46
ENDBRANCH  44  45
ENDBRANCH   6  44
BRANCH  11  52
HETATM   52  C17 UNL     1      17.935   4.958  20.978  1.00  0.00     0.038 C 
BRANCH  52  53
HETATM   53  C18 UNL     1      17.379   5.341  22.288  1.00  0.00    -0.020 C 
HETATM   54  C19 UNL     1      16.215   4.380  22.675  1.00  0.00     0.009 C 
HETATM   55  C20 UNL     1      18.306   5.287  23.463  1.00  0.00     0.009 C 
ENDBRANCH  52  53
ENDBRANCH  11  52
TORSDOF 12
ENDMDL
