MODEL 1
REMARK VINA RESULT: -8.436869017      0.000      0.000
REMARK  17 active torsions:
REMARK  status: ('A' for Active; 'I' for Inactive)
REMARK    1  A    between atoms: C2_2  and  C3_3 
REMARK    2  A    between atoms: C3_3  and  C4_4 
REMARK    3  A    between atoms: C4_4  and  C5_5 
REMARK    4  A    between atoms: C7_10  and  C8_11 
REMARK    5  A    between atoms: C8_11  and  C9_12 
REMARK    6  A    between atoms: C17_24  and  O2_25 
REMARK    7  A    between atoms: C18_27  and  C19_28 
REMARK    8  A    between atoms: C19_28  and  C20_29 
REMARK    9  A    between atoms: C24_36  and  C25_37 
REMARK   10  A    between atoms: C25_37  and  C26_38 
REMARK   11  A    between atoms: C26_38  and  C27_39 
REMARK   12  A    between atoms: C27_39  and  C28_40 
REMARK   13  A    between atoms: C28_40  and  C29_41 
REMARK   14  A    between atoms: C29_41  and  C30_42 
REMARK   15  A    between atoms: C32_47  and  O5_48 
REMARK   16  A    between atoms: C36_53  and  O6_54 
REMARK   17  A    between atoms: C37_56  and  O7_57 
ROOT
HETATM    1  C5  UNL     1      18.709   1.081  16.785  1.00  0.00     0.144 C 
HETATM    2  N1  UNL     1      19.341   1.260  15.501  1.00  0.00    -0.345 N 
ATOM      3  H1  UNL     1      19.944   2.077  15.413  1.00  0.00     0.163 HD
HETATM    4  C6  UNL     1      19.235   0.459  14.361  1.00  0.00     0.265 C 
HETATM    5  O1  UNL     1      20.292   0.377  13.639  1.00  0.00    -0.266 OA
HETATM    6  C7  UNL     1      18.076  -0.305  13.876  1.00  0.00     0.083 C 
HETATM    7  N3  UNL     1      17.236   0.248  12.892  1.00  0.00    -0.338 N 
ATOM      8  H3  UNL     1      16.247   0.140  13.121  1.00  0.00     0.167 HD
HETATM    9  C17 UNL     1      17.427   0.905  11.684  1.00  0.00     0.139 C 
HETATM   10  C18 UNL     1      18.417   1.921  11.258  1.00  0.00     0.159 C 
HETATM   11  N4  UNL     1      17.708   2.949  10.459  1.00  0.00    -0.347 N 
ATOM     12  H4  UNL     1      17.132   2.608   9.689  1.00  0.00     0.163 HD
HETATM   13  C23 UNL     1      17.743   4.320  10.644  1.00  0.00     0.241 C 
HETATM   14  O3  UNL     1      17.952   5.026   9.582  1.00  0.00    -0.271 OA
HETATM   15  C24 UNL     1      17.572   5.076  11.912  1.00  0.00     0.176 C 
HETATM   16  N5  UNL     1      18.839   5.077  12.591  1.00  0.00    -0.350 N 
ATOM     17  H5  UNL     1      19.623   4.815  11.994  1.00  0.00     0.163 HD
HETATM   18  C32 UNL     1      19.205   5.364  13.892  1.00  0.00     0.194 C 
HETATM   19  C33 UNL     1      18.725   4.984  15.128  1.00  0.00    -0.019 C 
HETATM   20  C34 UNL     1      18.377   4.702  16.133  1.00  0.00    -0.067 C 
HETATM   21  C35 UNL     1      17.976   4.393  17.410  1.00  0.00     0.104 C 
HETATM   22  C36 UNL     1      18.229   3.311  18.128  1.00  0.00     0.104 C 
HETATM   23  C37 UNL     1      19.006   2.147  17.741  1.00  0.00     0.099 C 
ENDROOT
BRANCH   6  24
HETATM   24  C8  UNL     1      18.447  -1.771  13.729  1.00  0.00     0.104 C 
BRANCH  24  25
HETATM   25  C9  UNL     1      18.785  -2.227  12.396  1.00  0.00    -0.025 A 
HETATM   26  C10 UNL     1      19.882  -1.768  11.656  1.00  0.00     0.096 A 
HETATM   27  N2  UNL     1      19.920  -2.453  10.492  1.00  0.00    -0.365 N 
HETATM   28  C11 UNL     1      18.900  -3.324  10.460  1.00  0.00     0.042 A 
ATOM     29  H2  UNL     1      20.613  -2.328   9.755  1.00  0.00     0.165 HD
HETATM   30  C12 UNL     1      18.489  -4.227   9.495  1.00  0.00     0.030 A 
HETATM   31  C16 UNL     1      18.182  -3.198  11.634  1.00  0.00    -0.002 A 
HETATM   32  C13 UNL     1      17.351  -5.019   9.691  1.00  0.00     0.002 A 
HETATM   33  C14 UNL     1      16.623  -4.907  10.852  1.00  0.00     0.001 A 
HETATM   34  C15 UNL     1      17.051  -3.997  11.809  1.00  0.00     0.014 A 
ENDBRANCH  24  25
ENDBRANCH   6  24
BRANCH   9  35
HETATM   35  O2  UNL     1      16.612   0.615  10.699  1.00  0.00    -0.348 OA
ATOM     36  H2  UNL     1      16.443  -0.303  10.523  1.00  0.00     0.219 HD
ENDBRANCH   9  35
BRANCH   1  37
HETATM   37  C4  UNL     1      18.924  -0.297  17.387  1.00  0.00     0.032 C 
BRANCH  37  38
HETATM   38  C3  UNL     1      17.767  -0.899  18.085  1.00  0.00     0.002 C 
BRANCH  38  39
HETATM   39  C2  UNL     1      16.751  -1.271  16.980  1.00  0.00    -0.004 C 
HETATM   40  C1  UNL     1      16.015  -2.540  17.327  1.00  0.00     0.005 C 
ENDBRANCH  38  39
ENDBRANCH  37  38
ENDBRANCH   1  37
BRANCH  10  41
HETATM   41  C19 UNL     1      19.311   1.229  10.253  1.00  0.00     0.037 C 
BRANCH  41  42
HETATM   42  C20 UNL     1      18.824   1.172   8.864  1.00  0.00    -0.020 C 
HETATM   43  C21 UNL     1      19.357   2.160   7.898  1.00  0.00     0.009 C 
HETATM   44  C22 UNL     1      19.192  -0.223   8.330  1.00  0.00     0.009 C 
ENDBRANCH  41  42
ENDBRANCH  10  41
BRANCH  23  45
HETATM   45  O7  UNL     1      20.156   2.025  18.343  1.00  0.00    -0.360 OA
ATOM     46  H7  UNL     1      20.374   2.745  18.922  1.00  0.00     0.217 HD
ENDBRANCH  23  45
BRANCH  22  47
HETATM   47  O6  UNL     1      17.679   3.261  19.455  1.00  0.00    -0.358 OA
ATOM     48  H6  UNL     1      16.997   2.620  19.618  1.00  0.00     0.217 HD
ENDBRANCH  22  47
BRANCH  15  49
HETATM   49  C25 UNL     1      16.404   4.751  12.738  1.00  0.00     0.035 C 
BRANCH  49  50
HETATM   50  C26 UNL     1      15.525   5.836  13.252  1.00  0.00     0.002 C 
BRANCH  50  51
HETATM   51  C27 UNL     1      15.278   5.859  14.707  1.00  0.00     0.000 C 
BRANCH  51  52
HETATM   52  C28 UNL     1      15.004   7.310  15.187  1.00  0.00     0.007 C 
BRANCH  52  53
HETATM   53  C29 UNL     1      15.996   7.536  16.319  1.00  0.00     0.077 C 
BRANCH  53  54
HETATM   54  C30 UNL     1      17.203   8.227  15.850  1.00  0.00     0.123 C 
HETATM   55  C31 UNL     1      17.313   8.938  14.538  1.00  0.00     0.091 C 
HETATM   56  O4  UNL     1      18.187   8.223  16.575  1.00  0.00    -0.298 OA
ENDBRANCH  53  54
ENDBRANCH  52  53
ENDBRANCH  51  52
ENDBRANCH  50  51
ENDBRANCH  49  50
ENDBRANCH  15  49
BRANCH  18  57
HETATM   57  O5  UNL     1      20.243   6.180  13.968  1.00  0.00    -0.340 OA
ATOM     58  H5  UNL     1      21.075   5.722  13.973  1.00  0.00     0.220 HD
ENDBRANCH  18  57
TORSDOF 17
ENDMDL
MODEL 2
REMARK VINA RESULT: -8.392669137      2.271      6.710
REMARK  17 active torsions:
REMARK  status: ('A' for Active; 'I' for Inactive)
REMARK    1  A    between atoms: C2_2  and  C3_3 
REMARK    2  A    between atoms: C3_3  and  C4_4 
REMARK    3  A    between atoms: C4_4  and  C5_5 
REMARK    4  A    between atoms: C7_10  and  C8_11 
REMARK    5  A    between atoms: C8_11  and  C9_12 
REMARK    6  A    between atoms: C17_24  and  O2_25 
REMARK    7  A    between atoms: C18_27  and  C19_28 
REMARK    8  A    between atoms: C19_28  and  C20_29 
REMARK    9  A    between atoms: C24_36  and  C25_37 
REMARK   10  A    between atoms: C25_37  and  C26_38 
REMARK   11  A    between atoms: C26_38  and  C27_39 
REMARK   12  A    between atoms: C27_39  and  C28_40 
REMARK   13  A    between atoms: C28_40  and  C29_41 
REMARK   14  A    between atoms: C29_41  and  C30_42 
REMARK   15  A    between atoms: C32_47  and  O5_48 
REMARK   16  A    between atoms: C36_53  and  O6_54 
REMARK   17  A    between atoms: C37_56  and  O7_57 
ROOT
HETATM    1  C5  UNL     1      18.463  -1.139   8.483  1.00  0.00     0.144 C 
HETATM    2  N1  UNL     1      17.745  -0.986   9.725  1.00  0.00    -0.345 N 
ATOM      3  H1  UNL     1      17.077  -0.217   9.758  1.00  0.00     0.163 HD
HETATM    4  C6  UNL     1      17.846  -1.755  10.887  1.00  0.00     0.265 C 
HETATM    5  O1  UNL     1      16.757  -1.906  11.549  1.00  0.00    -0.266 OA
HETATM    6  C7  UNL     1      19.029  -2.416  11.455  1.00  0.00     0.083 C 
HETATM    7  N3  UNL     1      19.765  -1.781  12.473  1.00  0.00    -0.338 N 
ATOM      8  H3  UNL     1      20.771  -1.815  12.303  1.00  0.00     0.167 HD
HETATM    9  C17 UNL     1      19.453  -1.118  13.652  1.00  0.00     0.139 C 
HETATM   10  C18 UNL     1      18.364  -0.176  13.996  1.00  0.00     0.159 C 
HETATM   11  N4  UNL     1      18.943   0.920  14.811  1.00  0.00    -0.347 N 
ATOM     12  H4  UNL     1      19.497   0.640  15.620  1.00  0.00     0.163 HD
HETATM   13  C23 UNL     1      18.813   2.281  14.592  1.00  0.00     0.241 C 
HETATM   14  O3  UNL     1      18.488   2.987  15.624  1.00  0.00    -0.271 OA
HETATM   15  C24 UNL     1      18.999   3.024  13.319  1.00  0.00     0.176 C 
HETATM   16  N5  UNL     1      17.778   2.913  12.569  1.00  0.00    -0.350 N 
ATOM     17  H5  UNL     1      16.984   2.600  13.126  1.00  0.00     0.163 HD
HETATM   18  C32 UNL     1      17.468   3.145  11.243  1.00  0.00     0.194 C 
HETATM   19  C33 UNL     1      18.048   2.782  10.046  1.00  0.00    -0.019 C 
HETATM   20  C34 UNL     1      18.475   2.509   9.068  1.00  0.00    -0.067 C 
HETATM   21  C35 UNL     1      18.973   2.208   7.824  1.00  0.00     0.104 C 
HETATM   22  C36 UNL     1      18.847   1.096   7.118  1.00  0.00     0.104 C 
HETATM   23  C37 UNL     1      18.141  -0.118   7.487  1.00  0.00     0.099 C 
ENDROOT
BRANCH   6  24
HETATM   24  C8  UNL     1      18.765  -3.903  11.614  1.00  0.00     0.104 C 
BRANCH  24  25
HETATM   25  C9  UNL     1      18.920  -4.723  10.429  1.00  0.00    -0.025 A 
HETATM   26  C10 UNL     1      20.152  -5.119   9.894  1.00  0.00     0.096 A 
HETATM   27  N2  UNL     1      19.912  -5.920   8.833  1.00  0.00    -0.365 N 
HETATM   28  C11 UNL     1      18.587  -6.050   8.669  1.00  0.00     0.042 A 
ATOM     29  H2  UNL     1      20.625  -6.357   8.249  1.00  0.00     0.165 HD
HETATM   30  C12 UNL     1      17.836  -6.733   7.728  1.00  0.00     0.030 A 
HETATM   31  C16 UNL     1      17.952  -5.312   9.651  1.00  0.00    -0.002 A 
HETATM   32  C13 UNL     1      16.437  -6.688   7.755  1.00  0.00     0.002 A 
HETATM   33  C14 UNL     1      15.788  -5.958   8.723  1.00  0.00     0.001 A 
HETATM   34  C15 UNL     1      16.557  -5.281   9.660  1.00  0.00     0.014 A 
ENDBRANCH  24  25
ENDBRANCH   6  24
BRANCH   9  35
HETATM   35  O2  UNL     1      20.229  -1.325  14.688  1.00  0.00    -0.348 OA
ATOM     36  H2  UNL     1      20.016  -0.870  15.495  1.00  0.00     0.219 HD
ENDBRANCH   9  35
BRANCH   1  37
HETATM   37  C4  UNL     1      18.391  -2.540   7.902  1.00  0.00     0.032 C 
BRANCH  37  38
HETATM   38  C3  UNL     1      19.472  -2.923   6.967  1.00  0.00     0.002 C 
BRANCH  38  39
HETATM   39  C2  UNL     1      18.764  -3.404   5.678  1.00  0.00    -0.004 C 
HETATM   40  C1  UNL     1      18.952  -2.413   4.557  1.00  0.00     0.005 C 
ENDBRANCH  38  39
ENDBRANCH  37  38
ENDBRANCH   1  37
BRANCH  10  41
HETATM   41  C19 UNL     1      17.469  -0.916  14.965  1.00  0.00     0.037 C 
BRANCH  41  42
HETATM   42  C20 UNL     1      17.673  -0.640  16.398  1.00  0.00    -0.020 C 
HETATM   43  C21 UNL     1      16.576   0.020  17.142  1.00  0.00     0.009 C 
HETATM   44  C22 UNL     1      17.919  -2.000  17.073  1.00  0.00     0.009 C 
ENDBRANCH  41  42
ENDBRANCH  10  41
BRANCH  23  45
HETATM   45  O7  UNL     1      17.041  -0.341   6.824  1.00  0.00    -0.360 OA
ATOM     46  H7  UNL     1      16.572   0.444   6.567  1.00  0.00     0.217 HD
ENDBRANCH  23  45
BRANCH  22  47
HETATM   47  O6  UNL     1      19.477   1.065   5.826  1.00  0.00    -0.358 OA
ATOM     48  H6  UNL     1      20.402   0.856   5.800  1.00  0.00     0.217 HD
ENDBRANCH  22  47
BRANCH  15  49
HETATM   49  C25 UNL     1      20.235   2.776  12.569  1.00  0.00     0.035 C 
BRANCH  49  50
HETATM   50  C26 UNL     1      21.012   3.915  12.008  1.00  0.00     0.002 C 
BRANCH  50  51
HETATM   51  C27 UNL     1      20.582   5.271  12.401  1.00  0.00     0.000 C 
BRANCH  51  52
HETATM   52  C28 UNL     1      20.741   5.467  13.934  1.00  0.00     0.007 C 
BRANCH  52  53
HETATM   53  C29 UNL     1      20.110   6.824  14.216  1.00  0.00     0.077 C 
BRANCH  53  54
HETATM   54  C30 UNL     1      18.902   6.696  15.040  1.00  0.00     0.123 C 
HETATM   55  C31 UNL     1      17.565   6.272  14.519  1.00  0.00     0.091 C 
HETATM   56  O4  UNL     1      18.989   6.954  16.231  1.00  0.00    -0.298 OA
ENDBRANCH  53  54
ENDBRANCH  52  53
ENDBRANCH  51  52
ENDBRANCH  50  51
ENDBRANCH  49  50
ENDBRANCH  15  49
BRANCH  18  57
HETATM   57  O5  UNL     1      16.376   3.876  11.089  1.00  0.00    -0.340 OA
ATOM     58  H5  UNL     1      16.436   4.483  10.361  1.00  0.00     0.220 HD
ENDBRANCH  18  57
TORSDOF 17
ENDMDL
MODEL 3
REMARK VINA RESULT: -8.120107070      0.781      1.174
REMARK  17 active torsions:
REMARK  status: ('A' for Active; 'I' for Inactive)
REMARK    1  A    between atoms: C2_2  and  C3_3 
REMARK    2  A    between atoms: C3_3  and  C4_4 
REMARK    3  A    between atoms: C4_4  and  C5_5 
REMARK    4  A    between atoms: C7_10  and  C8_11 
REMARK    5  A    between atoms: C8_11  and  C9_12 
REMARK    6  A    between atoms: C17_24  and  O2_25 
REMARK    7  A    between atoms: C18_27  and  C19_28 
REMARK    8  A    between atoms: C19_28  and  C20_29 
REMARK    9  A    between atoms: C24_36  and  C25_37 
REMARK   10  A    between atoms: C25_37  and  C26_38 
REMARK   11  A    between atoms: C26_38  and  C27_39 
REMARK   12  A    between atoms: C27_39  and  C28_40 
REMARK   13  A    between atoms: C28_40  and  C29_41 
REMARK   14  A    between atoms: C29_41  and  C30_42 
REMARK   15  A    between atoms: C32_47  and  O5_48 
REMARK   16  A    between atoms: C36_53  and  O6_54 
REMARK   17  A    between atoms: C37_56  and  O7_57 
ROOT
HETATM    1  C5  UNL     1      18.713   1.124  16.774  1.00  0.00     0.144 C 
HETATM    2  N1  UNL     1      19.343   1.284  15.486  1.00  0.00    -0.345 N 
ATOM      3  H1  UNL     1      19.950   2.097  15.387  1.00  0.00     0.163 HD
HETATM    4  C6  UNL     1      19.231   0.469  14.356  1.00  0.00     0.265 C 
HETATM    5  O1  UNL     1      20.287   0.374  13.634  1.00  0.00    -0.266 OA
HETATM    6  C7  UNL     1      18.068  -0.296  13.883  1.00  0.00     0.083 C 
HETATM    7  N3  UNL     1      17.228   0.249  12.894  1.00  0.00    -0.338 N 
ATOM      8  H3  UNL     1      16.239   0.148  13.126  1.00  0.00     0.167 HD
HETATM    9  C17 UNL     1      17.420   0.890  11.677  1.00  0.00     0.139 C 
HETATM   10  C18 UNL     1      18.413   1.896  11.238  1.00  0.00     0.159 C 
HETATM   11  N4  UNL     1      17.707   2.917  10.427  1.00  0.00    -0.347 N 
ATOM     12  H4  UNL     1      17.128   2.570   9.662  1.00  0.00     0.163 HD
HETATM   13  C23 UNL     1      17.749   4.291  10.595  1.00  0.00     0.241 C 
HETATM   14  O3  UNL     1      17.959   4.982   9.524  1.00  0.00    -0.271 OA
HETATM   15  C24 UNL     1      17.584   5.063  11.854  1.00  0.00     0.176 C 
HETATM   16  N5  UNL     1      18.852   5.067  12.530  1.00  0.00    -0.350 N 
ATOM     17  H5  UNL     1      19.633   4.794  11.935  1.00  0.00     0.163 HD
HETATM   18  C32 UNL     1      19.222   5.368  13.827  1.00  0.00     0.194 C 
HETATM   19  C33 UNL     1      18.743   5.006  15.068  1.00  0.00    -0.019 C 
HETATM   20  C34 UNL     1      18.396   4.737  16.078  1.00  0.00    -0.067 C 
HETATM   21  C35 UNL     1      17.996   4.446  17.359  1.00  0.00     0.104 C 
HETATM   22  C36 UNL     1      18.246   3.372  18.090  1.00  0.00     0.104 C 
HETATM   23  C37 UNL     1      19.017   2.200  17.716  1.00  0.00     0.099 C 
ENDROOT
BRANCH   6  24
HETATM   24  C8  UNL     1      18.432  -1.765  13.754  1.00  0.00     0.104 C 
BRANCH  24  25
HETATM   25  C9  UNL     1      18.779  -2.235  12.428  1.00  0.00    -0.025 A 
HETATM   26  C10 UNL     1      19.891  -1.798  11.698  1.00  0.00     0.096 A 
HETATM   27  N2  UNL     1      19.933  -2.492  10.539  1.00  0.00    -0.365 N 
HETATM   28  C11 UNL     1      18.900  -3.348  10.501  1.00  0.00     0.042 A 
ATOM     29  H2  UNL     1      20.637  -2.383   9.810  1.00  0.00     0.165 HD
HETATM   30  C12 UNL     1      18.487  -4.252   9.538  1.00  0.00     0.030 A 
HETATM   31  C16 UNL     1      18.170  -3.203  11.666  1.00  0.00    -0.002 A 
HETATM   32  C13 UNL     1      17.335  -5.025   9.726  1.00  0.00     0.002 A 
HETATM   33  C14 UNL     1      16.595  -4.894  10.877  1.00  0.00     0.001 A 
HETATM   34  C15 UNL     1      17.026  -3.983  11.833  1.00  0.00     0.014 A 
ENDBRANCH  24  25
ENDBRANCH   6  24
BRANCH   9  35
HETATM   35  O2  UNL     1      16.602   0.592  10.698  1.00  0.00    -0.348 OA
ATOM     36  H2  UNL     1      15.846   1.153  10.569  1.00  0.00     0.219 HD
ENDBRANCH   9  35
BRANCH   1  37
HETATM   37  C4  UNL     1      18.923  -0.248  17.392  1.00  0.00     0.032 C 
BRANCH  37  38
HETATM   38  C3  UNL     1      17.761  -0.843  18.087  1.00  0.00     0.002 C 
BRANCH  38  39
HETATM   39  C2  UNL     1      16.741  -1.195  16.979  1.00  0.00    -0.004 C 
HETATM   40  C1  UNL     1      16.016  -2.478  17.299  1.00  0.00     0.005 C 
ENDBRANCH  38  39
ENDBRANCH  37  38
ENDBRANCH   1  37
BRANCH  10  41
HETATM   41  C19 UNL     1      19.302   1.189  10.239  1.00  0.00     0.037 C 
BRANCH  41  42
HETATM   42  C20 UNL     1      18.814   1.120   8.850  1.00  0.00    -0.020 C 
HETATM   43  C21 UNL     1      19.370   2.079   7.869  1.00  0.00     0.009 C 
HETATM   44  C22 UNL     1      19.149  -0.292   8.340  1.00  0.00     0.009 C 
ENDBRANCH  41  42
ENDBRANCH  10  41
BRANCH  23  45
HETATM   45  O7  UNL     1      20.168   2.080  18.316  1.00  0.00    -0.360 OA
ATOM     46  H7  UNL     1      20.196   1.397  18.977  1.00  0.00     0.217 HD
ENDBRANCH  23  45
BRANCH  22  47
HETATM   47  O6  UNL     1      17.699   3.341  19.419  1.00  0.00    -0.358 OA
ATOM     48  H6  UNL     1      18.008   2.656  19.999  1.00  0.00     0.217 HD
ENDBRANCH  22  47
BRANCH  15  49
HETATM   49  C25 UNL     1      16.416   4.753  12.686  1.00  0.00     0.035 C 
BRANCH  49  50
HETATM   50  C26 UNL     1      15.574   5.851  13.233  1.00  0.00     0.002 C 
BRANCH  50  51
HETATM   51  C27 UNL     1      15.268   5.799  14.677  1.00  0.00     0.000 C 
BRANCH  51  52
HETATM   52  C28 UNL     1      15.107   7.233  15.250  1.00  0.00     0.007 C 
BRANCH  52  53
HETATM   53  C29 UNL     1      15.495   7.108  16.716  1.00  0.00     0.077 C 
BRANCH  53  54
HETATM   54  C30 UNL     1      14.460   6.414  17.491  1.00  0.00     0.123 C 
HETATM   55  C31 UNL     1      12.999   6.730  17.423  1.00  0.00     0.091 C 
HETATM   56  O4  UNL     1      14.810   5.516  18.243  1.00  0.00    -0.298 OA
ENDBRANCH  53  54
ENDBRANCH  52  53
ENDBRANCH  51  52
ENDBRANCH  50  51
ENDBRANCH  49  50
ENDBRANCH  15  49
BRANCH  18  57
HETATM   57  O5  UNL     1      20.264   6.181  13.890  1.00  0.00    -0.340 OA
ATOM     58  H5  UNL     1      20.056   7.019  14.284  1.00  0.00     0.220 HD
ENDBRANCH  18  57
TORSDOF 17
ENDMDL
MODEL 4
REMARK VINA RESULT: -8.045112409      1.372      1.750
REMARK  17 active torsions:
REMARK  status: ('A' for Active; 'I' for Inactive)
REMARK    1  A    between atoms: C2_2  and  C3_3 
REMARK    2  A    between atoms: C3_3  and  C4_4 
REMARK    3  A    between atoms: C4_4  and  C5_5 
REMARK    4  A    between atoms: C7_10  and  C8_11 
REMARK    5  A    between atoms: C8_11  and  C9_12 
REMARK    6  A    between atoms: C17_24  and  O2_25 
REMARK    7  A    between atoms: C18_27  and  C19_28 
REMARK    8  A    between atoms: C19_28  and  C20_29 
REMARK    9  A    between atoms: C24_36  and  C25_37 
REMARK   10  A    between atoms: C25_37  and  C26_38 
REMARK   11  A    between atoms: C26_38  and  C27_39 
REMARK   12  A    between atoms: C27_39  and  C28_40 
REMARK   13  A    between atoms: C28_40  and  C29_41 
REMARK   14  A    between atoms: C29_41  and  C30_42 
REMARK   15  A    between atoms: C32_47  and  O5_48 
REMARK   16  A    between atoms: C36_53  and  O6_54 
REMARK   17  A    between atoms: C37_56  and  O7_57 
ROOT
HETATM    1  C5  UNL     1      18.724   1.119  16.872  1.00  0.00     0.144 C 
HETATM    2  N1  UNL     1      19.345   1.312  15.584  1.00  0.00    -0.345 N 
ATOM      3  H1  UNL     1      19.934   2.140  15.496  1.00  0.00     0.163 HD
HETATM    4  C6  UNL     1      19.246   0.514  14.442  1.00  0.00     0.265 C 
HETATM    5  O1  UNL     1      20.300   0.452  13.715  1.00  0.00    -0.266 OA
HETATM    6  C7  UNL     1      18.097  -0.268  13.962  1.00  0.00     0.083 C 
HETATM    7  N3  UNL     1      17.242   0.274  12.984  1.00  0.00    -0.338 N 
ATOM      8  H3  UNL     1      16.257   0.148  13.219  1.00  0.00     0.167 HD
HETATM    9  C17 UNL     1      17.415   0.938  11.777  1.00  0.00     0.139 C 
HETATM   10  C18 UNL     1      18.386   1.972  11.350  1.00  0.00     0.159 C 
HETATM   11  N4  UNL     1      17.655   2.990  10.558  1.00  0.00    -0.347 N 
ATOM     12  H4  UNL     1      17.080   2.643   9.790  1.00  0.00     0.163 HD
HETATM   13  C23 UNL     1      17.668   4.361  10.748  1.00  0.00     0.241 C 
HETATM   14  O3  UNL     1      17.859   5.073   9.686  1.00  0.00    -0.271 OA
HETATM   15  C24 UNL     1      17.492   5.110  12.019  1.00  0.00     0.176 C 
HETATM   16  N5  UNL     1      18.762   5.130  12.690  1.00  0.00    -0.350 N 
ATOM     17  H5  UNL     1      19.547   4.883  12.088  1.00  0.00     0.163 HD
HETATM   18  C32 UNL     1      19.131   5.419  13.990  1.00  0.00     0.194 C 
HETATM   19  C33 UNL     1      18.664   5.028  15.227  1.00  0.00    -0.019 C 
HETATM   20  C34 UNL     1      18.327   4.736  16.234  1.00  0.00    -0.067 C 
HETATM   21  C35 UNL     1      17.939   4.416  17.512  1.00  0.00     0.104 C 
HETATM   22  C36 UNL     1      18.214   3.336  18.225  1.00  0.00     0.104 C 
HETATM   23  C37 UNL     1      19.008   2.186  17.830  1.00  0.00     0.099 C 
ENDROOT
BRANCH   6  24
HETATM   24  C8  UNL     1      18.492  -1.727  13.808  1.00  0.00     0.104 C 
BRANCH  24  25
HETATM   25  C9  UNL     1      18.829  -2.173  12.471  1.00  0.00    -0.025 A 
HETATM   26  C10 UNL     1      19.930  -1.715  11.738  1.00  0.00     0.096 A 
HETATM   27  N2  UNL     1      19.966  -2.389  10.567  1.00  0.00    -0.365 N 
HETATM   28  C11 UNL     1      18.940  -3.253  10.525  1.00  0.00     0.042 A 
ATOM     29  H2  UNL     1      20.662  -2.263   9.833  1.00  0.00     0.165 HD
HETATM   30  C12 UNL     1      18.525  -4.144   9.551  1.00  0.00     0.030 A 
HETATM   31  C16 UNL     1      18.221  -3.133  11.700  1.00  0.00    -0.002 A 
HETATM   32  C13 UNL     1      17.381  -4.930   9.738  1.00  0.00     0.002 A 
HETATM   33  C14 UNL     1      16.651  -4.824  10.899  1.00  0.00     0.001 A 
HETATM   34  C15 UNL     1      17.084  -3.925  11.865  1.00  0.00     0.014 A 
ENDBRANCH  24  25
ENDBRANCH   6  24
BRANCH   9  35
HETATM   35  O2  UNL     1      16.600   0.637  10.796  1.00  0.00    -0.348 OA
ATOM     36  H2  UNL     1      16.750   1.054   9.955  1.00  0.00     0.219 HD
ENDBRANCH   9  35
BRANCH   1  37
HETATM   37  C4  UNL     1      18.965  -0.257  17.467  1.00  0.00     0.032 C 
BRANCH  37  38
HETATM   38  C3  UNL     1      17.822  -0.882  18.168  1.00  0.00     0.002 C 
BRANCH  38  39
HETATM   39  C2  UNL     1      16.744  -1.124  17.086  1.00  0.00    -0.004 C 
HETATM   40  C1  UNL     1      16.237  -2.543  17.136  1.00  0.00     0.005 C 
ENDBRANCH  38  39
ENDBRANCH  37  38
ENDBRANCH   1  37
BRANCH  10  41
HETATM   41  C19 UNL     1      19.285   1.299  10.337  1.00  0.00     0.037 C 
BRANCH  41  42
HETATM   42  C20 UNL     1      18.785   1.226   8.953  1.00  0.00    -0.020 C 
HETATM   43  C21 UNL     1      19.307   2.204   7.972  1.00  0.00     0.009 C 
HETATM   44  C22 UNL     1      19.151  -0.174   8.430  1.00  0.00     0.009 C 
ENDBRANCH  41  42
ENDBRANCH  10  41
BRANCH  23  45
HETATM   45  O7  UNL     1      20.164   2.082  18.424  1.00  0.00    -0.360 OA
ATOM     46  H7  UNL     1      20.869   2.555  17.997  1.00  0.00     0.217 HD
ENDBRANCH  23  45
BRANCH  22  47
HETATM   47  O6  UNL     1      17.673   3.273  19.555  1.00  0.00    -0.358 OA
ATOM     48  H6  UNL     1      17.935   2.538  20.096  1.00  0.00     0.217 HD
ENDBRANCH  22  47
BRANCH  15  49
HETATM   49  C25 UNL     1      16.334   4.763  12.850  1.00  0.00     0.035 C 
BRANCH  49  50
HETATM   50  C26 UNL     1      15.387   5.821  13.295  1.00  0.00     0.002 C 
BRANCH  50  51
HETATM   51  C27 UNL     1      15.670   6.463  14.594  1.00  0.00     0.000 C 
BRANCH  51  52
HETATM   52  C28 UNL     1      14.414   6.415  15.508  1.00  0.00     0.007 C 
BRANCH  52  53
HETATM   53  C29 UNL     1      13.251   6.187  14.552  1.00  0.00     0.077 C 
BRANCH  53  54
HETATM   54  C30 UNL     1      11.996   5.955  15.276  1.00  0.00     0.123 C 
HETATM   55  C31 UNL     1      11.537   6.759  16.451  1.00  0.00     0.091 C 
HETATM   56  O4  UNL     1      11.274   5.044  14.898  1.00  0.00    -0.298 OA
ENDBRANCH  53  54
ENDBRANCH  52  53
ENDBRANCH  51  52
ENDBRANCH  50  51
ENDBRANCH  49  50
ENDBRANCH  15  49
BRANCH  18  57
HETATM   57  O5  UNL     1      20.156   6.252  14.062  1.00  0.00    -0.340 OA
ATOM     58  H5  UNL     1      20.080   6.985  13.464  1.00  0.00     0.220 HD
ENDBRANCH  18  57
TORSDOF 17
ENDMDL
MODEL 5
REMARK VINA RESULT: -7.711174394      6.727     12.630
REMARK  17 active torsions:
REMARK  status: ('A' for Active; 'I' for Inactive)
REMARK    1  A    between atoms: C2_2  and  C3_3 
REMARK    2  A    between atoms: C3_3  and  C4_4 
REMARK    3  A    between atoms: C4_4  and  C5_5 
REMARK    4  A    between atoms: C7_10  and  C8_11 
REMARK    5  A    between atoms: C8_11  and  C9_12 
REMARK    6  A    between atoms: C17_24  and  O2_25 
REMARK    7  A    between atoms: C18_27  and  C19_28 
REMARK    8  A    between atoms: C19_28  and  C20_29 
REMARK    9  A    between atoms: C24_36  and  C25_37 
REMARK   10  A    between atoms: C25_37  and  C26_38 
REMARK   11  A    between atoms: C26_38  and  C27_39 
REMARK   12  A    between atoms: C27_39  and  C28_40 
REMARK   13  A    between atoms: C28_40  and  C29_41 
REMARK   14  A    between atoms: C29_41  and  C30_42 
REMARK   15  A    between atoms: C32_47  and  O5_48 
REMARK   16  A    between atoms: C36_53  and  O6_54 
REMARK   17  A    between atoms: C37_56  and  O7_57 
ROOT
HETATM    1  C5  UNL     1      18.624  -3.546   7.315  1.00  0.00     0.144 C 
HETATM    2  N1  UNL     1      18.340  -4.960   7.363  1.00  0.00    -0.345 N 
ATOM      3  H1  UNL     1      18.801  -5.528   6.653  1.00  0.00     0.163 HD
HETATM    4  C6  UNL     1      17.518  -5.652   8.255  1.00  0.00     0.265 C 
HETATM    5  O1  UNL     1      17.904  -6.837   8.561  1.00  0.00    -0.266 OA
HETATM    6  C7  UNL     1      16.271  -5.206   8.894  1.00  0.00     0.083 C 
HETATM    7  N3  UNL     1      15.031  -5.566   8.334  1.00  0.00    -0.338 N 
ATOM      8  H3  UNL     1      14.388  -4.775   8.276  1.00  0.00     0.167 HD
HETATM    9  C17 UNL     1      14.471  -6.737   7.841  1.00  0.00     0.139 C 
HETATM   10  C18 UNL     1      15.038  -7.835   7.025  1.00  0.00     0.159 C 
HETATM   11  N4  UNL     1      14.038  -8.209   5.997  1.00  0.00    -0.347 N 
ATOM     12  H4  UNL     1      13.095  -8.408   6.331  1.00  0.00     0.163 HD
HETATM   13  C23 UNL     1      14.245  -8.317   4.632  1.00  0.00     0.241 C 
HETATM   14  O3  UNL     1      13.791  -9.393   4.079  1.00  0.00    -0.271 OA
HETATM   15  C24 UNL     1      14.925  -7.352   3.731  1.00  0.00     0.176 C 
HETATM   16  N5  UNL     1      16.340  -7.581   3.838  1.00  0.00    -0.350 N 
ATOM     17  H5  UNL     1      16.578  -8.473   4.270  1.00  0.00     0.163 HD
HETATM   18  C32 UNL     1      17.442  -6.832   3.472  1.00  0.00     0.194 C 
HETATM   19  C33 UNL     1      17.805  -5.513   3.648  1.00  0.00    -0.019 C 
HETATM   20  C34 UNL     1      18.135  -4.470   3.772  1.00  0.00    -0.067 C 
HETATM   21  C35 UNL     1      18.589  -3.179   3.886  1.00  0.00     0.104 C 
HETATM   22  C36 UNL     1      19.178  -2.586   4.912  1.00  0.00     0.104 C 
HETATM   23  C37 UNL     1      19.496  -3.157   6.208  1.00  0.00     0.099 C 
ENDROOT
BRANCH   6  24
HETATM   24  C8  UNL     1      16.403  -5.295  10.405  1.00  0.00     0.104 C 
BRANCH  24  25
HETATM   25  C9  UNL     1      17.605  -4.733  10.988  1.00  0.00    -0.025 A 
HETATM   26  C10 UNL     1      18.826  -5.410  11.093  1.00  0.00     0.096 A 
HETATM   27  N2  UNL     1      19.732  -4.562  11.630  1.00  0.00    -0.365 N 
HETATM   28  C11 UNL     1      19.142  -3.381  11.869  1.00  0.00     0.042 A 
ATOM     29  H2  UNL     1      20.708  -4.785  11.821  1.00  0.00     0.165 HD
HETATM   30  C12 UNL     1      19.621  -2.208  12.426  1.00  0.00     0.030 A 
HETATM   31  C16 UNL     1      17.819  -3.467  11.478  1.00  0.00    -0.002 A 
HETATM   32  C13 UNL     1      18.781  -1.101  12.600  1.00  0.00     0.002 A 
HETATM   33  C14 UNL     1      17.461  -1.168  12.218  1.00  0.00     0.001 A 
HETATM   34  C15 UNL     1      17.000  -2.353  11.661  1.00  0.00     0.014 A 
ENDBRANCH  24  25
ENDBRANCH   6  24
BRANCH   9  35
HETATM   35  O2  UNL     1      13.210  -6.969   8.114  1.00  0.00    -0.348 OA
ATOM     36  H2  UNL     1      12.741  -7.572   7.549  1.00  0.00     0.219 HD
ENDBRANCH   9  35
BRANCH   1  37
HETATM   37  C4  UNL     1      19.096  -2.971   8.639  1.00  0.00     0.032 C 
BRANCH  37  38
HETATM   38  C3  UNL     1      19.205  -1.498   8.717  1.00  0.00     0.002 C 
BRANCH  38  39
HETATM   39  C2  UNL     1      17.787  -0.953   8.425  1.00  0.00    -0.004 C 
HETATM   40  C1  UNL     1      17.647   0.471   8.899  1.00  0.00     0.005 C 
ENDBRANCH  38  39
ENDBRANCH  37  38
ENDBRANCH   1  37
BRANCH  10  41
HETATM   41  C19 UNL     1      15.091  -9.040   7.938  1.00  0.00     0.037 C 
BRANCH  41  42
HETATM   42  C20 UNL     1      15.842 -10.209   7.447  1.00  0.00    -0.020 C 
HETATM   43  C21 UNL     1      17.202  -9.985   6.905  1.00  0.00     0.009 C 
HETATM   44  C22 UNL     1      15.988 -11.166   8.643  1.00  0.00     0.009 C 
ENDBRANCH  41  42
ENDBRANCH  10  41
BRANCH  23  45
HETATM   45  O7  UNL     1      20.766  -3.356   6.428  1.00  0.00    -0.360 OA
ATOM     46  H7  UNL     1      21.030  -4.269   6.404  1.00  0.00     0.217 HD
ENDBRANCH  23  45
BRANCH  22  47
HETATM   47  O6  UNL     1      19.558  -1.209   4.744  1.00  0.00    -0.358 OA
ATOM     48  H6  UNL     1      20.472  -0.992   4.883  1.00  0.00     0.217 HD
ENDBRANCH  22  47
BRANCH  15  49
HETATM   49  C25 UNL     1      14.498  -5.950   3.800  1.00  0.00     0.035 C 
BRANCH  49  50
HETATM   50  C26 UNL     1      14.239  -5.184   2.550  1.00  0.00     0.002 C 
BRANCH  50  51
HETATM   51  C27 UNL     1      14.527  -5.873   1.277  1.00  0.00     0.000 C 
BRANCH  51  52
HETATM   52  C28 UNL     1      14.900  -4.842   0.176  1.00  0.00     0.007 C 
BRANCH  52  53
HETATM   53  C29 UNL     1      16.292  -4.357   0.557  1.00  0.00     0.077 C 
BRANCH  53  54
HETATM   54  C30 UNL     1      17.324  -4.951  -0.301  1.00  0.00     0.123 C 
HETATM   55  C31 UNL     1      18.742  -5.180   0.119  1.00  0.00     0.091 C 
HETATM   56  O4  UNL     1      17.010  -5.282  -1.434  1.00  0.00    -0.298 OA
ENDBRANCH  53  54
ENDBRANCH  52  53
ENDBRANCH  51  52
ENDBRANCH  50  51
ENDBRANCH  49  50
ENDBRANCH  15  49
BRANCH  18  57
HETATM   57  O5  UNL     1      18.345  -7.534   2.808  1.00  0.00    -0.340 OA
ATOM     58  H5  UNL     1      19.223  -7.430   3.154  1.00  0.00     0.220 HD
ENDBRANCH  18  57
TORSDOF 17
ENDMDL
