MODEL 1
REMARK VINA RESULT: -7.594998858      0.000      0.000
REMARK  14 active torsions:
REMARK  status: ('A' for Active; 'I' for Inactive)
REMARK    1  A    between atoms: C3_3  and  C4_4 
REMARK    2  A    between atoms: C6_9  and  C7_10 
REMARK    3  A    between atoms: C7_10  and  C8_11 
REMARK    4  A    between atoms: C12_17  and  C13_18 
REMARK    5  A    between atoms: C13_18  and  C14_19 
REMARK    6  A    between atoms: C14_19  and  C15_20 
REMARK    7  A    between atoms: C15_20  and  C16_21 
REMARK    8  A    between atoms: C16_21  and  C17_22 
REMARK    9  A    between atoms: C17_22  and  C18_23 
REMARK   10  A    between atoms: C19_28  and  O5_29 
REMARK   11  A    between atoms: C20_31  and  C21_32 
REMARK   12  A    between atoms: C21_32  and  C22_33 
REMARK   13  A    between atoms: C26_40  and  C27_41 
REMARK   14  A    between atoms: C27_41  and  C28_42 
ROOT
HETATM    1  C1  UNL     1      14.513  -5.077   2.883  1.00  0.00     0.012 C 
HETATM    2  C2  UNL     1      15.511  -4.444   3.103  1.00  0.00    -0.115 C 
HETATM    3  C3  UNL     1      16.697  -3.673   3.340  1.00  0.00     0.128 C 
ENDROOT
BRANCH   3   4
HETATM    4  C4  UNL     1      17.488  -4.237   4.514  1.00  0.00     0.187 C 
HETATM    5  N1  UNL     1      18.805  -3.618   4.597  1.00  0.00    -0.345 N 
HETATM    6  C5  UNL     1      19.152  -2.326   4.962  1.00  0.00     0.241 C 
ATOM      7  H1  UNL     1      19.587  -4.225   4.350  1.00  0.00     0.163 HD
HETATM    8  O1  UNL     1      19.826  -1.662   4.090  1.00  0.00    -0.271 OA
HETATM    9  C6  UNL     1      18.867  -1.583   6.217  1.00  0.00     0.179 C 
HETATM   10  N2  UNL     1      19.283  -2.333   7.381  1.00  0.00    -0.338 N 
HETATM   11  C10 UNL     1      20.524  -3.123   7.102  1.00  0.00     0.154 C 
HETATM   12  C11 UNL     1      18.734  -2.424   8.661  1.00  0.00     0.266 C 
HETATM   13  O2  UNL     1      19.610  -2.266   9.602  1.00  0.00    -0.266 OA
HETATM   14  C12 UNL     1      17.378  -2.662   9.142  1.00  0.00     0.079 C 
HETATM   15  N3  UNL     1      16.706  -3.810   8.651  1.00  0.00    -0.338 N 
HETATM   16  C19 UNL     1      16.462  -5.079   9.188  1.00  0.00     0.139 C 
ATOM     17  H3  UNL     1      16.323  -3.686   7.713  1.00  0.00     0.167 HD
HETATM   18  C20 UNL     1      17.406  -6.145   9.593  1.00  0.00     0.159 C 
HETATM   19  N4  UNL     1      17.167  -7.374   8.831  1.00  0.00    -0.347 N 
HETATM   20  C25 UNL     1      17.261  -7.583   7.474  1.00  0.00     0.241 C 
ATOM     21  H4  UNL     1      16.892  -8.187   9.382  1.00  0.00     0.163 HD
HETATM   22  O6  UNL     1      18.005  -8.548   7.056  1.00  0.00    -0.271 OA
HETATM   23  C26 UNL     1      16.628  -6.863   6.333  1.00  0.00     0.181 C 
HETATM   24  N6  UNL     1      17.598  -6.686   5.264  1.00  0.00    -0.346 N 
HETATM   25  C36 UNL     1      17.600  -5.700   4.263  1.00  0.00     0.242 C 
ATOM     26  H6  UNL     1      18.367  -7.355   5.238  1.00  0.00     0.163 HD
HETATM   27  O7  UNL     1      17.710  -6.108   3.045  1.00  0.00    -0.271 OA
BRANCH   9  28
HETATM   28  C7  UNL     1      17.546  -0.931   6.272  1.00  0.00     0.035 C 
BRANCH  28  29
HETATM   29  C8  UNL     1      17.642   0.579   5.972  1.00  0.00    -0.002 C 
HETATM   30  C9  UNL     1      18.967   1.137   6.416  1.00  0.00     0.005 C 
ENDBRANCH  28  29
ENDBRANCH   9  28
BRANCH  14  31
HETATM   31  C13 UNL     1      17.231  -2.455  10.630  1.00  0.00     0.063 C 
BRANCH  31  32
HETATM   32  C14 UNL     1      17.142  -1.049  11.086  1.00  0.00     0.006 C 
BRANCH  32  33
HETATM   33  C15 UNL     1      17.428  -0.933  12.595  1.00  0.00     0.001 C 
BRANCH  33  34
HETATM   34  C16 UNL     1      18.516  -1.858  13.003  1.00  0.00     0.010 C 
BRANCH  34  35
HETATM   35  C17 UNL     1      19.532  -1.327  13.946  1.00  0.00     0.113 C 
BRANCH  35  36
HETATM   36  C18 UNL     1      19.925   0.069  13.772  1.00  0.00     0.172 C 
HETATM   37  O3  UNL     1      19.584   0.940  14.596  1.00  0.00    -0.648 OA
HETATM   38  O4  UNL     1      20.687   0.448  12.682  1.00  0.00    -0.648 OA
ENDBRANCH  35  36
ENDBRANCH  34  35
ENDBRANCH  33  34
ENDBRANCH  32  33
ENDBRANCH  31  32
ENDBRANCH  14  31
BRANCH  16  39
HETATM   39  O5  UNL     1      15.230  -5.455   9.394  1.00  0.00    -0.348 OA
ATOM     40  H5  UNL     1      14.912  -6.248   8.975  1.00  0.00     0.219 HD
ENDBRANCH  16  39
BRANCH  18  41
HETATM   41  C21 UNL     1      18.844  -5.807   9.598  1.00  0.00     0.037 C 
BRANCH  41  42
HETATM   42  C22 UNL     1      19.307  -5.736  11.061  1.00  0.00    -0.020 C 
HETATM   43  C23 UNL     1      20.249  -4.525  11.105  1.00  0.00     0.009 C 
HETATM   44  C24 UNL     1      18.114  -5.420  11.950  1.00  0.00     0.009 C 
ENDBRANCH  41  42
ENDBRANCH  18  41
BRANCH  23  45
HETATM   45  C27 UNL     1      15.597  -7.826   5.688  1.00  0.00     0.075 C 
BRANCH  45  46
HETATM   46  C28 UNL     1      14.618  -8.347   6.614  1.00  0.00    -0.028 A 
HETATM   47  C29 UNL     1      14.522  -9.646   7.059  1.00  0.00     0.096 A 
HETATM   48  N5  UNL     1      13.469  -9.741   7.926  1.00  0.00    -0.365 N 
HETATM   49  C30 UNL     1      12.882  -8.532   8.050  1.00  0.00     0.042 A 
ATOM     50  H5  UNL     1      13.173 -10.593   8.404  1.00  0.00     0.165 HD
HETATM   51  C31 UNL     1      11.798  -8.127   8.797  1.00  0.00     0.030 A 
HETATM   52  C35 UNL     1      13.600  -7.661   7.231  1.00  0.00    -0.002 A 
HETATM   53  C32 UNL     1      11.387  -6.813   8.747  1.00  0.00     0.002 A 
HETATM   54  C33 UNL     1      12.057  -5.930   7.962  1.00  0.00     0.001 A 
HETATM   55  C34 UNL     1      13.140  -6.353   7.222  1.00  0.00     0.014 A 
ENDBRANCH  45  46
ENDBRANCH  23  45
ENDBRANCH   3   4
TORSDOF 14
ENDMDL
MODEL 2
REMARK VINA RESULT: -7.454333264      1.418      1.657
REMARK  14 active torsions:
REMARK  status: ('A' for Active; 'I' for Inactive)
REMARK    1  A    between atoms: C3_3  and  C4_4 
REMARK    2  A    between atoms: C6_9  and  C7_10 
REMARK    3  A    between atoms: C7_10  and  C8_11 
REMARK    4  A    between atoms: C12_17  and  C13_18 
REMARK    5  A    between atoms: C13_18  and  C14_19 
REMARK    6  A    between atoms: C14_19  and  C15_20 
REMARK    7  A    between atoms: C15_20  and  C16_21 
REMARK    8  A    between atoms: C16_21  and  C17_22 
REMARK    9  A    between atoms: C17_22  and  C18_23 
REMARK   10  A    between atoms: C19_28  and  O5_29 
REMARK   11  A    between atoms: C20_31  and  C21_32 
REMARK   12  A    between atoms: C21_32  and  C22_33 
REMARK   13  A    between atoms: C26_40  and  C27_41 
REMARK   14  A    between atoms: C27_41  and  C28_42 
ROOT
HETATM    1  C1  UNL     1      14.539  -5.025   2.857  1.00  0.00     0.012 C 
HETATM    2  C2  UNL     1      15.527  -4.387   3.106  1.00  0.00    -0.115 C 
HETATM    3  C3  UNL     1      16.702  -3.611   3.378  1.00  0.00     0.128 C 
ENDROOT
BRANCH   3   4
HETATM    4  C4  UNL     1      17.487  -4.201   4.543  1.00  0.00     0.187 C 
HETATM    5  N1  UNL     1      18.807  -3.590   4.640  1.00  0.00    -0.345 N 
HETATM    6  C5  UNL     1      19.159  -2.306   5.031  1.00  0.00     0.241 C 
ATOM      7  H1  UNL     1      19.586  -4.196   4.384  1.00  0.00     0.163 HD
HETATM    8  O1  UNL     1      19.838  -1.629   4.172  1.00  0.00    -0.271 OA
HETATM    9  C6  UNL     1      18.875  -1.586   6.299  1.00  0.00     0.179 C 
HETATM   10  N2  UNL     1      19.285  -2.360   7.449  1.00  0.00    -0.338 N 
HETATM   11  C10 UNL     1      20.522  -3.150   7.158  1.00  0.00     0.154 C 
HETATM   12  C11 UNL     1      18.732  -2.472   8.726  1.00  0.00     0.266 C 
HETATM   13  O2  UNL     1      19.607  -2.336   9.672  1.00  0.00    -0.266 OA
HETATM   14  C12 UNL     1      17.374  -2.713   9.200  1.00  0.00     0.079 C 
HETATM   15  N3  UNL     1      16.698  -3.849   8.685  1.00  0.00    -0.338 N 
HETATM   16  C19 UNL     1      16.447  -5.126   9.198  1.00  0.00     0.139 C 
ATOM     17  H3  UNL     1      16.317  -3.705   7.749  1.00  0.00     0.167 HD
HETATM   18  C20 UNL     1      17.384  -6.204   9.585  1.00  0.00     0.159 C 
HETATM   19  N4  UNL     1      17.141  -7.417   8.799  1.00  0.00    -0.347 N 
HETATM   20  C25 UNL     1      17.238  -7.601   7.439  1.00  0.00     0.241 C 
ATOM     21  H4  UNL     1      16.861  -8.239   9.334  1.00  0.00     0.163 HD
HETATM   22  O6  UNL     1      17.979  -8.561   7.004  1.00  0.00    -0.271 OA
HETATM   23  C26 UNL     1      16.610  -6.857   6.310  1.00  0.00     0.181 C 
HETATM   24  N6  UNL     1      17.584  -6.664   5.246  1.00  0.00    -0.346 N 
HETATM   25  C36 UNL     1      17.593  -5.659   4.264  1.00  0.00     0.242 C 
ATOM     26  H6  UNL     1      18.351  -7.336   5.210  1.00  0.00     0.163 HD
HETATM   27  O7  UNL     1      17.704  -6.045   3.039  1.00  0.00    -0.271 OA
BRANCH   9  28
HETATM   28  C7  UNL     1      17.557  -0.929   6.364  1.00  0.00     0.035 C 
BRANCH  28  29
HETATM   29  C8  UNL     1      17.654   0.579   6.051  1.00  0.00    -0.002 C 
HETATM   30  C9  UNL     1      18.971   1.144   6.512  1.00  0.00     0.005 C 
ENDBRANCH  28  29
ENDBRANCH   9  28
BRANCH  14  31
HETATM   31  C13 UNL     1      17.225  -2.533  10.691  1.00  0.00     0.063 C 
BRANCH  31  32
HETATM   32  C14 UNL     1      17.450  -1.164  11.207  1.00  0.00     0.006 C 
BRANCH  32  33
HETATM   33  C15 UNL     1      16.861  -0.105  10.255  1.00  0.00     0.001 C 
BRANCH  33  34
HETATM   34  C16 UNL     1      17.813   1.017  10.055  1.00  0.00     0.010 C 
BRANCH  34  35
HETATM   35  C17 UNL     1      17.791   2.105  11.065  1.00  0.00     0.113 C 
BRANCH  35  36
HETATM   36  C18 UNL     1      17.515   3.453  10.576  1.00  0.00     0.172 C 
HETATM   37  O3  UNL     1      16.651   4.169  11.117  1.00  0.00    -0.648 OA
HETATM   38  O4  UNL     1      18.216   3.959   9.495  1.00  0.00    -0.648 OA
ENDBRANCH  35  36
ENDBRANCH  34  35
ENDBRANCH  33  34
ENDBRANCH  32  33
ENDBRANCH  31  32
ENDBRANCH  14  31
BRANCH  16  39
HETATM   39  O5  UNL     1      15.212  -5.500   9.394  1.00  0.00    -0.348 OA
ATOM     40  H5  UNL     1      14.631  -5.587   8.647  1.00  0.00     0.219 HD
ENDBRANCH  16  39
BRANCH  18  41
HETATM   41  C21 UNL     1      18.824  -5.873   9.599  1.00  0.00     0.037 C 
BRANCH  41  42
HETATM   42  C22 UNL     1      19.280  -5.816  11.065  1.00  0.00    -0.020 C 
HETATM   43  C23 UNL     1      20.187  -4.579  11.135  1.00  0.00     0.009 C 
HETATM   44  C24 UNL     1      18.076  -5.551  11.955  1.00  0.00     0.009 C 
ENDBRANCH  41  42
ENDBRANCH  18  41
BRANCH  23  45
HETATM   45  C27 UNL     1      15.577  -7.802   5.645  1.00  0.00     0.075 C 
BRANCH  45  46
HETATM   46  C28 UNL     1      14.608  -8.354   6.563  1.00  0.00    -0.028 A 
HETATM   47  C29 UNL     1      14.518  -9.666   6.968  1.00  0.00     0.096 A 
HETATM   48  N5  UNL     1      13.473  -9.791   7.841  1.00  0.00    -0.365 N 
HETATM   49  C30 UNL     1      12.884  -8.588   8.007  1.00  0.00     0.042 A 
ATOM     50  H5  UNL     1      13.183 -10.657   8.294  1.00  0.00     0.165 HD
HETATM   51  C31 UNL     1      11.806  -8.208   8.775  1.00  0.00     0.030 A 
HETATM   52  C35 UNL     1      13.593  -7.690   7.209  1.00  0.00    -0.002 A 
HETATM   53  C32 UNL     1      11.391  -6.895   8.769  1.00  0.00     0.002 A 
HETATM   54  C33 UNL     1      12.052  -5.987   8.006  1.00  0.00     0.001 A 
HETATM   55  C34 UNL     1      13.129  -6.384   7.244  1.00  0.00     0.014 A 
ENDBRANCH  45  46
ENDBRANCH  23  45
ENDBRANCH   3   4
TORSDOF 14
ENDMDL
MODEL 3
REMARK VINA RESULT: -7.318130829      8.947     14.722
REMARK  14 active torsions:
REMARK  status: ('A' for Active; 'I' for Inactive)
REMARK    1  A    between atoms: C3_3  and  C4_4 
REMARK    2  A    between atoms: C6_9  and  C7_10 
REMARK    3  A    between atoms: C7_10  and  C8_11 
REMARK    4  A    between atoms: C12_17  and  C13_18 
REMARK    5  A    between atoms: C13_18  and  C14_19 
REMARK    6  A    between atoms: C14_19  and  C15_20 
REMARK    7  A    between atoms: C15_20  and  C16_21 
REMARK    8  A    between atoms: C16_21  and  C17_22 
REMARK    9  A    between atoms: C17_22  and  C18_23 
REMARK   10  A    between atoms: C19_28  and  O5_29 
REMARK   11  A    between atoms: C20_31  and  C21_32 
REMARK   12  A    between atoms: C21_32  and  C22_33 
REMARK   13  A    between atoms: C26_40  and  C27_41 
REMARK   14  A    between atoms: C27_41  and  C28_42 
ROOT
HETATM    1  C1  UNL     1      17.312   0.570  17.544  1.00  0.00     0.012 C 
HETATM    2  C2  UNL     1      17.031   1.439  18.327  1.00  0.00    -0.115 C 
HETATM    3  C3  UNL     1      16.684   2.454  19.277  1.00  0.00     0.128 C 
ENDROOT
BRANCH   3   4
HETATM    4  C4  UNL     1      16.969   3.843  18.720  1.00  0.00     0.187 C 
HETATM    5  N1  UNL     1      18.393   4.013  18.456  1.00  0.00    -0.345 N 
HETATM    6  C5  UNL     1      19.183   3.437  17.472  1.00  0.00     0.241 C 
ATOM      7  H1  UNL     1      18.879   4.648  19.088  1.00  0.00     0.163 HD
HETATM    8  O1  UNL     1      20.202   2.773  17.893  1.00  0.00    -0.271 OA
HETATM    9  C6  UNL     1      19.037   3.470  15.994  1.00  0.00     0.179 C 
HETATM   10  N2  UNL     1      18.912   4.827  15.507  1.00  0.00    -0.338 N 
HETATM   11  C10 UNL     1      19.738   5.774  16.320  1.00  0.00     0.154 C 
HETATM   12  C11 UNL     1      18.178   5.358  14.444  1.00  0.00     0.266 C 
HETATM   13  O2  UNL     1      18.878   6.138  13.684  1.00  0.00    -0.266 OA
HETATM   14  C12 UNL     1      16.789   5.208  14.028  1.00  0.00     0.079 C 
HETATM   15  N3  UNL     1      15.788   5.472  14.998  1.00  0.00    -0.338 N 
HETATM   16  C19 UNL     1      14.956   6.570  15.239  1.00  0.00     0.139 C 
ATOM     17  H3  UNL     1      15.645   4.703  15.653  1.00  0.00     0.167 HD
HETATM   18  C20 UNL     1      15.292   7.963  15.612  1.00  0.00     0.159 C 
HETATM   19  N4  UNL     1      14.688   8.321  16.899  1.00  0.00    -0.347 N 
HETATM   20  C25 UNL     1      14.902   7.767  18.139  1.00  0.00     0.241 C 
ATOM     21  H4  UNL     1      14.016   9.088  16.870  1.00  0.00     0.163 HD
HETATM   22  O6  UNL     1      15.233   8.549  19.108  1.00  0.00    -0.271 OA
HETATM   23  C26 UNL     1      14.816   6.352  18.601  1.00  0.00     0.181 C 
HETATM   24  N6  UNL     1      15.930   6.056  19.489  1.00  0.00    -0.346 N 
HETATM   25  C36 UNL     1      16.501   4.801  19.759  1.00  0.00     0.242 C 
ATOM     26  H6  UNL     1      16.344   6.853  19.973  1.00  0.00     0.163 HD
HETATM   27  O7  UNL     1      16.624   4.472  20.999  1.00  0.00    -0.271 OA
BRANCH   9  28
HETATM   28  C7  UNL     1      18.117   2.465  15.432  1.00  0.00     0.035 C 
BRANCH  28  29
HETATM   29  C8  UNL     1      18.675   1.842  14.136  1.00  0.00    -0.002 C 
HETATM   30  C9  UNL     1      19.115   0.421  14.364  1.00  0.00     0.005 C 
ENDBRANCH  28  29
ENDBRANCH   9  28
BRANCH  14  31
HETATM   31  C13 UNL     1      16.506   5.813  12.675  1.00  0.00     0.063 C 
BRANCH  31  32
HETATM   32  C14 UNL     1      16.388   4.860  11.548  1.00  0.00     0.006 C 
BRANCH  32  33
HETATM   33  C15 UNL     1      17.644   4.892  10.656  1.00  0.00     0.001 C 
BRANCH  33  34
HETATM   34  C16 UNL     1      18.502   3.706  10.904  1.00  0.00     0.010 C 
BRANCH  34  35
HETATM   35  C17 UNL     1      18.519   2.658   9.852  1.00  0.00     0.113 C 
BRANCH  35  36
HETATM   36  C18 UNL     1      17.677   1.486  10.077  1.00  0.00     0.172 C 
HETATM   37  O3  UNL     1      17.584   0.587   9.219  1.00  0.00    -0.648 OA
HETATM   38  O4  UNL     1      16.963   1.357  11.255  1.00  0.00    -0.648 OA
ENDBRANCH  35  36
ENDBRANCH  34  35
ENDBRANCH  33  34
ENDBRANCH  32  33
ENDBRANCH  31  32
ENDBRANCH  14  31
BRANCH  16  39
HETATM   39  O5  UNL     1      13.663   6.422  15.141  1.00  0.00    -0.348 OA
ATOM     40  H5  UNL     1      13.105   6.750  15.837  1.00  0.00     0.219 HD
ENDBRANCH  16  39
BRANCH  18  41
HETATM   41  C21 UNL     1      16.719   8.342  15.583  1.00  0.00     0.037 C 
BRANCH  41  42
HETATM   42  C22 UNL     1      16.798   9.873  15.480  1.00  0.00    -0.020 C 
HETATM   43  C23 UNL     1      17.590  10.300  16.724  1.00  0.00     0.009 C 
HETATM   44  C24 UNL     1      17.623  10.252  14.260  1.00  0.00     0.009 C 
ENDBRANCH  41  42
ENDBRANCH  18  41
BRANCH  23  45
HETATM   45  C27 UNL     1      13.596   6.244  19.551  1.00  0.00     0.075 C 
BRANCH  45  46
HETATM   46  C28 UNL     1      12.320   6.237  18.873  1.00  0.00    -0.028 A 
HETATM   47  C29 UNL     1      12.087   6.589  17.563  1.00  0.00     0.096 A 
HETATM   48  N5  UNL     1      10.753   6.449  17.297  1.00  0.00    -0.365 N 
HETATM   49  C30 UNL     1      10.119   6.014  18.407  1.00  0.00     0.042 A 
ATOM     50  H5  UNL     1      10.307   6.642  16.400  1.00  0.00     0.165 HD
HETATM   51  C31 UNL     1       8.791   5.730  18.635  1.00  0.00     0.030 A 
HETATM   52  C35 UNL     1      11.098   5.882  19.391  1.00  0.00    -0.002 A 
HETATM   53  C32 UNL     1       8.390   5.296  19.879  1.00  0.00     0.002 A 
HETATM   54  C33 UNL     1       9.310   5.154  20.868  1.00  0.00     0.001 A 
HETATM   55  C34 UNL     1      10.634   5.442  20.622  1.00  0.00     0.014 A 
ENDBRANCH  45  46
ENDBRANCH  23  45
ENDBRANCH   3   4
TORSDOF 14
ENDMDL
MODEL 4
REMARK VINA RESULT: -6.950950493      2.410      6.252
REMARK  14 active torsions:
REMARK  status: ('A' for Active; 'I' for Inactive)
REMARK    1  A    between atoms: C3_3  and  C4_4 
REMARK    2  A    between atoms: C6_9  and  C7_10 
REMARK    3  A    between atoms: C7_10  and  C8_11 
REMARK    4  A    between atoms: C12_17  and  C13_18 
REMARK    5  A    between atoms: C13_18  and  C14_19 
REMARK    6  A    between atoms: C14_19  and  C15_20 
REMARK    7  A    between atoms: C15_20  and  C16_21 
REMARK    8  A    between atoms: C16_21  and  C17_22 
REMARK    9  A    between atoms: C17_22  and  C18_23 
REMARK   10  A    between atoms: C19_28  and  O5_29 
REMARK   11  A    between atoms: C20_31  and  C21_32 
REMARK   12  A    between atoms: C21_32  and  C22_33 
REMARK   13  A    between atoms: C26_40  and  C27_41 
REMARK   14  A    between atoms: C27_41  and  C28_42 
ROOT
HETATM    1  C1  UNL     1      17.453  -9.211   3.723  1.00  0.00     0.012 C 
HETATM    2  C2  UNL     1      16.451  -8.559   3.851  1.00  0.00    -0.115 C 
HETATM    3  C3  UNL     1      15.243  -7.797   3.982  1.00  0.00     0.128 C 
ENDROOT
BRANCH   3   4
HETATM    4  C4  UNL     1      15.448  -6.605   4.908  1.00  0.00     0.187 C 
HETATM    5  N1  UNL     1      14.572  -6.694   6.070  1.00  0.00    -0.345 N 
HETATM    6  C5  UNL     1      14.623  -7.564   7.150  1.00  0.00     0.241 C 
ATOM      7  H1  UNL     1      13.809  -6.018   6.091  1.00  0.00     0.163 HD
HETATM    8  O1  UNL     1      13.562  -8.264   7.351  1.00  0.00    -0.271 OA
HETATM    9  C6  UNL     1      15.720  -7.811   8.120  1.00  0.00     0.179 C 
HETATM   10  N2  UNL     1      16.183  -6.579   8.719  1.00  0.00    -0.338 N 
HETATM   11  C10 UNL     1      15.056  -5.612   8.910  1.00  0.00     0.154 C 
HETATM   12  C11 UNL     1      17.455  -6.178   9.131  1.00  0.00     0.266 C 
HETATM   13  O2  UNL     1      17.468  -5.675  10.324  1.00  0.00    -0.266 OA
HETATM   14  C12 UNL     1      18.761  -6.212   8.483  1.00  0.00     0.079 C 
HETATM   15  N3  UNL     1      18.866  -5.620   7.199  1.00  0.00    -0.338 N 
HETATM   16  C19 UNL     1      19.360  -4.390   6.751  1.00  0.00     0.139 C 
ATOM     17  H3  UNL     1      18.509  -6.211   6.448  1.00  0.00     0.167 HD
HETATM   18  C20 UNL     1      18.907  -3.011   7.046  1.00  0.00     0.159 C 
HETATM   19  N4  UNL     1      18.508  -2.317   5.818  1.00  0.00    -0.347 N 
HETATM   20  C25 UNL     1      17.502  -2.631   4.934  1.00  0.00     0.241 C 
ATOM     21  H4  UNL     1      19.052  -1.485   5.587  1.00  0.00     0.163 HD
HETATM   22  O6  UNL     1      16.634  -1.722   4.649  1.00  0.00    -0.271 OA
HETATM   23  C26 UNL     1      17.211  -3.896   4.201  1.00  0.00     0.181 C 
HETATM   24  N6  UNL     1      15.780  -4.158   4.221  1.00  0.00    -0.346 N 
HETATM   25  C36 UNL     1      15.134  -5.399   4.093  1.00  0.00     0.242 C 
ATOM     26  H6  UNL     1      15.175  -3.346   4.341  1.00  0.00     0.163 HD
HETATM   27  O7  UNL     1      14.204  -5.483   3.205  1.00  0.00    -0.271 OA
BRANCH   9  28
HETATM   28  C7  UNL     1      16.746  -8.771   7.674  1.00  0.00     0.035 C 
BRANCH  28  29
HETATM   29  C8  UNL     1      16.181 -10.203   7.569  1.00  0.00    -0.002 C 
HETATM   30  C9  UNL     1      17.196 -11.143   6.976  1.00  0.00     0.005 C 
ENDBRANCH  28  29
ENDBRANCH   9  28
BRANCH  14  31
HETATM   31  C13 UNL     1      19.895  -5.863   9.416  1.00  0.00     0.063 C 
BRANCH  31  32
HETATM   32  C14 UNL     1      19.954  -4.455   9.870  1.00  0.00     0.006 C 
BRANCH  32  33
HETATM   33  C15 UNL     1      20.060  -4.368  11.405  1.00  0.00     0.001 C 
BRANCH  33  34
HETATM   34  C16 UNL     1      19.665  -3.021  11.890  1.00  0.00     0.010 C 
BRANCH  34  35
HETATM   35  C17 UNL     1      18.220  -2.797  12.145  1.00  0.00     0.113 C 
BRANCH  35  36
HETATM   36  C18 UNL     1      17.816  -1.439  12.500  1.00  0.00     0.172 C 
HETATM   37  O3  UNL     1      18.481  -0.761  13.305  1.00  0.00    -0.648 OA
HETATM   38  O4  UNL     1      16.680  -0.882  11.941  1.00  0.00    -0.648 OA
ENDBRANCH  35  36
ENDBRANCH  34  35
ENDBRANCH  33  34
ENDBRANCH  32  33
ENDBRANCH  31  32
ENDBRANCH  14  31
BRANCH  16  39
HETATM   39  O5  UNL     1      20.382  -4.372   5.941  1.00  0.00    -0.348 OA
ATOM     40  H5  UNL     1      20.243  -4.152   5.026  1.00  0.00     0.219 HD
ENDBRANCH  16  39
BRANCH  18  41
HETATM   41  C21 UNL     1      17.877  -2.849   8.093  1.00  0.00     0.037 C 
BRANCH  41  42
HETATM   42  C22 UNL     1      18.091  -1.481   8.757  1.00  0.00    -0.020 C 
HETATM   43  C23 UNL     1      19.572  -1.162   8.505  1.00  0.00     0.009 C 
HETATM   44  C24 UNL     1      17.266  -0.433   8.026  1.00  0.00     0.009 C 
ENDBRANCH  41  42
ENDBRANCH  18  41
BRANCH  23  45
HETATM   45  C27 UNL     1      17.480  -3.636   2.696  1.00  0.00     0.075 C 
BRANCH  45  46
HETATM   46  C28 UNL     1      17.460  -4.828   1.880  1.00  0.00    -0.028 A 
HETATM   47  C29 UNL     1      18.321  -5.898   1.972  1.00  0.00     0.096 A 
HETATM   48  N5  UNL     1      17.976  -6.827   1.029  1.00  0.00    -0.365 N 
HETATM   49  C30 UNL     1      16.912  -6.380   0.330  1.00  0.00     0.042 A 
ATOM     50  H5  UNL     1      18.450  -7.718   0.878  1.00  0.00     0.165 HD
HETATM   51  C31 UNL     1      16.211  -6.949  -0.710  1.00  0.00     0.030 A 
HETATM   52  C35 UNL     1      16.589  -5.132   0.861  1.00  0.00    -0.002 A 
HETATM   53  C32 UNL     1      15.145  -6.277  -1.264  1.00  0.00     0.002 A 
HETATM   54  C33 UNL     1      14.795  -5.057  -0.778  1.00  0.00     0.001 A 
HETATM   55  C34 UNL     1      15.508  -4.503   0.263  1.00  0.00     0.014 A 
ENDBRANCH  45  46
ENDBRANCH  23  45
ENDBRANCH   3   4
TORSDOF 14
ENDMDL
MODEL 5
REMARK VINA RESULT: -6.779719165     12.947     17.101
REMARK  14 active torsions:
REMARK  status: ('A' for Active; 'I' for Inactive)
REMARK    1  A    between atoms: C3_3  and  C4_4 
REMARK    2  A    between atoms: C6_9  and  C7_10 
REMARK    3  A    between atoms: C7_10  and  C8_11 
REMARK    4  A    between atoms: C12_17  and  C13_18 
REMARK    5  A    between atoms: C13_18  and  C14_19 
REMARK    6  A    between atoms: C14_19  and  C15_20 
REMARK    7  A    between atoms: C15_20  and  C16_21 
REMARK    8  A    between atoms: C16_21  and  C17_22 
REMARK    9  A    between atoms: C17_22  and  C18_23 
REMARK   10  A    between atoms: C19_28  and  O5_29 
REMARK   11  A    between atoms: C20_31  and  C21_32 
REMARK   12  A    between atoms: C21_32  and  C22_33 
REMARK   13  A    between atoms: C26_40  and  C27_41 
REMARK   14  A    between atoms: C27_41  and  C28_42 
ROOT
HETATM    1  C1  UNL     1      15.760   5.817  14.406  1.00  0.00     0.012 C 
HETATM    2  C2  UNL     1      16.021   6.967  14.644  1.00  0.00    -0.115 C 
HETATM    3  C3  UNL     1      16.350   8.338  14.906  1.00  0.00     0.128 C 
ENDROOT
BRANCH   3   4
HETATM    4  C4  UNL     1      15.753   8.798  16.230  1.00  0.00     0.187 C 
HETATM    5  N1  UNL     1      14.986  10.026  16.053  1.00  0.00    -0.345 N 
HETATM    6  C5  UNL     1      13.769  10.221  15.416  1.00  0.00     0.241 C 
ATOM      7  H1  UNL     1      15.405  10.863  16.457  1.00  0.00     0.163 HD
HETATM    8  O1  UNL     1      13.772  11.085  14.462  1.00  0.00    -0.271 OA
HETATM    9  C6  UNL     1      12.450   9.586  15.669  1.00  0.00     0.179 C 
HETATM   10  N2  UNL     1      12.069   9.695  17.060  1.00  0.00    -0.338 N 
HETATM   11  C10 UNL     1      12.537  10.988  17.651  1.00  0.00     0.154 C 
HETATM   12  C11 UNL     1      11.362   8.824  17.891  1.00  0.00     0.266 C 
HETATM   13  O2  UNL     1      10.413   9.408  18.549  1.00  0.00    -0.266 OA
HETATM   14  C12 UNL     1      11.486   7.396  18.162  1.00  0.00     0.079 C 
HETATM   15  N3  UNL     1      12.761   6.917  18.556  1.00  0.00    -0.338 N 
HETATM   16  C19 UNL     1      13.313   6.575  19.795  1.00  0.00     0.139 C 
ATOM     17  H3  UNL     1      13.408   6.797  17.776  1.00  0.00     0.167 HD
HETATM   18  C20 UNL     1      13.562   7.406  20.995  1.00  0.00     0.159 C 
HETATM   19  N4  UNL     1      14.987   7.420  21.337  1.00  0.00    -0.347 N 
HETATM   20  C25 UNL     1      16.051   7.883  20.598  1.00  0.00     0.241 C 
ATOM     21  H4  UNL     1      15.223   7.031  22.251  1.00  0.00     0.163 HD
HETATM   22  O6  UNL     1      16.843   8.741  21.141  1.00  0.00    -0.271 OA
HETATM   23  C26 UNL     1      16.484   7.559  19.209  1.00  0.00     0.181 C 
HETATM   24  N6  UNL     1      16.893   8.777  18.525  1.00  0.00    -0.346 N 
HETATM   25  C36 UNL     1      16.909   9.019  17.142  1.00  0.00     0.242 C 
ATOM     26  H6  UNL     1      17.205   9.544  19.120  1.00  0.00     0.163 HD
HETATM   27  O7  UNL     1      18.010   9.465  16.642  1.00  0.00    -0.271 OA
BRANCH   9  28
HETATM   28  C7  UNL     1      12.248   8.280  15.016  1.00  0.00     0.035 C 
BRANCH  28  29
HETATM   29  C8  UNL     1      10.928   8.237  14.220  1.00  0.00    -0.002 C 
HETATM   30  C9  UNL     1       9.993   7.198  14.777  1.00  0.00     0.005 C 
ENDBRANCH  28  29
ENDBRANCH   9  28
BRANCH  14  31
HETATM   31  C13 UNL     1      10.344   6.847  18.981  1.00  0.00     0.063 C 
BRANCH  31  32
HETATM   32  C14 UNL     1      10.074   5.399  18.834  1.00  0.00     0.006 C 
BRANCH  32  33
HETATM   33  C15 UNL     1      10.234   4.662  20.178  1.00  0.00     0.001 C 
BRANCH  33  34
HETATM   34  C16 UNL     1       8.912   4.274  20.732  1.00  0.00     0.010 C 
BRANCH  34  35
HETATM   35  C17 UNL     1       8.066   5.366  21.277  1.00  0.00     0.113 C 
BRANCH  35  36
HETATM   36  C18 UNL     1       8.568   6.058  22.461  1.00  0.00     0.172 C 
HETATM   37  O3  UNL     1       9.114   5.432  23.389  1.00  0.00    -0.648 OA
HETATM   38  O4  UNL     1       8.442   7.432  22.571  1.00  0.00    -0.648 OA
ENDBRANCH  35  36
ENDBRANCH  34  35
ENDBRANCH  33  34
ENDBRANCH  32  33
ENDBRANCH  31  32
ENDBRANCH  14  31
BRANCH  16  39
HETATM   39  O5  UNL     1      13.696   5.346  20.003  1.00  0.00    -0.348 OA
ATOM     40  H5  UNL     1      13.563   4.958  20.861  1.00  0.00     0.219 HD
ENDBRANCH  16  39
BRANCH  18  41
HETATM   41  C21 UNL     1      13.016   8.779  20.989  1.00  0.00     0.037 C 
BRANCH  41  42
HETATM   42  C22 UNL     1      11.668   8.753  21.727  1.00  0.00    -0.020 C 
HETATM   43  C23 UNL     1      11.926   7.876  22.961  1.00  0.00     0.009 C 
HETATM   44  C24 UNL     1      11.340  10.154  22.221  1.00  0.00     0.009 C 
ENDBRANCH  41  42
ENDBRANCH  18  41
BRANCH  23  45
HETATM   45  C27 UNL     1      17.815   6.771  19.307  1.00  0.00     0.075 C 
BRANCH  45  46
HETATM   46  C28 UNL     1      17.852   5.574  18.499  1.00  0.00    -0.028 A 
HETATM   47  C29 UNL     1      17.320   4.348  18.827  1.00  0.00     0.096 A 
HETATM   48  N5  UNL     1      17.558   3.473  17.804  1.00  0.00    -0.365 N 
HETATM   49  C30 UNL     1      18.233   4.106  16.822  1.00  0.00     0.042 A 
ATOM     50  H5  UNL     1      17.270   2.494  17.786  1.00  0.00     0.165 HD
HETATM   51  C31 UNL     1      18.695   3.654  15.606  1.00  0.00     0.030 A 
HETATM   52  C35 UNL     1      18.416   5.419  17.256  1.00  0.00    -0.002 A 
HETATM   53  C32 UNL     1      19.370   4.514  14.769  1.00  0.00     0.002 A 
HETATM   54  C33 UNL     1      19.573   5.801  15.152  1.00  0.00     0.001 A 
HETATM   55  C34 UNL     1      19.103   6.237  16.371  1.00  0.00     0.014 A 
ENDBRANCH  45  46
ENDBRANCH  23  45
ENDBRANCH   3   4
TORSDOF 14
ENDMDL
