MODEL 1
REMARK VINA RESULT: -5.194329942      0.000      0.000
REMARK  5 active torsions:
REMARK  status: ('A' for Active; 'I' for Inactive)
REMARK    1  A    between atoms: C5_8  and  C6_9 
REMARK    2  A    between atoms: C6_9  and  N2_11 
REMARK    3  A    between atoms: N2_11  and  N3_13 
REMARK    4  A    between atoms: C8_15  and  C9_16 
REMARK    5  A    between atoms: C9_16  and  N4_17 
ROOT
HETATM    1  C6  UNL     1      44.944  41.530  58.441  1.00  0.00     0.105 C 
HETATM    2  C7  UNL     1      43.654  41.802  59.170  1.00  0.00     0.034 C 
ENDROOT
BRANCH   1   3
HETATM    3  C5  UNL     1      45.946  42.627  58.537  1.00  0.00     0.065 C 
HETATM    4  C2  UNL     1      47.337  42.199  58.722  1.00  0.00    -0.056 C 
HETATM    5  C1  UNL     1      48.185  41.892  57.762  1.00  0.00     0.016 C 
HETATM    6  C3  UNL     1      47.608  42.180  60.166  1.00  0.00     0.266 C 
HETATM    7  N1  UNL     1      46.606  43.017  60.796  1.00  0.00    -0.071 N 
HETATM    8  C4  UNL     1      45.681  43.442  59.781  1.00  0.00     0.243 C 
ATOM      9  H12 UNL     1      46.146  42.559  61.583  1.00  0.00     0.277 HD
ATOM     10  H11 UNL     1      47.012  43.798  61.313  1.00  0.00     0.277 HD
ENDBRANCH   1   3
BRANCH   1  11
HETATM   11  N2  UNL     1      45.434  40.240  58.864  1.00  0.00    -0.332 N 
ATOM     12  H2  UNL     1      46.295  40.155  59.405  1.00  0.00     0.180 HD
BRANCH  11  13
HETATM   13  N3  UNL     1      44.693  39.113  58.510  1.00  0.00    -0.318 N 
HETATM   14  C8  UNL     1      45.171  38.119  57.866  1.00  0.00     0.106 C 
ATOM     15  H3  UNL     1      43.710  39.080  58.781  1.00  0.00     0.185 HD
BRANCH  14  16
HETATM   16  C9  UNL     1      44.228  36.990  57.570  1.00  0.00     0.275 C 
BRANCH  16  17
HETATM   17  N4  UNL     1      44.071  36.172  58.763  1.00  0.00    -0.075 N 
ATOM     18  H43 UNL     1      43.469  36.613  59.459  1.00  0.00     0.274 HD
ATOM     19  H42 UNL     1      43.507  35.341  58.591  1.00  0.00     0.274 HD
ATOM     20  H41 UNL     1      44.993  35.945  59.138  1.00  0.00     0.274 HD
ENDBRANCH  16  17
ENDBRANCH  14  16
ENDBRANCH  11  13
ENDBRANCH   1  11
TORSDOF 5
ENDMDL
MODEL 2
REMARK VINA RESULT: -5.137278623      1.481      2.122
REMARK  5 active torsions:
REMARK  status: ('A' for Active; 'I' for Inactive)
REMARK    1  A    between atoms: C5_8  and  C6_9 
REMARK    2  A    between atoms: C6_9  and  N2_11 
REMARK    3  A    between atoms: N2_11  and  N3_13 
REMARK    4  A    between atoms: C8_15  and  C9_16 
REMARK    5  A    between atoms: C9_16  and  N4_17 
ROOT
HETATM    1  C6  UNL     1      45.301  42.089  59.064  1.00  0.00     0.105 C 
HETATM    2  C7  UNL     1      44.734  43.423  59.474  1.00  0.00     0.034 C 
ENDROOT
BRANCH   1   3
HETATM    3  C5  UNL     1      46.664  41.813  59.596  1.00  0.00     0.065 C 
HETATM    4  C2  UNL     1      47.297  42.920  60.322  1.00  0.00    -0.056 C 
HETATM    5  C1  UNL     1      47.158  43.181  61.605  1.00  0.00     0.016 C 
HETATM    6  C3  UNL     1      48.111  43.675  59.359  1.00  0.00     0.266 C 
HETATM    7  N1  UNL     1      48.355  42.798  58.231  1.00  0.00    -0.071 N 
HETATM    8  C4  UNL     1      47.615  41.584  58.445  1.00  0.00     0.243 C 
ATOM      9  H12 UNL     1      48.142  43.238  57.335  1.00  0.00     0.277 HD
ATOM     10  H11 UNL     1      49.349  42.632  58.067  1.00  0.00     0.277 HD
ENDBRANCH   1   3
BRANCH   1  11
HETATM   11  N2  UNL     1      44.325  41.072  59.375  1.00  0.00    -0.332 N 
ATOM     12  H2  UNL     1      43.529  41.274  59.981  1.00  0.00     0.180 HD
BRANCH  11  13
HETATM   13  N3  UNL     1      44.506  39.805  58.822  1.00  0.00    -0.318 N 
HETATM   14  C8  UNL     1      44.534  39.573  57.567  1.00  0.00     0.106 C 
ATOM     15  H3  UNL     1      44.624  39.016  59.458  1.00  0.00     0.185 HD
BRANCH  14  16
HETATM   16  C9  UNL     1      44.739  38.147  57.148  1.00  0.00     0.275 C 
BRANCH  16  17
HETATM   17  N4  UNL     1      44.767  37.301  58.331  1.00  0.00    -0.075 N 
ATOM     18  H43 UNL     1      45.271  37.733  59.105  1.00  0.00     0.274 HD
ATOM     19  H42 UNL     1      43.853  37.229  58.777  1.00  0.00     0.274 HD
ATOM     20  H41 UNL     1      45.149  36.388  58.081  1.00  0.00     0.274 HD
ENDBRANCH  16  17
ENDBRANCH  14  16
ENDBRANCH  11  13
ENDBRANCH   1  11
TORSDOF 5
ENDMDL
MODEL 3
REMARK VINA RESULT: -5.084625700      1.249      1.876
REMARK  5 active torsions:
REMARK  status: ('A' for Active; 'I' for Inactive)
REMARK    1  A    between atoms: C5_8  and  C6_9 
REMARK    2  A    between atoms: C6_9  and  N2_11 
REMARK    3  A    between atoms: N2_11  and  N3_13 
REMARK    4  A    between atoms: C8_15  and  C9_16 
REMARK    5  A    between atoms: C9_16  and  N4_17 
ROOT
HETATM    1  C6  UNL     1      44.926  41.065  58.083  1.00  0.00     0.105 C 
HETATM    2  C7  UNL     1      43.423  40.997  58.135  1.00  0.00     0.034 C 
ENDROOT
BRANCH   1   3
HETATM    3  C5  UNL     1      45.564  41.512  59.353  1.00  0.00     0.065 C 
HETATM    4  C2  UNL     1      45.896  42.939  59.427  1.00  0.00    -0.056 C 
HETATM    5  C1  UNL     1      45.087  43.900  59.827  1.00  0.00     0.016 C 
HETATM    6  C3  UNL     1      47.286  43.096  58.979  1.00  0.00     0.266 C 
HETATM    7  N1  UNL     1      47.919  41.798  59.097  1.00  0.00    -0.071 N 
HETATM    8  C4  UNL     1      46.915  40.850  59.496  1.00  0.00     0.243 C 
ATOM      9  H12 UNL     1      48.411  41.519  58.248  1.00  0.00     0.277 HD
ATOM     10  H11 UNL     1      48.725  41.807  59.724  1.00  0.00     0.277 HD
ENDBRANCH   1   3
BRANCH   1  11
HETATM   11  N2  UNL     1      45.416  39.801  57.586  1.00  0.00    -0.332 N 
ATOM     12  H2  UNL     1      46.326  39.731  57.131  1.00  0.00     0.180 HD
BRANCH  11  13
HETATM   13  N3  UNL     1      44.604  38.679  57.749  1.00  0.00    -0.318 N 
HETATM   14  C8  UNL     1      44.973  37.488  57.474  1.00  0.00     0.106 C 
ATOM     15  H3  UNL     1      43.660  38.818  58.109  1.00  0.00     0.185 HD
BRANCH  14  16
HETATM   16  C9  UNL     1      43.968  36.399  57.711  1.00  0.00     0.275 C 
BRANCH  16  17
HETATM   17  N4  UNL     1      44.048  35.968  59.098  1.00  0.00    -0.075 N 
ATOM     18  H43 UNL     1      44.748  36.489  59.626  1.00  0.00     0.274 HD
ATOM     19  H42 UNL     1      43.228  36.245  59.637  1.00  0.00     0.274 HD
ATOM     20  H41 UNL     1      44.210  34.961  59.128  1.00  0.00     0.274 HD
ENDBRANCH  16  17
ENDBRANCH  14  16
ENDBRANCH  11  13
ENDBRANCH   1  11
TORSDOF 5
ENDMDL
MODEL 4
REMARK VINA RESULT: -5.077819562      2.252      5.265
REMARK  5 active torsions:
REMARK  status: ('A' for Active; 'I' for Inactive)
REMARK    1  A    between atoms: C5_8  and  C6_9 
REMARK    2  A    between atoms: C6_9  and  N2_11 
REMARK    3  A    between atoms: N2_11  and  N3_13 
REMARK    4  A    between atoms: C8_15  and  C9_16 
REMARK    5  A    between atoms: C9_16  and  N4_17 
ROOT
HETATM    1  C6  UNL     1      45.923  41.981  58.269  1.00  0.00     0.105 C 
HETATM    2  C7  UNL     1      47.349  41.499  58.340  1.00  0.00     0.034 C 
ENDROOT
BRANCH   1   3
HETATM    3  C5  UNL     1      44.932  41.060  58.890  1.00  0.00     0.065 C 
HETATM    4  C2  UNL     1      44.441  39.982  58.025  1.00  0.00    -0.056 C 
HETATM    5  C1  UNL     1      45.008  38.804  57.860  1.00  0.00     0.016 C 
HETATM    6  C3  UNL     1      43.206  40.455  57.383  1.00  0.00     0.266 C 
HETATM    7  N1  UNL     1      42.708  41.557  58.182  1.00  0.00    -0.071 N 
HETATM    8  C4  UNL     1      43.671  41.825  59.216  1.00  0.00     0.243 C 
ATOM      9  H12 UNL     1      42.488  42.382  57.624  1.00  0.00     0.277 HD
ATOM     10  H11 UNL     1      41.772  41.387  58.549  1.00  0.00     0.277 HD
ENDBRANCH   1   3
BRANCH   1  11
HETATM   11  N2  UNL     1      45.880  43.331  58.780  1.00  0.00    -0.332 N 
ATOM     12  H2  UNL     1      45.182  43.997  58.449  1.00  0.00     0.180 HD
BRANCH  11  13
HETATM   13  N3  UNL     1      46.823  43.694  59.741  1.00  0.00    -0.318 N 
HETATM   14  C8  UNL     1      46.589  43.716  60.996  1.00  0.00     0.106 C 
ATOM     15  H3  UNL     1      47.756  43.957  59.423  1.00  0.00     0.185 HD
BRANCH  14  16
HETATM   16  C9  UNL     1      47.722  44.132  61.887  1.00  0.00     0.275 C 
BRANCH  16  17
HETATM   17  N4  UNL     1      48.952  43.513  61.417  1.00  0.00    -0.075 N 
ATOM     18  H43 UNL     1      49.711  43.597  62.093  1.00  0.00     0.274 HD
ATOM     19  H42 UNL     1      48.890  42.495  61.397  1.00  0.00     0.274 HD
ATOM     20  H41 UNL     1      49.198  43.904  60.508  1.00  0.00     0.274 HD
ENDBRANCH  16  17
ENDBRANCH  14  16
ENDBRANCH  11  13
ENDBRANCH   1  11
TORSDOF 5
ENDMDL
MODEL 5
REMARK VINA RESULT: -4.965889334      1.380      1.708
REMARK  5 active torsions:
REMARK  status: ('A' for Active; 'I' for Inactive)
REMARK    1  A    between atoms: C5_8  and  C6_9 
REMARK    2  A    between atoms: C6_9  and  N2_11 
REMARK    3  A    between atoms: N2_11  and  N3_13 
REMARK    4  A    between atoms: C8_15  and  C9_16 
REMARK    5  A    between atoms: C9_16  and  N4_17 
ROOT
HETATM    1  C6  UNL     1      45.557  43.116  59.328  1.00  0.00     0.105 C 
HETATM    2  C7  UNL     1      44.613  44.107  59.958  1.00  0.00     0.034 C 
ENDROOT
BRANCH   1   3
HETATM    3  C5  UNL     1      46.994  43.498  59.414  1.00  0.00     0.065 C 
HETATM    4  C2  UNL     1      47.952  42.404  59.217  1.00  0.00    -0.056 C 
HETATM    5  C1  UNL     1      48.424  41.989  58.060  1.00  0.00     0.016 C 
HETATM    6  C3  UNL     1      48.286  41.863  60.542  1.00  0.00     0.266 C 
HETATM    7  N1  UNL     1      47.940  42.881  61.515  1.00  0.00    -0.071 N 
HETATM    8  C4  UNL     1      47.306  43.965  60.816  1.00  0.00     0.243 C 
ATOM      9  H12 UNL     1      47.372  42.518  62.281  1.00  0.00     0.277 HD
ATOM     10  H11 UNL     1      48.741  43.184  62.071  1.00  0.00     0.277 HD
ENDBRANCH   1   3
BRANCH   1  11
HETATM   11  N2  UNL     1      45.257  41.809  59.862  1.00  0.00    -0.332 N 
ATOM     12  H2  UNL     1      45.454  41.581  60.837  1.00  0.00     0.180 HD
BRANCH  11  13
HETATM   13  N3  UNL     1      44.690  40.868  59.002  1.00  0.00    -0.318 N 
HETATM   14  C8  UNL     1      45.316  39.854  58.544  1.00  0.00     0.106 C 
ATOM     15  H3  UNL     1      43.718  40.998  58.723  1.00  0.00     0.185 HD
BRANCH  14  16
HETATM   16  C9  UNL     1      44.549  38.944  57.630  1.00  0.00     0.275 C 
BRANCH  16  17
HETATM   17  N4  UNL     1      44.644  37.579  58.123  1.00  0.00    -0.075 N 
ATOM     18  H43 UNL     1      45.047  37.532  59.060  1.00  0.00     0.274 HD
ATOM     19  H42 UNL     1      43.731  37.181  58.340  1.00  0.00     0.274 HD
ATOM     20  H41 UNL     1      45.163  37.014  57.450  1.00  0.00     0.274 HD
ENDBRANCH  16  17
ENDBRANCH  14  16
ENDBRANCH  11  13
ENDBRANCH   1  11
TORSDOF 5
ENDMDL
