MODEL 1
REMARK VINA RESULT: -6.071569142      0.000      0.000
REMARK  6 active torsions:
REMARK  status: ('A' for Active; 'I' for Inactive)
REMARK    1  A    between atoms: C2_2  and  N1_3 
REMARK    2  A    between atoms: C2_2  and  C3_10 
REMARK    3  A    between atoms: N1_3  and  N2_5 
REMARK    4  A    between atoms: C3_10  and  N4_12 
REMARK    5  A    between atoms: N4_12  and  C5_14 
REMARK    6  A    between atoms: C7_19  and  O1_20 
ROOT
HETATM    1  C3  UNL     1      46.713  41.300  59.138  1.00  0.00     0.098 C 
HETATM    2  C4  UNL     1      47.484  41.942  57.951  1.00  0.00     0.034 C 
ENDROOT
BRANCH   1   3
HETATM    3  C2  UNL     1      45.553  40.601  58.531  1.00  0.00     0.118 C 
HETATM    4  C1  UNL     1      44.194  41.012  58.966  1.00  0.00     0.036 C 
BRANCH   3   5
HETATM    5  N1  UNL     1      45.680  39.141  58.706  1.00  0.00    -0.316 N 
ATOM      6  H1  UNL     1      46.504  38.769  59.179  1.00  0.00     0.182 HD
BRANCH   5   7
HETATM    7  N2  UNL     1      44.822  38.359  58.297  1.00  0.00    -0.253 N 
HETATM    8  N3  UNL     1      44.366  37.209  58.117  1.00  0.00    -0.331 N 
ATOM      9  H32 UNL     1      45.099  36.632  58.529  1.00  0.00     0.178 HD
ATOM     10  H31 UNL     1      43.654  36.561  57.778  1.00  0.00     0.178 HD
ATOM     11  H2  UNL     1      44.111  38.969  57.895  1.00  0.00     0.207 HD
ENDBRANCH   5   7
ENDBRANCH   3   5
ENDBRANCH   1   3
BRANCH   1  12
HETATM   12  N4  UNL     1      46.488  42.347  60.039  1.00  0.00    -0.388 N 
ATOM     13  H4  UNL     1      45.566  42.450  60.462  1.00  0.00     0.155 HD
BRANCH  12  14
HETATM   14  C5  UNL     1      47.501  43.260  60.376  1.00  0.00     0.310 C 
HETATM   15  N5  UNL     1      48.464  42.584  61.285  1.00  0.00    -0.050 N 
HETATM   16  C6  UNL     1      47.442  42.761  62.321  1.00  0.00     0.270 C 
ATOM     17  H52 UNL     1      48.857  41.668  61.068  1.00  0.00     0.279 HD
ATOM     18  H51 UNL     1      49.418  42.922  61.406  1.00  0.00     0.279 HD
HETATM   19  C7  UNL     1      47.110  44.067  61.624  1.00  0.00     0.193 C 
BRANCH  19  20
HETATM   20  O1  UNL     1      48.046  45.047  61.945  1.00  0.00    -0.390 OA
ATOM     21  H1  UNL     1      47.887  45.442  62.794  1.00  0.00     0.210 HD
ENDBRANCH  19  20
ENDBRANCH  12  14
ENDBRANCH   1  12
TORSDOF 6
ENDMDL
MODEL 2
REMARK VINA RESULT: -5.837524206      1.045      1.584
REMARK  6 active torsions:
REMARK  status: ('A' for Active; 'I' for Inactive)
REMARK    1  A    between atoms: C2_2  and  N1_3 
REMARK    2  A    between atoms: C2_2  and  C3_10 
REMARK    3  A    between atoms: N1_3  and  N2_5 
REMARK    4  A    between atoms: C3_10  and  N4_12 
REMARK    5  A    between atoms: N4_12  and  C5_14 
REMARK    6  A    between atoms: C7_19  and  O1_20 
ROOT
HETATM    1  C3  UNL     1      45.550  41.883  58.934  1.00  0.00     0.098 C 
HETATM    2  C4  UNL     1      44.008  41.856  59.128  1.00  0.00     0.034 C 
ENDROOT
BRANCH   1   3
HETATM    3  C2  UNL     1      45.914  40.539  58.424  1.00  0.00     0.118 C 
HETATM    4  C1  UNL     1      46.320  40.427  57.000  1.00  0.00     0.036 C 
BRANCH   3   5
HETATM    5  N1  UNL     1      44.825  39.576  58.678  1.00  0.00    -0.316 N 
ATOM      6  H1  UNL     1      43.993  39.891  59.177  1.00  0.00     0.182 HD
BRANCH   5   7
HETATM    7  N2  UNL     1      44.892  38.405  58.308  1.00  0.00    -0.253 N 
HETATM    8  N3  UNL     1      44.510  37.213  58.322  1.00  0.00    -0.331 N 
ATOM      9  H32 UNL     1      43.748  37.252  58.998  1.00  0.00     0.178 HD
ATOM     10  H31 UNL     1      44.566  36.242  58.015  1.00  0.00     0.178 HD
ATOM     11  H2  UNL     1      45.660  38.406  57.637  1.00  0.00     0.207 HD
ENDBRANCH   5   7
ENDBRANCH   3   5
ENDBRANCH   1   3
BRANCH   1  12
HETATM   12  N4  UNL     1      46.066  42.315  60.161  1.00  0.00    -0.388 N 
ATOM     13  H4  UNL     1      45.998  41.700  60.973  1.00  0.00     0.155 HD
BRANCH  12  14
HETATM   14  C5  UNL     1      46.675  43.572  60.304  1.00  0.00     0.310 C 
HETATM   15  N5  UNL     1      48.041  43.505  59.722  1.00  0.00    -0.050 N 
HETATM   16  C6  UNL     1      48.405  42.774  60.940  1.00  0.00     0.270 C 
ATOM     17  H52 UNL     1      48.212  43.122  58.792  1.00  0.00     0.279 HD
ATOM     18  H51 UNL     1      48.542  44.343  59.427  1.00  0.00     0.279 HD
HETATM   19  C7  UNL     1      47.409  43.670  61.651  1.00  0.00     0.193 C 
BRANCH  19  20
HETATM   20  O1  UNL     1      47.954  44.931  61.875  1.00  0.00    -0.390 OA
ATOM     21  H1  UNL     1      48.666  44.916  62.505  1.00  0.00     0.210 HD
ENDBRANCH  19  20
ENDBRANCH  12  14
ENDBRANCH   1  12
TORSDOF 6
ENDMDL
MODEL 3
REMARK VINA RESULT: -5.743571634      1.301      1.650
REMARK  6 active torsions:
REMARK  status: ('A' for Active; 'I' for Inactive)
REMARK    1  A    between atoms: C2_2  and  N1_3 
REMARK    2  A    between atoms: C2_2  and  C3_10 
REMARK    3  A    between atoms: N1_3  and  N2_5 
REMARK    4  A    between atoms: C3_10  and  N4_12 
REMARK    5  A    between atoms: N4_12  and  C5_14 
REMARK    6  A    between atoms: C7_19  and  O1_20 
ROOT
HETATM    1  C3  UNL     1      44.999  42.314  58.649  1.00  0.00     0.098 C 
HETATM    2  C4  UNL     1      43.765  42.751  59.487  1.00  0.00     0.034 C 
ENDROOT
BRANCH   1   3
HETATM    3  C2  UNL     1      44.638  41.002  58.059  1.00  0.00     0.118 C 
HETATM    4  C1  UNL     1      43.228  40.796  57.642  1.00  0.00     0.036 C 
BRANCH   3   5
HETATM    5  N1  UNL     1      45.026  39.903  58.964  1.00  0.00    -0.316 N 
ATOM      6  H1  UNL     1      45.172  40.105  59.953  1.00  0.00     0.182 HD
BRANCH   5   7
HETATM    7  N2  UNL     1      45.177  38.750  58.561  1.00  0.00    -0.253 N 
HETATM    8  N3  UNL     1      44.744  37.621  58.241  1.00  0.00    -0.331 N 
ATOM      9  H32 UNL     1      43.744  37.733  58.407  1.00  0.00     0.178 HD
ATOM     10  H31 UNL     1      44.870  36.666  57.907  1.00  0.00     0.178 HD
ATOM     11  H2  UNL     1      46.183  38.678  58.407  1.00  0.00     0.207 HD
ENDBRANCH   5   7
ENDBRANCH   3   5
ENDBRANCH   1   3
BRANCH   1  12
HETATM   12  N4  UNL     1      46.086  42.397  59.526  1.00  0.00    -0.388 N 
ATOM     13  H4  UNL     1      46.461  41.541  59.936  1.00  0.00     0.155 HD
BRANCH  12  14
HETATM   14  C5  UNL     1      46.674  43.629  59.858  1.00  0.00     0.310 C 
HETATM   15  N5  UNL     1      48.136  43.538  59.605  1.00  0.00    -0.050 N 
HETATM   16  C6  UNL     1      48.191  42.753  60.842  1.00  0.00     0.270 C 
ATOM     17  H52 UNL     1      48.509  43.182  58.725  1.00  0.00     0.279 HD
ATOM     18  H51 UNL     1      48.711  44.369  59.468  1.00  0.00     0.279 HD
HETATM   19  C7  UNL     1      47.078  43.655  61.341  1.00  0.00     0.193 C 
BRANCH  19  20
HETATM   20  O1  UNL     1      47.586  44.889  61.738  1.00  0.00    -0.390 OA
ATOM     21  H1  UNL     1      47.164  45.617  61.296  1.00  0.00     0.210 HD
ENDBRANCH  19  20
ENDBRANCH  12  14
ENDBRANCH   1  12
TORSDOF 6
ENDMDL
MODEL 4
REMARK VINA RESULT: -5.665112621      1.418      2.069
REMARK  6 active torsions:
REMARK  status: ('A' for Active; 'I' for Inactive)
REMARK    1  A    between atoms: C2_2  and  N1_3 
REMARK    2  A    between atoms: C2_2  and  C3_10 
REMARK    3  A    between atoms: N1_3  and  N2_5 
REMARK    4  A    between atoms: C3_10  and  N4_12 
REMARK    5  A    between atoms: N4_12  and  C5_14 
REMARK    6  A    between atoms: C7_19  and  O1_20 
ROOT
HETATM    1  C3  UNL     1      45.515  40.771  58.275  1.00  0.00     0.098 C 
HETATM    2  C4  UNL     1      44.124  40.946  58.946  1.00  0.00     0.034 C 
ENDROOT
BRANCH   1   3
HETATM    3  C2  UNL     1      45.498  39.420  57.663  1.00  0.00     0.118 C 
HETATM    4  C1  UNL     1      44.721  39.237  56.411  1.00  0.00     0.036 C 
BRANCH   3   5
HETATM    5  N1  UNL     1      45.051  38.413  58.645  1.00  0.00    -0.316 N 
ATOM      6  H1  UNL     1      45.082  38.643  59.638  1.00  0.00     0.182 HD
BRANCH   5   7
HETATM    7  N2  UNL     1      44.642  37.305  58.301  1.00  0.00    -0.253 N 
HETATM    8  N3  UNL     1      44.014  36.242  58.504  1.00  0.00    -0.331 N 
ATOM      9  H32 UNL     1      43.668  36.389  59.452  1.00  0.00     0.178 HD
ATOM     10  H31 UNL     1      43.676  35.323  58.219  1.00  0.00     0.178 HD
ATOM     11  H2  UNL     1      45.006  37.195  57.355  1.00  0.00     0.207 HD
ENDBRANCH   5   7
ENDBRANCH   3   5
ENDBRANCH   1   3
BRANCH   1  12
HETATM   12  N4  UNL     1      46.446  41.059  59.279  1.00  0.00    -0.388 N 
ATOM     13  H4  UNL     1      46.309  40.668  60.211  1.00  0.00     0.155 HD
BRANCH  12  14
HETATM   14  C5  UNL     1      47.564  41.874  59.036  1.00  0.00     0.310 C 
HETATM   15  N5  UNL     1      48.393  41.919  60.269  1.00  0.00    -0.050 N 
HETATM   16  C6  UNL     1      47.372  42.833  60.791  1.00  0.00     0.270 C 
ATOM     17  H52 UNL     1      48.663  41.071  60.768  1.00  0.00     0.279 HD
ATOM     18  H51 UNL     1      49.381  42.173  60.244  1.00  0.00     0.279 HD
HETATM   19  C7  UNL     1      47.248  43.342  59.368  1.00  0.00     0.193 C 
BRANCH  19  20
HETATM   20  O1  UNL     1      48.299  44.201  59.059  1.00  0.00    -0.390 OA
ATOM     21  H1  UNL     1      48.753  43.952  58.262  1.00  0.00     0.210 HD
ENDBRANCH  19  20
ENDBRANCH  12  14
ENDBRANCH   1  12
TORSDOF 6
ENDMDL
MODEL 5
REMARK VINA RESULT: -5.599721703      1.360      2.031
REMARK  6 active torsions:
REMARK  status: ('A' for Active; 'I' for Inactive)
REMARK    1  A    between atoms: C2_2  and  N1_3 
REMARK    2  A    between atoms: C2_2  and  C3_10 
REMARK    3  A    between atoms: N1_3  and  N2_5 
REMARK    4  A    between atoms: C3_10  and  N4_12 
REMARK    5  A    between atoms: N4_12  and  C5_14 
REMARK    6  A    between atoms: C7_19  and  O1_20 
ROOT
HETATM    1  C3  UNL     1      45.415  40.824  58.116  1.00  0.00     0.098 C 
HETATM    2  C4  UNL     1      44.079  40.921  58.904  1.00  0.00     0.034 C 
ENDROOT
BRANCH   1   3
HETATM    3  C2  UNL     1      45.513  39.414  57.665  1.00  0.00     0.118 C 
HETATM    4  C1  UNL     1      45.083  39.102  56.278  1.00  0.00     0.036 C 
BRANCH   3   5
HETATM    5  N1  UNL     1      44.792  38.522  58.592  1.00  0.00    -0.316 N 
ATOM      6  H1  UNL     1      44.465  38.895  59.484  1.00  0.00     0.182 HD
BRANCH   5   7
HETATM    7  N2  UNL     1      44.575  37.341  58.323  1.00  0.00    -0.253 N 
HETATM    8  N3  UNL     1      44.038  36.233  58.546  1.00  0.00    -0.331 N 
ATOM      9  H32 UNL     1      43.513  36.430  59.398  1.00  0.00     0.178 HD
ATOM     10  H31 UNL     1      43.858  35.255  58.323  1.00  0.00     0.178 HD
ATOM     11  H2  UNL     1      45.113  37.184  57.472  1.00  0.00     0.207 HD
ENDBRANCH   5   7
ENDBRANCH   3   5
ENDBRANCH   1   3
BRANCH   1  12
HETATM   12  N4  UNL     1      46.389  41.337  58.980  1.00  0.00    -0.388 N 
ATOM     13  H4  UNL     1      46.991  40.691  59.491  1.00  0.00     0.155 HD
BRANCH  12  14
HETATM   14  C5  UNL     1      46.558  42.720  59.162  1.00  0.00     0.310 C 
HETATM   15  N5  UNL     1      48.003  43.041  59.025  1.00  0.00    -0.050 N 
HETATM   16  C6  UNL     1      48.146  42.468  60.367  1.00  0.00     0.270 C 
ATOM     17  H52 UNL     1      48.556  42.708  58.235  1.00  0.00     0.279 HD
ATOM     18  H51 UNL     1      48.326  43.983  58.804  1.00  0.00     0.279 HD
HETATM   19  C7  UNL     1      46.774  43.049  60.649  1.00  0.00     0.193 C 
BRANCH  19  20
HETATM   20  O1  UNL     1      46.859  44.418  60.889  1.00  0.00    -0.390 OA
ATOM     21  H1  UNL     1      46.609  44.650  61.775  1.00  0.00     0.210 HD
ENDBRANCH  19  20
ENDBRANCH  12  14
ENDBRANCH   1  12
TORSDOF 6
ENDMDL
