MODEL 1
REMARK VINA RESULT: -8.214688829      0.000      0.000
REMARK  10 active torsions:
REMARK  status: ('A' for Active; 'I' for Inactive)
REMARK    1  A    between atoms: N1_1  and  C1_4 
REMARK    2  A    between atoms: C5_14  and  N4_15 
REMARK    3  A    between atoms: C6_21  and  N6_22 
REMARK    4  A    between atoms: N6_22  and  C7_24 
REMARK    5  A    between atoms: C10_27  and  C11_28 
REMARK       I    between atoms: C11_28  and  N7_30 
REMARK    6  A    between atoms: N7_30  and  S1_32 
REMARK    7  A    between atoms: S1_32  and  N8_35 
REMARK       I    between atoms: N8_35  and  C12_37 
REMARK    8  A    between atoms: C12_37  and  C13_39 
REMARK    9  A    between atoms: C14_40  and  C15_41 
REMARK   10  A    between atoms: C18_44  and  O7_45 
ROOT
HETATM    1  C7  UNL     1      30.319 -28.217 -37.679  1.00  0.00     0.033 A 
HETATM    2  C8  UNL     1      31.705 -28.237 -37.647  1.00  0.00     0.030 A 
HETATM    3  C9  UNL     1      32.437 -29.402 -37.601  1.00  0.00     0.019 A 
HETATM    4  C10 UNL     1      31.794 -30.620 -37.584  1.00  0.00     0.033 A 
HETATM    5  C21 UNL     1      30.422 -30.642 -37.616  1.00  0.00     0.019 A 
HETATM    6  C22 UNL     1      29.715 -29.464 -37.661  1.00  0.00     0.030 A 
ENDROOT
BRANCH   1   7
HETATM    7  N6  UNL     1      29.578 -27.018 -37.725  1.00  0.00    -0.342 N 
ATOM      8  H6  UNL     1      28.892 -26.813 -36.999  1.00  0.00     0.167 HD
BRANCH   7   9
HETATM    9  C6  UNL     1      29.790 -26.102 -38.778  1.00  0.00     0.124 A 
HETATM   10  C3  UNL     1      30.282 -24.768 -38.479  1.00  0.00     0.127 A 
HETATM   11  C2  UNL     1      30.559 -24.384 -37.191  1.00  0.00     0.266 A 
HETATM   12  C4  UNL     1      30.488 -23.863 -39.502  1.00  0.00     0.170 A 
HETATM   13  N2  UNL     1      31.019 -23.140 -36.974  1.00  0.00    -0.288 N 
HETATM   14  O1  UNL     1      30.376 -25.197 -36.250  1.00  0.00    -0.267 OA
HETATM   15  C1  UNL     1      31.207 -22.287 -37.995  1.00  0.00     0.226 A 
ATOM     16  H2  UNL     1      31.229 -22.841 -36.022  1.00  0.00     0.172 HD
HETATM   17  O2  UNL     1      30.942 -22.657 -39.225  1.00  0.00    -0.261 OA
HETATM   18  N3  UNL     1      30.200 -24.266 -40.830  1.00  0.00    -0.326 N 
HETATM   19  C5  UNL     1      29.728 -25.571 -41.146  1.00  0.00     0.389 A 
ATOM     20  H3  UNL     1      30.337 -23.596 -41.587  1.00  0.00     0.165 HD
HETATM   21  N5  UNL     1      29.559 -26.405 -39.989  1.00  0.00    -0.332 N 
ATOM     22  H5  UNL     1      29.214 -27.350 -40.159  1.00  0.00     0.165 HD
BRANCH  15  23
HETATM   23  N1  UNL     1      31.650 -21.100 -37.743  1.00  0.00    -0.365 N 
ATOM     24  H12 UNL     1      31.717 -20.761 -36.783  1.00  0.00     0.159 HD
ATOM     25  H11 UNL     1      31.935 -20.504 -38.521  1.00  0.00     0.159 HD
ENDBRANCH  15  23
BRANCH  19  26
HETATM   26  N4  UNL     1      28.448 -25.480 -41.840  1.00  0.00    -0.041 N 
ATOM     27  H43 UNL     1      27.701 -25.157 -41.225  1.00  0.00     0.279 HD
ATOM     28  H42 UNL     1      28.430 -24.712 -42.512  1.00  0.00     0.279 HD
ATOM     29  H41 UNL     1      28.227 -26.376 -42.275  1.00  0.00     0.279 HD
ENDBRANCH  19  26
ENDBRANCH   7   9
ENDBRANCH   1   7
BRANCH   4  30
HETATM   30  C11 UNL     1      32.558 -31.859 -37.529  1.00  0.00     0.266 C 
HETATM   31  O3  UNL     1      32.038 -32.902 -37.989  1.00  0.00    -0.267 OA
HETATM   32  N7  UNL     1      33.862 -31.928 -36.975  1.00  0.00    -0.233 N 
ATOM     33  H7  UNL     1      34.008 -32.089 -35.978  1.00  0.00     0.183 HD
BRANCH  32  34
HETATM   34  S1  UNL     1      35.069 -31.746 -37.956  1.00  0.00     0.328 S 
HETATM   35  O4  UNL     1      35.910 -32.985 -37.850  1.00  0.00    -0.182 OA
HETATM   36  O5  UNL     1      34.537 -31.506 -39.533  1.00  0.00    -0.182 OA
BRANCH  34  37
HETATM   37  N8  UNL     1      35.980 -30.416 -37.384  1.00  0.00    -0.234 N 
HETATM   38  C12 UNL     1      36.364 -30.286 -35.975  1.00  0.00     0.255 C 
HETATM   39  O6  UNL     1      35.971 -31.209 -35.277  1.00  0.00    -0.268 OA
ATOM     40  H8  UNL     1      36.265 -29.692 -38.044  1.00  0.00     0.183 HD
BRANCH  38  41
HETATM   41  C13 UNL     1      37.112 -29.157 -35.586  1.00  0.00     0.076 C 
HETATM   42  C14 UNL     1      37.006 -27.924 -35.318  1.00  0.00     0.017 C 
BRANCH  42  43
HETATM   43  C15 UNL     1      35.930 -26.990 -35.288  1.00  0.00    -0.036 A 
HETATM   44  C16 UNL     1      35.004 -26.689 -36.246  1.00  0.00     0.014 A 
HETATM   45  C17 UNL     1      33.991 -25.735 -36.062  1.00  0.00     0.037 A 
HETATM   46  C18 UNL     1      33.879 -25.046 -34.889  1.00  0.00     0.065 A 
HETATM   47  C19 UNL     1      34.786 -25.315 -33.900  1.00  0.00     0.037 A 
HETATM   48  C20 UNL     1      35.766 -26.244 -34.090  1.00  0.00     0.014 A 
BRANCH  46  49
HETATM   49  O7  UNL     1      32.885 -24.095 -34.678  1.00  0.00    -0.361 OA
ATOM     50  H7  UNL     1      32.828 -23.592 -33.875  1.00  0.00     0.217 HD
ENDBRANCH  46  49
ENDBRANCH  42  43
ENDBRANCH  38  41
ENDBRANCH  34  37
ENDBRANCH  32  34
ENDBRANCH   4  30
TORSDOF 10
ENDMDL
MODEL 2
REMARK VINA RESULT: -8.072202003      2.417      3.923
REMARK  10 active torsions:
REMARK  status: ('A' for Active; 'I' for Inactive)
REMARK    1  A    between atoms: N1_1  and  C1_4 
REMARK    2  A    between atoms: C5_14  and  N4_15 
REMARK    3  A    between atoms: C6_21  and  N6_22 
REMARK    4  A    between atoms: N6_22  and  C7_24 
REMARK    5  A    between atoms: C10_27  and  C11_28 
REMARK       I    between atoms: C11_28  and  N7_30 
REMARK    6  A    between atoms: N7_30  and  S1_32 
REMARK    7  A    between atoms: S1_32  and  N8_35 
REMARK       I    between atoms: N8_35  and  C12_37 
REMARK    8  A    between atoms: C12_37  and  C13_39 
REMARK    9  A    between atoms: C14_40  and  C15_41 
REMARK   10  A    between atoms: C18_44  and  O7_45 
ROOT
HETATM    1  C7  UNL     1      30.247 -28.155 -37.608  1.00  0.00     0.033 A 
HETATM    2  C8  UNL     1      29.480 -29.310 -37.654  1.00  0.00     0.030 A 
HETATM    3  C9  UNL     1      30.024 -30.565 -37.810  1.00  0.00     0.019 A 
HETATM    4  C10 UNL     1      31.387 -30.715 -37.930  1.00  0.00     0.033 A 
HETATM    5  C21 UNL     1      32.181 -29.597 -37.888  1.00  0.00     0.019 A 
HETATM    6  C22 UNL     1      31.613 -28.355 -37.732  1.00  0.00     0.030 A 
ENDROOT
BRANCH   1   7
HETATM    7  N6  UNL     1      29.680 -26.874 -37.448  1.00  0.00    -0.342 N 
ATOM      8  H6  UNL     1      29.174 -26.642 -36.594  1.00  0.00     0.167 HD
BRANCH   7   9
HETATM    9  C6  UNL     1      29.814 -25.914 -38.474  1.00  0.00     0.124 A 
HETATM   10  C3  UNL     1      30.415 -24.625 -38.175  1.00  0.00     0.127 A 
HETATM   11  C2  UNL     1      30.869 -24.328 -36.915  1.00  0.00     0.266 A 
HETATM   12  C4  UNL     1      30.546 -23.677 -39.170  1.00  0.00     0.170 A 
HETATM   13  N2  UNL     1      31.424 -23.123 -36.697  1.00  0.00    -0.288 N 
HETATM   14  O1  UNL     1      30.756 -25.181 -35.999  1.00  0.00    -0.267 OA
HETATM   15  C1  UNL     1      31.534 -22.226 -37.692  1.00  0.00     0.226 A 
ATOM     16  H2  UNL     1      31.766 -22.888 -35.766  1.00  0.00     0.172 HD
HETATM   17  O2  UNL     1      31.100 -22.513 -38.895  1.00  0.00    -0.261 OA
HETATM   18  N3  UNL     1      30.075 -23.991 -40.470  1.00  0.00    -0.326 N 
HETATM   19  C5  UNL     1      29.493 -25.251 -40.787  1.00  0.00     0.389 A 
ATOM     20  H3  UNL     1      30.156 -23.288 -41.205  1.00  0.00     0.165 HD
HETATM   21  N5  UNL     1      29.419 -26.138 -39.659  1.00  0.00    -0.332 N 
ATOM     22  H5  UNL     1      29.001 -27.052 -39.831  1.00  0.00     0.165 HD
BRANCH  15  23
HETATM   23  N1  UNL     1      32.073 -21.079 -37.440  1.00  0.00    -0.365 N 
ATOM     24  H12 UNL     1      32.302 -20.809 -36.483  1.00  0.00     0.159 HD
ATOM     25  H11 UNL     1      32.268 -20.445 -38.215  1.00  0.00     0.159 HD
ENDBRANCH  15  23
BRANCH  19  26
HETATM   26  N4  UNL     1      28.145 -25.056 -41.310  1.00  0.00    -0.041 N 
ATOM     27  H43 UNL     1      27.803 -24.109 -41.144  1.00  0.00     0.279 HD
ATOM     28  H42 UNL     1      28.127 -25.043 -42.330  1.00  0.00     0.279 HD
ATOM     29  H41 UNL     1      27.519 -25.764 -40.924  1.00  0.00     0.279 HD
ENDBRANCH  19  26
ENDBRANCH   7   9
ENDBRANCH   1   7
BRANCH   4  30
HETATM   30  C11 UNL     1      31.973 -32.039 -38.103  1.00  0.00     0.266 C 
HETATM   31  O3  UNL     1      31.679 -32.691 -39.132  1.00  0.00    -0.267 OA
HETATM   32  N7  UNL     1      32.857 -32.612 -37.154  1.00  0.00    -0.233 N 
ATOM     33  H7  UNL     1      32.508 -33.147 -36.359  1.00  0.00     0.183 HD
BRANCH  32  34
HETATM   34  S1  UNL     1      34.391 -32.391 -37.377  1.00  0.00     0.328 S 
HETATM   35  O4  UNL     1      34.862 -31.467 -36.292  1.00  0.00    -0.182 OA
HETATM   36  O5  UNL     1      35.226 -33.850 -37.337  1.00  0.00    -0.182 OA
BRANCH  34  37
HETATM   37  N8  UNL     1      34.567 -31.600 -38.883  1.00  0.00    -0.234 N 
HETATM   38  C12 UNL     1      35.874 -31.162 -39.383  1.00  0.00     0.255 C 
HETATM   39  O6  UNL     1      36.796 -31.420 -38.623  1.00  0.00    -0.268 OA
ATOM     40  H8  UNL     1      33.737 -31.429 -39.451  1.00  0.00     0.183 HD
BRANCH  38  41
HETATM   41  C13 UNL     1      35.930 -30.514 -40.633  1.00  0.00     0.076 C 
HETATM   42  C14 UNL     1      35.236 -29.840 -41.449  1.00  0.00     0.017 C 
BRANCH  42  43
HETATM   43  C15 UNL     1      33.892 -29.368 -41.475  1.00  0.00    -0.036 A 
HETATM   44  C16 UNL     1      33.410 -28.092 -41.402  1.00  0.00     0.014 A 
HETATM   45  C17 UNL     1      32.041 -27.784 -41.445  1.00  0.00     0.037 A 
HETATM   46  C18 UNL     1      31.103 -28.769 -41.565  1.00  0.00     0.065 A 
HETATM   47  C19 UNL     1      31.540 -30.063 -41.641  1.00  0.00     0.037 A 
HETATM   48  C20 UNL     1      32.872 -30.350 -41.599  1.00  0.00     0.014 A 
BRANCH  46  49
HETATM   49  O7  UNL     1      29.740 -28.494 -41.611  1.00  0.00    -0.361 OA
ATOM     50  H7  UNL     1      29.224 -28.356 -40.825  1.00  0.00     0.217 HD
ENDBRANCH  46  49
ENDBRANCH  42  43
ENDBRANCH  38  41
ENDBRANCH  34  37
ENDBRANCH  32  34
ENDBRANCH   4  30
TORSDOF 10
ENDMDL
MODEL 3
REMARK VINA RESULT: -8.004988744      3.606      8.363
REMARK  10 active torsions:
REMARK  status: ('A' for Active; 'I' for Inactive)
REMARK    1  A    between atoms: N1_1  and  C1_4 
REMARK    2  A    between atoms: C5_14  and  N4_15 
REMARK    3  A    between atoms: C6_21  and  N6_22 
REMARK    4  A    between atoms: N6_22  and  C7_24 
REMARK    5  A    between atoms: C10_27  and  C11_28 
REMARK       I    between atoms: C11_28  and  N7_30 
REMARK    6  A    between atoms: N7_30  and  S1_32 
REMARK    7  A    between atoms: S1_32  and  N8_35 
REMARK       I    between atoms: N8_35  and  C12_37 
REMARK    8  A    between atoms: C12_37  and  C13_39 
REMARK    9  A    between atoms: C14_40  and  C15_41 
REMARK   10  A    between atoms: C18_44  and  O7_45 
ROOT
HETATM    1  C7  UNL     1      31.096 -27.736 -37.993  1.00  0.00     0.033 A 
HETATM    2  C8  UNL     1      31.030 -26.752 -37.017  1.00  0.00     0.030 A 
HETATM    3  C9  UNL     1      30.707 -25.443 -37.294  1.00  0.00     0.019 A 
HETATM    4  C10 UNL     1      30.432 -25.060 -38.588  1.00  0.00     0.033 A 
HETATM    5  C21 UNL     1      30.486 -26.005 -39.582  1.00  0.00     0.019 A 
HETATM    6  C22 UNL     1      30.812 -27.305 -39.279  1.00  0.00     0.030 A 
ENDROOT
BRANCH   1   7
HETATM    7  N6  UNL     1      31.429 -29.075 -37.698  1.00  0.00    -0.342 N 
ATOM      8  H6  UNL     1      32.392 -29.325 -37.475  1.00  0.00     0.167 HD
BRANCH   7   9
HETATM    9  C6  UNL     1      30.425 -30.067 -37.712  1.00  0.00     0.124 A 
HETATM   10  C3  UNL     1      30.796 -31.463 -37.556  1.00  0.00     0.127 A 
HETATM   11  C2  UNL     1      32.104 -31.836 -37.380  1.00  0.00     0.266 A 
HETATM   12  C4  UNL     1      29.822 -32.442 -37.573  1.00  0.00     0.170 A 
HETATM   13  N2  UNL     1      32.388 -33.141 -37.233  1.00  0.00    -0.288 N 
HETATM   14  O1  UNL     1      33.001 -30.956 -37.362  1.00  0.00    -0.267 OA
HETATM   15  C1  UNL     1      31.413 -34.066 -37.255  1.00  0.00     0.226 A 
ATOM     16  H2  UNL     1      33.356 -33.433 -37.101  1.00  0.00     0.172 HD
HETATM   17  O2  UNL     1      30.164 -33.706 -37.423  1.00  0.00    -0.261 OA
HETATM   18  N3  UNL     1      28.472 -32.050 -37.755  1.00  0.00    -0.326 N 
HETATM   19  C5  UNL     1      28.085 -30.687 -37.899  1.00  0.00     0.389 A 
ATOM     20  H3  UNL     1      27.751 -32.771 -37.784  1.00  0.00     0.165 HD
HETATM   21  N5  UNL     1      29.198 -29.779 -37.863  1.00  0.00    -0.332 N 
ATOM     22  H5  UNL     1      28.977 -28.789 -37.971  1.00  0.00     0.165 HD
BRANCH  15  23
HETATM   23  N1  UNL     1      31.729 -35.310 -37.110  1.00  0.00    -0.365 N 
ATOM     24  H12 UNL     1      31.279 -36.032 -37.673  1.00  0.00     0.159 HD
ATOM     25  H11 UNL     1      32.440 -35.561 -36.422  1.00  0.00     0.159 HD
ENDBRANCH  15  23
BRANCH  19  26
HETATM   26  N4  UNL     1      27.381 -30.503 -39.163  1.00  0.00    -0.041 N 
ATOM     27  H43 UNL     1      27.170 -29.521 -39.346  1.00  0.00     0.279 HD
ATOM     28  H42 UNL     1      27.985 -30.677 -39.968  1.00  0.00     0.279 HD
ATOM     29  H41 UNL     1      26.543 -31.085 -39.180  1.00  0.00     0.279 HD
ENDBRANCH  19  26
ENDBRANCH   7   9
ENDBRANCH   1   7
BRANCH   4  30
HETATM   30  C11 UNL     1      30.096 -23.675 -38.894  1.00  0.00     0.266 C 
HETATM   31  O3  UNL     1      29.835 -22.902 -37.943  1.00  0.00    -0.267 OA
HETATM   32  N7  UNL     1      30.053 -23.175 -40.220  1.00  0.00    -0.233 N 
ATOM     33  H7  UNL     1      29.206 -23.241 -40.785  1.00  0.00     0.183 HD
BRANCH  32  34
HETATM   34  S1  UNL     1      31.358 -22.517 -40.782  1.00  0.00     0.328 S 
HETATM   35  O4  UNL     1      30.938 -21.300 -41.554  1.00  0.00    -0.182 OA
HETATM   36  O5  UNL     1      32.416 -22.114 -39.539  1.00  0.00    -0.182 OA
BRANCH  34  37
HETATM   37  N8  UNL     1      32.054 -23.640 -41.868  1.00  0.00    -0.234 N 
HETATM   38  C12 UNL     1      31.261 -24.321 -42.895  1.00  0.00     0.255 C 
HETATM   39  O6  UNL     1      30.081 -24.003 -42.888  1.00  0.00    -0.268 OA
ATOM     40  H8  UNL     1      33.052 -23.841 -41.799  1.00  0.00     0.183 HD
BRANCH  38  41
HETATM   41  C13 UNL     1      31.911 -25.235 -43.748  1.00  0.00     0.076 C 
HETATM   42  C14 UNL     1      32.487 -26.362 -43.762  1.00  0.00     0.017 C 
BRANCH  42  43
HETATM   43  C15 UNL     1      32.781 -27.353 -42.782  1.00  0.00    -0.036 A 
HETATM   44  C16 UNL     1      32.284 -28.618 -42.638  1.00  0.00     0.014 A 
HETATM   45  C17 UNL     1      32.681 -29.486 -41.609  1.00  0.00     0.037 A 
HETATM   46  C18 UNL     1      33.605 -29.101 -40.681  1.00  0.00     0.065 A 
HETATM   47  C19 UNL     1      34.131 -27.842 -40.787  1.00  0.00     0.037 A 
HETATM   48  C20 UNL     1      33.738 -27.007 -41.790  1.00  0.00     0.014 A 
BRANCH  46  49
HETATM   49  O7  UNL     1      34.018 -29.941 -39.652  1.00  0.00    -0.361 OA
ATOM     50  H7  UNL     1      33.618 -29.921 -38.791  1.00  0.00     0.217 HD
ENDBRANCH  46  49
ENDBRANCH  42  43
ENDBRANCH  38  41
ENDBRANCH  34  37
ENDBRANCH  32  34
ENDBRANCH   4  30
TORSDOF 10
ENDMDL
MODEL 4
REMARK VINA RESULT: -7.933075485      0.901      1.207
REMARK  10 active torsions:
REMARK  status: ('A' for Active; 'I' for Inactive)
REMARK    1  A    between atoms: N1_1  and  C1_4 
REMARK    2  A    between atoms: C5_14  and  N4_15 
REMARK    3  A    between atoms: C6_21  and  N6_22 
REMARK    4  A    between atoms: N6_22  and  C7_24 
REMARK    5  A    between atoms: C10_27  and  C11_28 
REMARK       I    between atoms: C11_28  and  N7_30 
REMARK    6  A    between atoms: N7_30  and  S1_32 
REMARK    7  A    between atoms: S1_32  and  N8_35 
REMARK       I    between atoms: N8_35  and  C12_37 
REMARK    8  A    between atoms: C12_37  and  C13_39 
REMARK    9  A    between atoms: C14_40  and  C15_41 
REMARK   10  A    between atoms: C18_44  and  O7_45 
ROOT
HETATM    1  C7  UNL     1      29.953 -28.939 -38.073  1.00  0.00     0.033 A 
HETATM    2  C8  UNL     1      29.369 -30.197 -38.048  1.00  0.00     0.030 A 
HETATM    3  C9  UNL     1      30.084 -31.351 -37.815  1.00  0.00     0.019 A 
HETATM    4  C10 UNL     1      31.442 -31.287 -37.594  1.00  0.00     0.033 A 
HETATM    5  C21 UNL     1      32.056 -30.060 -37.610  1.00  0.00     0.019 A 
HETATM    6  C22 UNL     1      31.320 -28.924 -37.845  1.00  0.00     0.030 A 
ENDROOT
BRANCH   1   7
HETATM    7  N6  UNL     1      29.211 -27.764 -38.314  1.00  0.00    -0.342 N 
ATOM      8  H6  UNL     1      28.388 -27.556 -37.749  1.00  0.00     0.167 HD
BRANCH   7   9
HETATM    9  C6  UNL     1      29.611 -26.878 -39.336  1.00  0.00     0.124 A 
HETATM   10  C3  UNL     1      30.024 -25.527 -38.994  1.00  0.00     0.127 A 
HETATM   11  C2  UNL     1      30.044 -25.100 -37.690  1.00  0.00     0.266 A 
HETATM   12  C4  UNL     1      30.412 -24.651 -39.988  1.00  0.00     0.170 A 
HETATM   13  N2  UNL     1      30.442 -23.843 -37.431  1.00  0.00    -0.288 N 
HETATM   14  O1  UNL     1      29.693 -25.886 -36.775  1.00  0.00    -0.267 OA
HETATM   15  C1  UNL     1      30.813 -23.018 -38.426  1.00  0.00     0.226 A 
ATOM     16  H2  UNL     1      30.463 -23.511 -36.467  1.00  0.00     0.172 HD
HETATM   17  O2  UNL     1      30.793 -23.430 -39.670  1.00  0.00    -0.261 OA
HETATM   18  N3  UNL     1      30.388 -25.099 -41.333  1.00  0.00    -0.326 N 
HETATM   19  C5  UNL     1      29.998 -26.422 -41.690  1.00  0.00     0.389 A 
ATOM     20  H3  UNL     1      30.660 -24.451 -42.071  1.00  0.00     0.165 HD
HETATM   21  N5  UNL     1      29.619 -27.222 -40.558  1.00  0.00    -0.332 N 
ATOM     22  H5  UNL     1      29.323 -28.177 -40.760  1.00  0.00     0.165 HD
BRANCH  15  23
HETATM   23  N1  UNL     1      31.188 -21.817 -38.133  1.00  0.00    -0.365 N 
ATOM     24  H12 UNL     1      31.348 -21.542 -37.164  1.00  0.00     0.159 HD
ATOM     25  H11 UNL     1      31.323 -21.145 -38.889  1.00  0.00     0.159 HD
ENDBRANCH  15  23
BRANCH  19  26
HETATM   26  N4  UNL     1      28.874 -26.373 -42.617  1.00  0.00    -0.041 N 
ATOM     27  H43 UNL     1      29.181 -26.333 -43.590  1.00  0.00     0.279 HD
ATOM     28  H42 UNL     1      28.371 -27.260 -42.657  1.00  0.00     0.279 HD
ATOM     29  H41 UNL     1      28.260 -25.595 -42.376  1.00  0.00     0.279 HD
ENDBRANCH  19  26
ENDBRANCH   7   9
ENDBRANCH   1   7
BRANCH   4  30
HETATM   30  C11 UNL     1      32.210 -32.502 -37.353  1.00  0.00     0.266 C 
HETATM   31  O3  UNL     1      31.653 -33.607 -37.550  1.00  0.00    -0.267 OA
HETATM   32  N7  UNL     1      33.556 -32.479 -36.906  1.00  0.00    -0.233 N 
ATOM     33  H7  UNL     1      33.785 -32.439 -35.913  1.00  0.00     0.183 HD
BRANCH  32  34
HETATM   34  S1  UNL     1      34.676 -32.518 -38.000  1.00  0.00     0.328 S 
HETATM   35  O4  UNL     1      35.553 -33.694 -37.686  1.00  0.00    -0.182 OA
HETATM   36  O5  UNL     1      34.013 -32.647 -39.540  1.00  0.00    -0.182 OA
BRANCH  34  37
HETATM   37  N8  UNL     1      35.595 -31.087 -37.822  1.00  0.00    -0.234 N 
HETATM   38  C12 UNL     1      36.076 -30.630 -36.515  1.00  0.00     0.255 C 
HETATM   39  O6  UNL     1      35.755 -31.367 -35.594  1.00  0.00    -0.268 OA
ATOM     40  H8  UNL     1      35.816 -30.535 -38.652  1.00  0.00     0.183 HD
BRANCH  38  41
HETATM   41  C13 UNL     1      36.824 -29.437 -36.455  1.00  0.00     0.076 C 
HETATM   42  C14 UNL     1      36.707 -28.181 -36.347  1.00  0.00     0.017 C 
BRANCH  42  43
HETATM   43  C15 UNL     1      35.611 -27.280 -36.223  1.00  0.00    -0.036 A 
HETATM   44  C16 UNL     1      34.496 -27.145 -37.000  1.00  0.00     0.014 A 
HETATM   45  C17 UNL     1      33.490 -26.199 -36.742  1.00  0.00     0.037 A 
HETATM   46  C18 UNL     1      33.581 -25.350 -35.677  1.00  0.00     0.065 A 
HETATM   47  C19 UNL     1      34.682 -25.450 -34.871  1.00  0.00     0.037 A 
HETATM   48  C20 UNL     1      35.652 -26.371 -35.131  1.00  0.00     0.014 A 
BRANCH  46  49
HETATM   49  O7  UNL     1      32.600 -24.404 -35.397  1.00  0.00    -0.361 OA
ATOM     50  H7  UNL     1      32.216 -24.313 -34.533  1.00  0.00     0.217 HD
ENDBRANCH  46  49
ENDBRANCH  42  43
ENDBRANCH  38  41
ENDBRANCH  34  37
ENDBRANCH  32  34
ENDBRANCH   4  30
TORSDOF 10
ENDMDL
MODEL 5
REMARK VINA RESULT: -7.894962510      4.273      6.670
REMARK  10 active torsions:
REMARK  status: ('A' for Active; 'I' for Inactive)
REMARK    1  A    between atoms: N1_1  and  C1_4 
REMARK    2  A    between atoms: C5_14  and  N4_15 
REMARK    3  A    between atoms: C6_21  and  N6_22 
REMARK    4  A    between atoms: N6_22  and  C7_24 
REMARK    5  A    between atoms: C10_27  and  C11_28 
REMARK       I    between atoms: C11_28  and  N7_30 
REMARK    6  A    between atoms: N7_30  and  S1_32 
REMARK    7  A    between atoms: S1_32  and  N8_35 
REMARK       I    between atoms: N8_35  and  C12_37 
REMARK    8  A    between atoms: C12_37  and  C13_39 
REMARK    9  A    between atoms: C14_40  and  C15_41 
REMARK   10  A    between atoms: C18_44  and  O7_45 
ROOT
HETATM    1  C7  UNL     1      30.511 -28.135 -37.708  1.00  0.00     0.033 A 
HETATM    2  C8  UNL     1      30.055 -29.445 -37.686  1.00  0.00     0.030 A 
HETATM    3  C9  UNL     1      30.899 -30.533 -37.686  1.00  0.00     0.019 A 
HETATM    4  C10 UNL     1      32.263 -30.346 -37.708  1.00  0.00     0.033 A 
HETATM    5  C21 UNL     1      32.754 -29.065 -37.728  1.00  0.00     0.019 A 
HETATM    6  C22 UNL     1      31.890 -27.996 -37.728  1.00  0.00     0.030 A 
ENDROOT
BRANCH   1   7
HETATM    7  N6  UNL     1      29.638 -27.028 -37.708  1.00  0.00    -0.342 N 
ATOM      8  H6  UNL     1      28.920 -26.943 -36.989  1.00  0.00     0.167 HD
BRANCH   7   9
HETATM    9  C6  UNL     1      29.760 -26.038 -38.707  1.00  0.00     0.124 A 
HETATM   10  C3  UNL     1      30.247 -24.716 -38.350  1.00  0.00     0.127 A 
HETATM   11  C2  UNL     1      30.605 -24.415 -37.061  1.00  0.00     0.266 A 
HETATM   12  C4  UNL     1      30.365 -23.740 -39.320  1.00  0.00     0.170 A 
HETATM   13  N2  UNL     1      31.056 -23.179 -36.790  1.00  0.00    -0.288 N 
HETATM   14  O1  UNL     1      30.503 -25.294 -36.169  1.00  0.00    -0.267 OA
HETATM   15  C1  UNL     1      31.157 -22.253 -37.760  1.00  0.00     0.226 A 
ATOM     16  H2  UNL     1      31.326 -22.939 -35.836  1.00  0.00     0.172 HD
HETATM   17  O2  UNL     1      30.815 -22.545 -38.991  1.00  0.00    -0.261 OA
HETATM   18  N3  UNL     1      29.993 -24.058 -40.650  1.00  0.00    -0.326 N 
HETATM   19  C5  UNL     1      29.524 -25.350 -41.023  1.00  0.00     0.389 A 
ATOM     20  H3  UNL     1      30.065 -23.335 -41.366  1.00  0.00     0.165 HD
HETATM   21  N5  UNL     1      29.451 -26.264 -39.917  1.00  0.00    -0.332 N 
ATOM     22  H5  UNL     1      29.112 -27.202 -40.129  1.00  0.00     0.165 HD
BRANCH  15  23
HETATM   23  N1  UNL     1      31.595 -21.077 -37.457  1.00  0.00    -0.365 N 
ATOM     24  H12 UNL     1      31.683 -20.787 -36.482  1.00  0.00     0.159 HD
ATOM     25  H11 UNL     1      31.854 -20.438 -38.209  1.00  0.00     0.159 HD
ENDBRANCH  15  23
BRANCH  19  26
HETATM   26  N4  UNL     1      28.198 -25.241 -41.621  1.00  0.00    -0.041 N 
ATOM     27  H43 UNL     1      27.475 -25.651 -41.027  1.00  0.00     0.279 HD
ATOM     28  H42 UNL     1      27.857 -24.279 -41.626  1.00  0.00     0.279 HD
ATOM     29  H41 UNL     1      28.205 -25.651 -42.555  1.00  0.00     0.279 HD
ENDBRANCH  19  26
ENDBRANCH   7   9
ENDBRANCH   1   7
BRANCH   4  30
HETATM   30  C11 UNL     1      33.165 -31.491 -37.715  1.00  0.00     0.266 C 
HETATM   31  O3  UNL     1      33.191 -32.235 -36.707  1.00  0.00    -0.267 OA
HETATM   32  N7  UNL     1      34.011 -31.790 -38.814  1.00  0.00    -0.233 N 
ATOM     33  H7  UNL     1      34.940 -31.377 -38.897  1.00  0.00     0.183 HD
BRANCH  32  34
HETATM   34  S1  UNL     1      33.460 -32.781 -39.894  1.00  0.00     0.328 S 
HETATM   35  O4  UNL     1      34.185 -34.081 -39.707  1.00  0.00    -0.182 OA
HETATM   36  O5  UNL     1      31.798 -32.983 -39.737  1.00  0.00    -0.182 OA
BRANCH  34  37
HETATM   37  N8  UNL     1      33.879 -32.135 -41.422  1.00  0.00    -0.234 N 
HETATM   38  C12 UNL     1      33.357 -30.848 -41.890  1.00  0.00     0.255 C 
HETATM   39  O6  UNL     1      32.613 -30.304 -41.088  1.00  0.00    -0.268 OA
ATOM     40  H8  UNL     1      34.511 -32.662 -42.024  1.00  0.00     0.183 HD
BRANCH  38  41
HETATM   41  C13 UNL     1      33.749 -30.389 -43.164  1.00  0.00     0.076 C 
HETATM   42  C14 UNL     1      33.717 -30.688 -44.394  1.00  0.00     0.017 C 
BRANCH  42  43
HETATM   43  C15 UNL     1      33.199 -31.777 -45.151  1.00  0.00    -0.036 A 
HETATM   44  C16 UNL     1      32.725 -32.988 -44.732  1.00  0.00     0.014 A 
HETATM   45  C17 UNL     1      32.239 -33.968 -45.612  1.00  0.00     0.037 A 
HETATM   46  C18 UNL     1      32.216 -33.754 -46.960  1.00  0.00     0.065 A 
HETATM   47  C19 UNL     1      32.681 -32.554 -47.425  1.00  0.00     0.037 A 
HETATM   48  C20 UNL     1      33.151 -31.610 -46.562  1.00  0.00     0.014 A 
BRANCH  46  49
HETATM   49  O7  UNL     1      31.739 -34.707 -47.855  1.00  0.00    -0.361 OA
ATOM     50  H7  UNL     1      32.244 -35.475 -48.093  1.00  0.00     0.217 HD
ENDBRANCH  46  49
ENDBRANCH  42  43
ENDBRANCH  38  41
ENDBRANCH  34  37
ENDBRANCH  32  34
ENDBRANCH   4  30
TORSDOF 10
ENDMDL
