MODEL 1
REMARK VINA RESULT: -7.855047850      0.000      0.000
REMARK  10 active torsions:
REMARK  status: ('A' for Active; 'I' for Inactive)
REMARK    1  A    between atoms: N1_1  and  C1_4 
REMARK    2  A    between atoms: C3_8  and  C4_9 
REMARK    3  A    between atoms: C4_9  and  C5_10 
REMARK    4  A    between atoms: C5_10  and  N3_11 
REMARK    5  A    between atoms: N3_11  and  C6_13 
REMARK    6  A    between atoms: C8_19  and  N6_20 
REMARK    7  A    between atoms: N6_20  and  C9_21 
REMARK    8  A    between atoms: N7_24  and  C12_25 
REMARK    9  A    between atoms: C19_36  and  N9_37 
REMARK   10  A    between atoms: N11_44  and  N12_45 
ROOT
HETATM    1  C9  UNL     1      31.307 -33.803 -37.410  1.00  0.00     0.186 C 
HETATM    2  C10 UNL     1      30.691 -34.960 -36.701  1.00  0.00     0.115 C 
HETATM    3  C11 UNL     1      30.362 -36.178 -37.490  1.00  0.00     0.161 C 
HETATM    4  N7  UNL     1      31.305 -36.448 -38.537  1.00  0.00    -0.130 N 
HETATM    5  C20 UNL     1      32.022 -35.410 -39.181  1.00  0.00     0.364 C 
HETATM    6  O1  UNL     1      32.636 -35.613 -40.285  1.00  0.00    -0.244 OA
HETATM    7  N11 UNL     1      32.068 -34.133 -38.615  1.00  0.00    -0.186 N 
ENDROOT
BRANCH   1   8
HETATM    8  N6  UNL     1      30.539 -32.687 -37.522  1.00  0.00    -0.354 NA
BRANCH   8   9
HETATM    9  C8  UNL     1      29.754 -31.858 -37.840  1.00  0.00     0.276 A 
HETATM   10  N5  UNL     1      28.497 -32.181 -38.326  1.00  0.00    -0.311 N 
HETATM   11  C7  UNL     1      27.628 -31.232 -38.671  1.00  0.00     0.201 A 
ATOM     12  H5  UNL     1      28.233 -33.162 -38.423  1.00  0.00     0.170 HD
HETATM   13  N4  UNL     1      27.897 -29.920 -38.575  1.00  0.00    -0.187 N 
HETATM   14  C6  UNL     1      29.111 -29.567 -38.106  1.00  0.00     0.686 A 
ATOM     15  H4  UNL     1      27.210 -29.217 -38.846  1.00  0.00     0.185 HD
HETATM   16  N13 UNL     1      29.988 -30.509 -37.760  1.00  0.00    -0.148 N 
ATOM     17  H13 UNL     1      30.896 -30.205 -37.411  1.00  0.00     0.188 HD
BRANCH  14  18
HETATM   18  N3  UNL     1      29.359 -28.324 -37.999  1.00  0.00    -0.205 N 
ATOM     19  H3  UNL     1      28.560 -27.727 -38.214  1.00  0.00     0.183 HD
BRANCH  18  20
HETATM   20  C5  UNL     1      30.507 -27.616 -37.644  1.00  0.00     0.084 C 
BRANCH  20  21
HETATM   21  C4  UNL     1      30.364 -26.116 -37.780  1.00  0.00     0.092 C 
BRANCH  21  22
HETATM   22  C3  UNL     1      29.792 -25.784 -39.143  1.00  0.00     0.006 A 
HETATM   23  C2  UNL     1      28.601 -25.165 -39.406  1.00  0.00     0.105 A 
HETATM   24  N2  UNL     1      28.271 -24.965 -40.649  1.00  0.00    -0.346 N 
HETATM   25  C1  UNL     1      29.112 -25.376 -41.600  1.00  0.00     0.142 A 
ATOM     26  H2  UNL     1      27.392 -24.507 -40.890  1.00  0.00     0.167 HD
HETATM   27  S3  UNL     1      30.399 -26.060 -40.713  1.00  0.00    -0.057 SA
BRANCH  25  28
HETATM   28  N1  UNL     1      28.986 -25.284 -42.907  1.00  0.00    -0.380 N 
ATOM     29  H12 UNL     1      29.441 -24.625 -43.538  1.00  0.00     0.158 HD
ATOM     30  H11 UNL     1      28.416 -25.852 -43.535  1.00  0.00     0.158 HD
ENDBRANCH  25  28
ENDBRANCH  21  22
ENDBRANCH  20  21
ENDBRANCH  18  20
ENDBRANCH  14  18
ENDBRANCH   8   9
ENDBRANCH   1   8
BRANCH   7  31
HETATM   31  N12 UNL     1      32.870 -33.124 -39.216  1.00  0.00    -0.332 N 
ATOM     32 2H12 UNL     1      32.769 -32.154 -38.920  1.00  0.00     0.177 HD
ATOM     33 1H12 UNL     1      33.537 -33.394 -39.939  1.00  0.00     0.177 HD
ENDBRANCH   7  31
BRANCH   4  34
HETATM   34  C12 UNL     1      31.525 -37.805 -38.935  1.00  0.00     0.690 A 
HETATM   35  N8  UNL     1      31.146 -38.188 -40.123  1.00  0.00    -0.189 N 
HETATM   36  C13 UNL     1      31.267 -39.442 -40.685  1.00  0.00     0.082 A 
ATOM     37  H8  UNL     1      30.707 -37.474 -40.706  1.00  0.00     0.184 HD
HETATM   38  C14 UNL     1      31.860 -40.322 -39.842  1.00  0.00     0.078 A 
HETATM   39  C18 UNL     1      30.887 -39.918 -41.938  1.00  0.00     0.017 A 
HETATM   40  S1  UNL     1      31.922 -41.791 -40.700  1.00  0.00    -0.076 SA
HETATM   41  C19 UNL     1      32.275 -39.927 -38.563  1.00  0.00     0.134 A 
HETATM   42  C15 UNL     1      31.179 -41.241 -42.136  1.00  0.00     0.058 A 
HETATM   43  S2  UNL     1      30.639 -41.619 -43.715  1.00  0.00    -0.094 SA
HETATM   44  C16 UNL     1      30.042 -40.085 -44.120  1.00  0.00     0.052 A 
HETATM   45  C17 UNL     1      30.275 -39.322 -43.023  1.00  0.00     0.023 A 
HETATM   46  N10 UNL     1      32.111 -38.683 -38.109  1.00  0.00    -0.175 N 
ATOM     47  H10 UNL     1      32.419 -38.411 -37.174  1.00  0.00     0.186 HD
BRANCH  41  48
HETATM   48  N9  UNL     1      32.834 -40.858 -37.847  1.00  0.00    -0.384 N 
ATOM     49  H92 UNL     1      33.172 -40.687 -36.900  1.00  0.00     0.157 HD
ATOM     50  H91 UNL     1      32.910 -41.770 -38.299  1.00  0.00     0.157 HD
ENDBRANCH  41  48
ENDBRANCH   4  34
TORSDOF 10
ENDMDL
MODEL 2
REMARK VINA RESULT: -7.728255096      1.416      1.668
REMARK  10 active torsions:
REMARK  status: ('A' for Active; 'I' for Inactive)
REMARK    1  A    between atoms: N1_1  and  C1_4 
REMARK    2  A    between atoms: C3_8  and  C4_9 
REMARK    3  A    between atoms: C4_9  and  C5_10 
REMARK    4  A    between atoms: C5_10  and  N3_11 
REMARK    5  A    between atoms: N3_11  and  C6_13 
REMARK    6  A    between atoms: C8_19  and  N6_20 
REMARK    7  A    between atoms: N6_20  and  C9_21 
REMARK    8  A    between atoms: N7_24  and  C12_25 
REMARK    9  A    between atoms: C19_36  and  N9_37 
REMARK   10  A    between atoms: N11_44  and  N12_45 
ROOT
HETATM    1  C9  UNL     1      31.206 -33.642 -37.506  1.00  0.00     0.186 C 
HETATM    2  C10 UNL     1      30.573 -34.758 -36.748  1.00  0.00     0.115 C 
HETATM    3  C11 UNL     1      30.302 -36.034 -37.464  1.00  0.00     0.161 C 
HETATM    4  N7  UNL     1      31.299 -36.358 -38.443  1.00  0.00    -0.130 N 
HETATM    5  C20 UNL     1      32.032 -35.354 -39.123  1.00  0.00     0.364 C 
HETATM    6  O1  UNL     1      32.703 -35.621 -40.179  1.00  0.00    -0.244 OA
HETATM    7  N11 UNL     1      32.030 -34.040 -38.646  1.00  0.00    -0.186 N 
ENDROOT
BRANCH   1   8
HETATM    8  N6  UNL     1      30.427 -32.551 -37.732  1.00  0.00    -0.354 NA
BRANCH   8   9
HETATM    9  C8  UNL     1      29.577 -31.792 -38.059  1.00  0.00     0.276 A 
HETATM   10  N5  UNL     1      28.317 -32.217 -38.444  1.00  0.00    -0.311 N 
HETATM   11  C7  UNL     1      27.375 -31.346 -38.800  1.00  0.00     0.201 A 
ATOM     12  H5  UNL     1      28.106 -33.216 -38.455  1.00  0.00     0.170 HD
HETATM   13  N4  UNL     1      27.571 -30.017 -38.812  1.00  0.00    -0.187 N 
HETATM   14  C6  UNL     1      28.786 -29.565 -38.444  1.00  0.00     0.686 A 
ATOM     15  H4  UNL     1      26.828 -29.375 -39.089  1.00  0.00     0.185 HD
HETATM   16  N13 UNL     1      29.735 -30.429 -38.087  1.00  0.00    -0.148 N 
ATOM     17  H13 UNL     1      30.642 -30.051 -37.816  1.00  0.00     0.188 HD
BRANCH  14  18
HETATM   18  N3  UNL     1      28.966 -28.305 -38.439  1.00  0.00    -0.205 N 
ATOM     19  H3  UNL     1      28.101 -27.769 -38.367  1.00  0.00     0.183 HD
BRANCH  18  20
HETATM   20  C5  UNL     1      30.111 -27.513 -38.512  1.00  0.00     0.084 C 
BRANCH  20  21
HETATM   21  C4  UNL     1      30.354 -26.678 -37.275  1.00  0.00     0.092 C 
BRANCH  21  22
HETATM   22  C3  UNL     1      30.400 -25.212 -37.655  1.00  0.00     0.006 A 
HETATM   23  C2  UNL     1      29.646 -24.587 -38.610  1.00  0.00     0.105 A 
HETATM   24  N2  UNL     1      29.828 -23.312 -38.802  1.00  0.00    -0.346 N 
HETATM   25  C1  UNL     1      30.739 -22.685 -38.056  1.00  0.00     0.142 A 
ATOM     26  H2  UNL     1      29.288 -22.807 -39.504  1.00  0.00     0.167 HD
HETATM   27  S3  UNL     1      31.352 -23.928 -37.062  1.00  0.00    -0.057 SA
BRANCH  25  28
HETATM   28  N1  UNL     1      31.089 -21.416 -38.079  1.00  0.00    -0.380 N 
ATOM     29  H12 UNL     1      30.917 -20.729 -38.813  1.00  0.00     0.158 HD
ATOM     30  H11 UNL     1      31.593 -20.880 -37.372  1.00  0.00     0.158 HD
ENDBRANCH  25  28
ENDBRANCH  21  22
ENDBRANCH  20  21
ENDBRANCH  18  20
ENDBRANCH  14  18
ENDBRANCH   8   9
ENDBRANCH   1   8
BRANCH   7  31
HETATM   31  N12 UNL     1      32.846 -33.061 -39.277  1.00  0.00    -0.332 N 
ATOM     32 2H12 UNL     1      33.105 -33.173 -40.257  1.00  0.00     0.177 HD
ATOM     33 1H12 UNL     1      33.161 -32.259 -38.731  1.00  0.00     0.177 HD
ENDBRANCH   7  31
BRANCH   4  34
HETATM   34  C12 UNL     1      31.560 -37.735 -38.734  1.00  0.00     0.690 A 
HETATM   35  N8  UNL     1      31.192 -38.220 -39.888  1.00  0.00    -0.189 N 
HETATM   36  C13 UNL     1      31.351 -39.510 -40.350  1.00  0.00     0.082 A 
ATOM     37  H8  UNL     1      30.733 -37.568 -40.524  1.00  0.00     0.184 HD
HETATM   38  C14 UNL     1      31.969 -40.304 -39.442  1.00  0.00     0.078 A 
HETATM   39  C18 UNL     1      30.986 -40.095 -41.561  1.00  0.00     0.017 A 
HETATM   40  S1  UNL     1      32.075 -41.834 -40.182  1.00  0.00    -0.076 SA
HETATM   41  C19 UNL     1      32.372 -39.798 -38.199  1.00  0.00     0.134 A 
HETATM   42  C15 UNL     1      31.316 -41.420 -41.656  1.00  0.00     0.058 A 
HETATM   43  S2  UNL     1      30.789 -41.936 -43.199  1.00  0.00    -0.094 SA
HETATM   44  C16 UNL     1      30.147 -40.457 -43.722  1.00  0.00     0.052 A 
HETATM   45  C17 UNL     1      30.357 -39.603 -42.689  1.00  0.00     0.023 A 
HETATM   46  N10 UNL     1      32.171 -38.527 -37.843  1.00  0.00    -0.175 N 
ATOM     47  H10 UNL     1      32.470 -38.175 -36.933  1.00  0.00     0.186 HD
BRANCH  41  48
HETATM   48  N9  UNL     1      32.957 -40.654 -37.413  1.00  0.00    -0.384 N 
ATOM     49  H92 UNL     1      33.538 -40.361 -36.627  1.00  0.00     0.157 HD
ATOM     50  H91 UNL     1      32.795 -41.635 -37.638  1.00  0.00     0.157 HD
ENDBRANCH  41  48
ENDBRANCH   4  34
TORSDOF 10
ENDMDL
MODEL 3
REMARK VINA RESULT: -7.700025855      3.323     10.628
REMARK  10 active torsions:
REMARK  status: ('A' for Active; 'I' for Inactive)
REMARK    1  A    between atoms: N1_1  and  C1_4 
REMARK    2  A    between atoms: C3_8  and  C4_9 
REMARK    3  A    between atoms: C4_9  and  C5_10 
REMARK    4  A    between atoms: C5_10  and  N3_11 
REMARK    5  A    between atoms: N3_11  and  C6_13 
REMARK    6  A    between atoms: C8_19  and  N6_20 
REMARK    7  A    between atoms: N6_20  and  C9_21 
REMARK    8  A    between atoms: N7_24  and  C12_25 
REMARK    9  A    between atoms: C19_36  and  N9_37 
REMARK   10  A    between atoms: N11_44  and  N12_45 
ROOT
HETATM    1  C9  UNL     1      31.297 -32.519 -37.368  1.00  0.00     0.186 C 
HETATM    2  C10 UNL     1      32.328 -31.447 -37.469  1.00  0.00     0.115 C 
HETATM    3  C11 UNL     1      32.216 -30.462 -38.578  1.00  0.00     0.161 C 
HETATM    4  N7  UNL     1      30.860 -30.133 -38.910  1.00  0.00    -0.130 N 
HETATM    5  C20 UNL     1      29.802 -31.057 -38.730  1.00  0.00     0.364 C 
HETATM    6  O1  UNL     1      28.661 -30.875 -39.279  1.00  0.00    -0.244 OA
HETATM    7  N11 UNL     1      29.991 -32.196 -37.942  1.00  0.00    -0.186 N 
ENDROOT
BRANCH   1   8
HETATM    8  N6  UNL     1      31.720 -33.786 -37.618  1.00  0.00    -0.354 NA
BRANCH   8   9
HETATM    9  C8  UNL     1      32.085 -34.802 -38.110  1.00  0.00     0.276 A 
HETATM   10  N5  UNL     1      33.054 -35.598 -37.522  1.00  0.00    -0.311 N 
HETATM   11  C7  UNL     1      33.444 -36.739 -38.089  1.00  0.00     0.201 A 
ATOM     12  H5  UNL     1      33.477 -35.306 -36.641  1.00  0.00     0.170 HD
HETATM   13  N4  UNL     1      32.937 -37.194 -39.247  1.00  0.00    -0.187 N 
HETATM   14  C6  UNL     1      31.992 -36.445 -39.848  1.00  0.00     0.686 A 
ATOM     15  H4  UNL     1      33.256 -38.072 -39.655  1.00  0.00     0.185 HD
HETATM   16  N13 UNL     1      31.596 -35.302 -39.290  1.00  0.00    -0.148 N 
ATOM     17  H13 UNL     1      30.880 -34.761 -39.774  1.00  0.00     0.188 HD
BRANCH  14  18
HETATM   18  N3  UNL     1      31.500 -36.885 -40.937  1.00  0.00    -0.205 N 
ATOM     19  H3  UNL     1      31.012 -37.775 -40.835  1.00  0.00     0.183 HD
BRANCH  18  20
HETATM   20  C5  UNL     1      31.496 -36.391 -42.241  1.00  0.00     0.084 C 
BRANCH  20  21
HETATM   21  C4  UNL     1      32.870 -36.030 -42.760  1.00  0.00     0.092 C 
BRANCH  21  22
HETATM   22  C3  UNL     1      32.771 -34.804 -43.644  1.00  0.00     0.006 A 
HETATM   23  C2  UNL     1      32.183 -34.725 -44.877  1.00  0.00     0.105 A 
HETATM   24  N2  UNL     1      32.199 -33.580 -45.495  1.00  0.00    -0.346 N 
HETATM   25  C1  UNL     1      32.787 -32.545 -44.893  1.00  0.00     0.142 A 
ATOM     26  H2  UNL     1      31.772 -33.476 -46.416  1.00  0.00     0.167 HD
HETATM   27  S3  UNL     1      33.331 -33.209 -43.419  1.00  0.00    -0.057 SA
BRANCH  25  28
HETATM   28  N1  UNL     1      32.924 -31.309 -45.326  1.00  0.00    -0.380 N 
ATOM     29  H12 UNL     1      32.476 -30.871 -46.130  1.00  0.00     0.158 HD
ATOM     30  H11 UNL     1      33.498 -30.558 -44.941  1.00  0.00     0.158 HD
ENDBRANCH  25  28
ENDBRANCH  21  22
ENDBRANCH  20  21
ENDBRANCH  18  20
ENDBRANCH  14  18
ENDBRANCH   8   9
ENDBRANCH   1   8
BRANCH   7  31
HETATM   31  N12 UNL     1      28.896 -33.066 -37.687  1.00  0.00    -0.332 N 
ATOM     32 2H12 UNL     1      28.968 -33.765 -36.947  1.00  0.00     0.177 HD
ATOM     33 1H12 UNL     1      28.054 -32.975 -38.254  1.00  0.00     0.177 HD
ENDBRANCH   7  31
BRANCH   4  34
HETATM   34  C12 UNL     1      30.574 -28.831 -39.434  1.00  0.00     0.690 A 
HETATM   35  N8  UNL     1      30.786 -27.785 -38.685  1.00  0.00    -0.189 N 
HETATM   36  C13 UNL     1      30.572 -26.460 -39.005  1.00  0.00     0.082 A 
ATOM     37  H8  UNL     1      31.154 -27.968 -37.751  1.00  0.00     0.184 HD
HETATM   38  C14 UNL     1      30.085 -26.312 -40.261  1.00  0.00     0.078 A 
HETATM   39  C18 UNL     1      30.774 -25.300 -38.261  1.00  0.00     0.017 A 
HETATM   40  S1  UNL     1      29.890 -24.634 -40.472  1.00  0.00    -0.076 SA
HETATM   41  C19 UNL     1      29.853 -27.426 -41.080  1.00  0.00     0.134 A 
HETATM   42  C15 UNL     1      30.443 -24.151 -38.929  1.00  0.00     0.058 A 
HETATM   43  S2  UNL     1      30.764 -22.861 -37.853  1.00  0.00    -0.094 SA
HETATM   44  C16 UNL     1      31.322 -23.791 -36.550  1.00  0.00     0.052 A 
HETATM   45  C17 UNL     1      31.245 -25.075 -36.982  1.00  0.00     0.023 A 
HETATM   46  N10 UNL     1      30.092 -28.676 -40.674  1.00  0.00    -0.175 N 
ATOM     47  H10 UNL     1      29.917 -29.476 -41.283  1.00  0.00     0.186 HD
BRANCH  41  48
HETATM   48  N9  UNL     1      29.388 -27.159 -42.265  1.00  0.00    -0.384 N 
ATOM     49  H92 UNL     1      29.803 -27.548 -43.112  1.00  0.00     0.157 HD
ATOM     50  H91 UNL     1      28.582 -26.533 -42.287  1.00  0.00     0.157 HD
ENDBRANCH  41  48
ENDBRANCH   4  34
TORSDOF 10
ENDMDL
MODEL 4
REMARK VINA RESULT: -7.677992208      4.592     10.875
REMARK  10 active torsions:
REMARK  status: ('A' for Active; 'I' for Inactive)
REMARK    1  A    between atoms: N1_1  and  C1_4 
REMARK    2  A    between atoms: C3_8  and  C4_9 
REMARK    3  A    between atoms: C4_9  and  C5_10 
REMARK    4  A    between atoms: C5_10  and  N3_11 
REMARK    5  A    between atoms: N3_11  and  C6_13 
REMARK    6  A    between atoms: C8_19  and  N6_20 
REMARK    7  A    between atoms: N6_20  and  C9_21 
REMARK    8  A    between atoms: N7_24  and  C12_25 
REMARK    9  A    between atoms: C19_36  and  N9_37 
REMARK   10  A    between atoms: N11_44  and  N12_45 
ROOT
HETATM    1  C9  UNL     1      29.935 -31.925 -38.498  1.00  0.00     0.186 C 
HETATM    2  C10 UNL     1      28.885 -31.144 -37.785  1.00  0.00     0.115 C 
HETATM    3  C11 UNL     1      29.227 -29.779 -37.301  1.00  0.00     0.161 C 
HETATM    4  N7  UNL     1      30.121 -29.075 -38.174  1.00  0.00    -0.130 N 
HETATM    5  C20 UNL     1      31.069 -29.755 -38.977  1.00  0.00     0.364 C 
HETATM    6  O1  UNL     1      32.041 -29.131 -39.529  1.00  0.00    -0.244 OA
HETATM    7  N11 UNL     1      30.958 -31.133 -39.179  1.00  0.00    -0.186 N 
ENDROOT
BRANCH   1   8
HETATM    8  N6  UNL     1      30.413 -33.021 -37.852  1.00  0.00    -0.354 NA
BRANCH   8   9
HETATM    9  C8  UNL     1      31.072 -33.911 -37.430  1.00  0.00     0.276 A 
HETATM   10  N5  UNL     1      30.549 -35.175 -37.209  1.00  0.00    -0.311 N 
HETATM   11  C7  UNL     1      31.311 -36.163 -36.741  1.00  0.00     0.201 A 
ATOM     12  H5  UNL     1      29.564 -35.352 -37.407  1.00  0.00     0.170 HD
HETATM   13  N4  UNL     1      32.614 -36.012 -36.455  1.00  0.00    -0.187 N 
HETATM   14  C6  UNL     1      33.158 -34.796 -36.657  1.00  0.00     0.686 A 
ATOM     15  H4  UNL     1      33.171 -36.789 -36.098  1.00  0.00     0.185 HD
HETATM   16  N13 UNL     1      32.405 -33.801 -37.124  1.00  0.00    -0.148 N 
ATOM     17  H13 UNL     1      32.850 -32.895 -37.263  1.00  0.00     0.188 HD
BRANCH  14  18
HETATM   18  N3  UNL     1      34.398 -34.659 -36.402  1.00  0.00    -0.205 N 
ATOM     19  H3  UNL     1      34.740 -35.296 -35.682  1.00  0.00     0.183 HD
BRANCH  18  20
HETATM   20  C5  UNL     1      35.380 -33.810 -36.912  1.00  0.00     0.084 C 
BRANCH  20  21
HETATM   21  C4  UNL     1      35.954 -32.857 -35.888  1.00  0.00     0.092 C 
BRANCH  21  22
HETATM   22  C3  UNL     1      35.638 -31.431 -36.291  1.00  0.00     0.006 A 
HETATM   23  C2  UNL     1      36.352 -30.309 -35.970  1.00  0.00     0.105 A 
HETATM   24  N2  UNL     1      35.923 -29.160 -36.405  1.00  0.00    -0.346 N 
HETATM   25  C1  UNL     1      34.810 -29.138 -37.140  1.00  0.00     0.142 A 
ATOM     26  H2  UNL     1      36.425 -28.299 -36.189  1.00  0.00     0.167 HD
HETATM   27  S3  UNL     1      34.361 -30.782 -37.216  1.00  0.00    -0.057 SA
BRANCH  25  28
HETATM   28  N1  UNL     1      34.198 -28.104 -37.676  1.00  0.00    -0.380 N 
ATOM     29  H12 UNL     1      34.447 -27.595 -38.524  1.00  0.00     0.158 HD
ATOM     30  H11 UNL     1      33.361 -27.619 -37.351  1.00  0.00     0.158 HD
ENDBRANCH  25  28
ENDBRANCH  21  22
ENDBRANCH  20  21
ENDBRANCH  18  20
ENDBRANCH  14  18
ENDBRANCH   8   9
ENDBRANCH   1   8
BRANCH   7  31
HETATM   31  N12 UNL     1      31.856 -31.790 -40.066  1.00  0.00    -0.332 N 
ATOM     32 2H12 UNL     1      31.525 -32.571 -40.632  1.00  0.00     0.177 HD
ATOM     33 1H12 UNL     1      32.821 -31.465 -40.117  1.00  0.00     0.177 HD
ENDBRANCH   7  31
BRANCH   4  34
HETATM   34  C12 UNL     1      30.047 -27.646 -38.233  1.00  0.00     0.690 A 
HETATM   35  N8  UNL     1      30.876 -26.938 -37.518  1.00  0.00    -0.189 N 
HETATM   36  C13 UNL     1      30.959 -25.563 -37.439  1.00  0.00     0.082 A 
ATOM     37  H8  UNL     1      31.542 -27.462 -36.951  1.00  0.00     0.184 HD
HETATM   38  C14 UNL     1      30.040 -24.950 -38.224  1.00  0.00     0.078 A 
HETATM   39  C18 UNL     1      31.813 -24.744 -36.702  1.00  0.00     0.017 A 
HETATM   40  S1  UNL     1      30.296 -23.283 -37.997  1.00  0.00    -0.076 SA
HETATM   41  C19 UNL     1      29.143 -25.697 -38.999  1.00  0.00     0.134 A 
HETATM   42  C15 UNL     1      31.590 -23.406 -36.888  1.00  0.00     0.058 A 
HETATM   43  S2  UNL     1      32.730 -22.589 -35.909  1.00  0.00    -0.094 SA
HETATM   44  C16 UNL     1      33.491 -23.959 -35.262  1.00  0.00     0.052 A 
HETATM   45  C17 UNL     1      32.843 -25.012 -35.822  1.00  0.00     0.023 A 
HETATM   46  N10 UNL     1      29.141 -27.033 -39.007  1.00  0.00    -0.175 N 
ATOM     47  H10 UNL     1      28.481 -27.562 -39.577  1.00  0.00     0.186 HD
BRANCH  41  48
HETATM   48  N9  UNL     1      28.310 -24.999 -39.714  1.00  0.00    -0.384 N 
ATOM     49  H92 UNL     1      28.489 -24.026 -39.960  1.00  0.00     0.157 HD
ATOM     50  H91 UNL     1      27.467 -25.493 -40.009  1.00  0.00     0.157 HD
ENDBRANCH  41  48
ENDBRANCH   4  34
TORSDOF 10
ENDMDL
MODEL 5
REMARK VINA RESULT: -7.670285912      3.546     10.869
REMARK  10 active torsions:
REMARK  status: ('A' for Active; 'I' for Inactive)
REMARK    1  A    between atoms: N1_1  and  C1_4 
REMARK    2  A    between atoms: C3_8  and  C4_9 
REMARK    3  A    between atoms: C4_9  and  C5_10 
REMARK    4  A    between atoms: C5_10  and  N3_11 
REMARK    5  A    between atoms: N3_11  and  C6_13 
REMARK    6  A    between atoms: C8_19  and  N6_20 
REMARK    7  A    between atoms: N6_20  and  C9_21 
REMARK    8  A    between atoms: N7_24  and  C12_25 
REMARK    9  A    between atoms: C19_36  and  N9_37 
REMARK   10  A    between atoms: N11_44  and  N12_45 
ROOT
HETATM    1  C9  UNL     1      31.203 -32.284 -37.519  1.00  0.00     0.186 C 
HETATM    2  C10 UNL     1      32.306 -31.289 -37.395  1.00  0.00     0.115 C 
HETATM    3  C11 UNL     1      32.175 -29.995 -38.116  1.00  0.00     0.161 C 
HETATM    4  N7  UNL     1      30.827 -29.509 -38.168  1.00  0.00    -0.130 N 
HETATM    5  C20 UNL     1      29.716 -30.387 -38.168  1.00  0.00     0.364 C 
HETATM    6  O1  UNL     1      28.548 -29.981 -38.497  1.00  0.00    -0.244 OA
HETATM    7  N11 UNL     1      29.881 -31.727 -37.808  1.00  0.00    -0.186 N 
ENDROOT
BRANCH   1   8
HETATM    8  N6  UNL     1      31.492 -33.422 -38.203  1.00  0.00    -0.354 NA
BRANCH   8   9
HETATM    9  C8  UNL     1      31.539 -34.526 -38.633  1.00  0.00     0.276 A 
HETATM   10  N5  UNL     1      31.072 -35.616 -37.917  1.00  0.00    -0.311 N 
HETATM   11  C7  UNL     1      31.128 -36.847 -38.423  1.00  0.00     0.201 A 
ATOM     12  H5  UNL     1      30.679 -35.474 -36.986  1.00  0.00     0.170 HD
HETATM   13  N4  UNL     1      31.629 -37.119 -39.639  1.00  0.00    -0.187 N 
HETATM   14  C6  UNL     1      32.093 -36.083 -40.365  1.00  0.00     0.686 A 
ATOM     15  H4  UNL     1      31.657 -38.073 -39.999  1.00  0.00     0.185 HD
HETATM   16  N13 UNL     1      32.043 -34.848 -39.867  1.00  0.00    -0.148 N 
ATOM     17  H13 UNL     1      32.405 -34.089 -40.444  1.00  0.00     0.188 HD
BRANCH  14  18
HETATM   18  N3  UNL     1      32.552 -36.339 -41.524  1.00  0.00    -0.205 N 
ATOM     19  H3  UNL     1      33.291 -37.042 -41.526  1.00  0.00     0.183 HD
BRANCH  18  20
HETATM   20  C5  UNL     1      32.245 -35.848 -42.793  1.00  0.00     0.084 C 
BRANCH  20  21
HETATM   21  C4  UNL     1      33.427 -35.242 -43.515  1.00  0.00     0.092 C 
BRANCH  21  22
HETATM   22  C3  UNL     1      33.178 -33.766 -43.745  1.00  0.00     0.006 A 
HETATM   23  C2  UNL     1      32.704 -33.180 -44.887  1.00  0.00     0.105 A 
HETATM   24  N2  UNL     1      32.558 -31.887 -44.901  1.00  0.00    -0.346 N 
HETATM   25  C1  UNL     1      32.878 -31.202 -43.802  1.00  0.00     0.142 A 
ATOM     26  H2  UNL     1      32.207 -31.409 -45.731  1.00  0.00     0.167 HD
HETATM   27  S3  UNL     1      33.399 -32.418 -42.724  1.00  0.00    -0.057 SA
BRANCH  25  28
HETATM   28  N1  UNL     1      32.815 -29.905 -43.592  1.00  0.00    -0.380 N 
ATOM     29  H12 UNL     1      33.587 -29.242 -43.515  1.00  0.00     0.158 HD
ATOM     30  H11 UNL     1      31.991 -29.316 -43.472  1.00  0.00     0.158 HD
ENDBRANCH  25  28
ENDBRANCH  21  22
ENDBRANCH  20  21
ENDBRANCH  18  20
ENDBRANCH  14  18
ENDBRANCH   8   9
ENDBRANCH   1   8
BRANCH   7  31
HETATM   31  N12 UNL     1      28.745 -32.578 -37.715  1.00  0.00    -0.332 N 
ATOM     32 2H12 UNL     1      28.666 -33.232 -36.937  1.00  0.00     0.177 HD
ATOM     33 1H12 UNL     1      28.026 -32.517 -38.436  1.00  0.00     0.177 HD
ENDBRANCH   7  31
BRANCH   4  34
HETATM   34  C12 UNL     1      30.603 -28.095 -38.218  1.00  0.00     0.690 A 
HETATM   35  N8  UNL     1      31.295 -27.315 -37.434  1.00  0.00    -0.189 N 
HETATM   36  C13 UNL     1      31.224 -25.941 -37.334  1.00  0.00     0.082 A 
ATOM     37  H8  UNL     1      31.969 -27.776 -36.822  1.00  0.00     0.184 HD
HETATM   38  C14 UNL     1      30.306 -25.416 -38.181  1.00  0.00     0.078 A 
HETATM   39  C18 UNL     1      31.926 -25.050 -36.525  1.00  0.00     0.017 A 
HETATM   40  S1  UNL     1      30.362 -23.735 -37.917  1.00  0.00    -0.076 SA
HETATM   41  C19 UNL     1      29.555 -26.240 -39.031  1.00  0.00     0.134 A 
HETATM   42  C15 UNL     1      31.575 -23.740 -36.713  1.00  0.00     0.058 A 
HETATM   43  S2  UNL     1      32.543 -22.825 -35.640  1.00  0.00    -0.094 SA
HETATM   44  C16 UNL     1      33.396 -24.118 -34.952  1.00  0.00     0.052 A 
HETATM   45  C17 UNL     1      32.910 -25.223 -35.570  1.00  0.00     0.023 A 
HETATM   46  N10 UNL     1      29.698 -27.567 -39.053  1.00  0.00    -0.175 N 
ATOM     47  H10 UNL     1      29.143 -28.152 -39.677  1.00  0.00     0.186 HD
BRANCH  41  48
HETATM   48  N9  UNL     1      28.708 -25.621 -39.800  1.00  0.00    -0.384 N 
ATOM     49  H92 UNL     1      28.662 -24.603 -39.850  1.00  0.00     0.157 HD
ATOM     50  H91 UNL     1      28.094 -26.224 -40.348  1.00  0.00     0.157 HD
ENDBRANCH  41  48
ENDBRANCH   4  34
TORSDOF 10
ENDMDL
