MODEL 1
REMARK VINA RESULT: -8.048502306      0.000      0.000
REMARK  9 active torsions:
REMARK  status: ('A' for Active; 'I' for Inactive)
REMARK    1  A    between atoms: N1_1  and  C1_4 
REMARK    2  A    between atoms: C4_7  and  C5_8 
REMARK    3  A    between atoms: C7_12  and  N3_13 
REMARK       I    between atoms: N3_13  and  C8_15 
REMARK    4  A    between atoms: C8_15  and  C9_17 
REMARK    5  A    between atoms: C14_22  and  N4_23 
REMARK    6  A    between atoms: C15_28  and  N6_29 
REMARK    7  A    between atoms: N6_29  and  C16_30 
REMARK    8  A    between atoms: C17_33  and  N8_34 
REMARK    9  A    between atoms: C19_41  and  N11_42 
ROOT
HETATM    1  C5  UNL     1      29.987 -28.895 -40.117  1.00  0.00     0.119 A 
HETATM    2  N2  UNL     1      30.199 -27.667 -39.668  1.00  0.00    -0.336 N 
ATOM      3  H2  UNL     1      30.215 -27.412 -38.681  1.00  0.00     0.168 HD
HETATM    4  C6  UNL     1      30.392 -26.798 -40.675  1.00  0.00     0.123 A 
HETATM    5  C7  UNL     1      30.645 -25.428 -40.741  1.00  0.00     0.142 A 
HETATM    6  N5  UNL     1      30.781 -24.901 -41.945  1.00  0.00    -0.300 N 
ATOM      7  H5  UNL     1      30.967 -23.899 -41.998  1.00  0.00     0.171 HD
HETATM    8  C15 UNL     1      30.694 -25.585 -43.128  1.00  0.00     0.264 A 
HETATM    9  N12 UNL     1      30.443 -26.926 -42.995  1.00  0.00    -0.300 N 
ATOM     10  H12 UNL     1      30.366 -27.492 -43.841  1.00  0.00     0.171 HD
HETATM   11  C20 UNL     1      30.296 -27.526 -41.820  1.00  0.00     0.141 A 
HETATM   12  N13 UNL     1      30.045 -28.822 -41.447  1.00  0.00    -0.326 N 
ATOM     13  H13 UNL     1      29.921 -29.606 -42.086  1.00  0.00     0.169 HD
ENDROOT
BRANCH   8  14
HETATM   14  N6  UNL     1      30.828 -24.958 -44.275  1.00  0.00    -0.349 NA
BRANCH  14  15
HETATM   15  C16 UNL     1      31.063 -24.312 -45.234  1.00  0.00     0.234 A 
HETATM   16  N7  UNL     1      30.725 -24.787 -46.493  1.00  0.00    -0.162 N 
HETATM   17  C17 UNL     1      30.982 -24.076 -47.598  1.00  0.00     0.679 A 
ATOM     18  H7  UNL     1      30.271 -25.696 -46.578  1.00  0.00     0.187 HD
HETATM   19  N9  UNL     1      31.574 -22.879 -47.560  1.00  0.00    -0.176 N 
HETATM   20  C18 UNL     1      31.933 -22.345 -46.388  1.00  0.00     0.169 A 
ATOM     21  H9  UNL     1      31.753 -22.371 -48.427  1.00  0.00     0.185 HD
HETATM   22  N10 UNL     1      32.556 -21.077 -46.336  1.00  0.00    -0.079 NA
HETATM   23  C19 UNL     1      31.670 -23.075 -45.227  1.00  0.00     0.203 A 
BRANCH  17  24
HETATM   24  N8  UNL     1      30.663 -24.548 -48.776  1.00  0.00    -0.234 N 
ATOM     25  H82 UNL     1      30.278 -23.889 -49.452  1.00  0.00     0.174 HD
ATOM     26  H81 UNL     1      30.808 -25.534 -48.993  1.00  0.00     0.174 HD
ENDBRANCH  17  24
BRANCH  23  27
HETATM   27  N11 UNL     1      32.071 -22.495 -44.005  1.00  0.00    -0.107 N 
HETATM   28  O4  UNL     1      33.254 -22.574 -43.593  1.00  0.00    -0.531 OA
HETATM   29  O5  UNL     1      31.184 -21.822 -43.174  1.00  0.00    -0.531 OA
ENDBRANCH  23  27
ENDBRANCH  14  15
ENDBRANCH   8  14
BRANCH   5  30
HETATM   30  N3  UNL     1      30.710 -24.805 -39.622  1.00  0.00    -0.307 N 
HETATM   31  C8  UNL     1      31.620 -23.882 -39.144  1.00  0.00     0.259 C 
HETATM   32  O1  UNL     1      32.372 -23.183 -39.900  1.00  0.00    -0.267 OA
ATOM     33  H3  UNL     1      29.957 -25.030 -38.971  1.00  0.00     0.170 HD
BRANCH  31  34
HETATM   34  C9  UNL     1      31.798 -23.647 -37.693  1.00  0.00     0.065 A 
HETATM   35  C10 UNL     1      32.342 -22.408 -37.343  1.00  0.00     0.020 A 
HETATM   36  C11 UNL     1      32.731 -22.158 -36.057  1.00  0.00     0.001 A 
HETATM   37  C12 UNL     1      32.593 -23.124 -35.091  1.00  0.00     0.002 A 
HETATM   38  C13 UNL     1      32.056 -24.334 -35.435  1.00  0.00     0.037 A 
HETATM   39  C14 UNL     1      31.641 -24.619 -36.762  1.00  0.00     0.118 A 
BRANCH  39  40
HETATM   40  N4  UNL     1      31.032 -25.872 -36.976  1.00  0.00    -0.115 N 
HETATM   41  O2  UNL     1      31.636 -26.902 -37.262  1.00  0.00    -0.532 OA
HETATM   42  O3  UNL     1      29.637 -25.892 -36.971  1.00  0.00    -0.532 OA
ENDBRANCH  39  40
ENDBRANCH  31  34
ENDBRANCH   5  30
BRANCH   1  43
HETATM   43  C4  UNL     1      29.719 -30.134 -39.365  1.00  0.00     0.024 A 
HETATM   44  C3  UNL     1      28.483 -30.385 -38.808  1.00  0.00     0.020 A 
HETATM   45  C2  UNL     1      28.294 -31.572 -38.136  1.00  0.00     0.049 A 
HETATM   46  C1  UNL     1      29.322 -32.510 -38.011  1.00  0.00     0.098 A 
HETATM   47  N14 UNL     1      30.498 -32.235 -38.559  1.00  0.00    -0.352 N 
HETATM   48  C21 UNL     1      30.688 -31.097 -39.206  1.00  0.00     0.104 A 
ATOM     49  H14 UNL     1      31.263 -32.905 -38.480  1.00  0.00     0.166 HD
BRANCH  46  50
HETATM   50  N1  UNL     1      29.174 -33.623 -37.388  1.00  0.00    -0.385 N 
ATOM     51  H12 UNL     1      29.766 -34.413 -37.643  1.00  0.00     0.157 HD
ATOM     52  H11 UNL     1      28.487 -33.751 -36.644  1.00  0.00     0.157 HD
ENDBRANCH  46  50
ENDBRANCH   1  43
TORSDOF 9
ENDMDL
MODEL 2
REMARK VINA RESULT: -8.043166214      1.096      1.260
REMARK  9 active torsions:
REMARK  status: ('A' for Active; 'I' for Inactive)
REMARK    1  A    between atoms: N1_1  and  C1_4 
REMARK    2  A    between atoms: C4_7  and  C5_8 
REMARK    3  A    between atoms: C7_12  and  N3_13 
REMARK       I    between atoms: N3_13  and  C8_15 
REMARK    4  A    between atoms: C8_15  and  C9_17 
REMARK    5  A    between atoms: C14_22  and  N4_23 
REMARK    6  A    between atoms: C15_28  and  N6_29 
REMARK    7  A    between atoms: N6_29  and  C16_30 
REMARK    8  A    between atoms: C17_33  and  N8_34 
REMARK    9  A    between atoms: C19_41  and  N11_42 
ROOT
HETATM    1  C5  UNL     1      30.041 -28.810 -40.222  1.00  0.00     0.119 A 
HETATM    2  N2  UNL     1      30.256 -27.575 -39.795  1.00  0.00    -0.336 N 
ATOM      3  H2  UNL     1      30.248 -27.298 -38.813  1.00  0.00     0.168 HD
HETATM    4  C6  UNL     1      30.486 -26.732 -40.816  1.00  0.00     0.123 A 
HETATM    5  C7  UNL     1      30.758 -25.367 -40.905  1.00  0.00     0.142 A 
HETATM    6  N5  UNL     1      30.933 -24.868 -42.117  1.00  0.00    -0.300 N 
ATOM      7  H5  UNL     1      31.132 -23.871 -42.187  1.00  0.00     0.171 HD
HETATM    8  C15 UNL     1      30.870 -25.579 -43.286  1.00  0.00     0.264 A 
HETATM    9  N12 UNL     1      30.599 -26.913 -43.129  1.00  0.00    -0.300 N 
ATOM     10  H12 UNL     1      30.538 -27.497 -43.964  1.00  0.00     0.171 HD
HETATM   11  C20 UNL     1      30.412 -27.484 -41.946  1.00  0.00     0.141 A 
HETATM   12  N13 UNL     1      30.135 -28.768 -41.551  1.00  0.00    -0.326 N 
ATOM     13  H13 UNL     1      30.019 -29.566 -42.176  1.00  0.00     0.169 HD
ENDROOT
BRANCH   8  14
HETATM   14  N6  UNL     1      31.042 -24.979 -44.443  1.00  0.00    -0.349 NA
BRANCH  14  15
HETATM   15  C16 UNL     1      31.341 -24.508 -45.482  1.00  0.00     0.234 A 
HETATM   16  N7  UNL     1      30.358 -24.059 -46.352  1.00  0.00    -0.162 N 
HETATM   17  C17 UNL     1      30.668 -23.522 -47.538  1.00  0.00     0.679 A 
ATOM     18  H7  UNL     1      29.378 -24.140 -46.081  1.00  0.00     0.187 HD
HETATM   19  N9  UNL     1      31.930 -23.386 -47.956  1.00  0.00    -0.176 N 
HETATM   20  C18 UNL     1      32.941 -23.791 -47.181  1.00  0.00     0.169 A 
ATOM     21  H9  UNL     1      32.122 -22.972 -48.868  1.00  0.00     0.185 HD
HETATM   22  N10 UNL     1      34.280 -23.648 -47.612  1.00  0.00    -0.079 NA
HETATM   23  C19 UNL     1      32.632 -24.353 -45.941  1.00  0.00     0.203 A 
BRANCH  17  24
HETATM   24  N8  UNL     1      29.724 -23.114 -48.346  1.00  0.00    -0.234 N 
ATOM     25  H82 UNL     1      29.571 -22.109 -48.413  1.00  0.00     0.174 HD
ATOM     26  H81 UNL     1      29.179 -23.789 -48.885  1.00  0.00     0.174 HD
ENDBRANCH  17  24
BRANCH  23  27
HETATM   27  N11 UNL     1      33.717 -24.784 -45.147  1.00  0.00    -0.107 N 
HETATM   28  O4  UNL     1      34.200 -25.938 -45.261  1.00  0.00    -0.531 OA
HETATM   29  O5  UNL     1      34.301 -23.975 -44.183  1.00  0.00    -0.531 OA
ENDBRANCH  23  27
ENDBRANCH  14  15
ENDBRANCH   8  14
BRANCH   5  30
HETATM   30  N3  UNL     1      30.800 -24.718 -39.800  1.00  0.00    -0.307 N 
HETATM   31  C8  UNL     1      31.746 -23.854 -39.285  1.00  0.00     0.259 C 
HETATM   32  O1  UNL     1      32.596 -23.235 -40.006  1.00  0.00    -0.267 OA
ATOM     33  H3  UNL     1      29.992 -24.867 -39.194  1.00  0.00     0.170 HD
BRANCH  31  34
HETATM   34  C9  UNL     1      31.850 -23.592 -37.831  1.00  0.00     0.065 A 
HETATM   35  C10 UNL     1      32.407 -22.361 -37.477  1.00  0.00     0.020 A 
HETATM   36  C11 UNL     1      32.731 -22.093 -36.175  1.00  0.00     0.001 A 
HETATM   37  C12 UNL     1      32.514 -23.033 -35.200  1.00  0.00     0.002 A 
HETATM   38  C13 UNL     1      31.964 -24.236 -35.548  1.00  0.00     0.037 A 
HETATM   39  C14 UNL     1      31.615 -24.539 -36.891  1.00  0.00     0.118 A 
BRANCH  39  40
HETATM   40  N4  UNL     1      30.985 -25.780 -37.113  1.00  0.00    -0.115 N 
HETATM   41  O2  UNL     1      31.576 -26.832 -37.344  1.00  0.00    -0.532 OA
HETATM   42  O3  UNL     1      29.592 -25.763 -37.186  1.00  0.00    -0.532 OA
ENDBRANCH  39  40
ENDBRANCH  31  34
ENDBRANCH   5  30
BRANCH   1  43
HETATM   43  C4  UNL     1      29.737 -30.028 -39.449  1.00  0.00     0.024 A 
HETATM   44  C3  UNL     1      28.510 -30.212 -38.846  1.00  0.00     0.020 A 
HETATM   45  C2  UNL     1      28.285 -31.383 -38.158  1.00  0.00     0.049 A 
HETATM   46  C1  UNL     1      29.268 -32.372 -38.061  1.00  0.00     0.098 A 
HETATM   47  N14 UNL     1      30.437 -32.161 -38.653  1.00  0.00    -0.352 N 
HETATM   48  C21 UNL     1      30.660 -31.039 -39.316  1.00  0.00     0.104 A 
ATOM     49  H14 UNL     1      31.168 -32.869 -38.596  1.00  0.00     0.166 HD
BRANCH  46  50
HETATM   50  N1  UNL     1      29.086 -33.471 -37.423  1.00  0.00    -0.385 N 
ATOM     51  H12 UNL     1      28.146 -33.706 -37.107  1.00  0.00     0.157 HD
ATOM     52  H11 UNL     1      29.845 -34.122 -37.219  1.00  0.00     0.157 HD
ENDBRANCH  46  50
ENDBRANCH   1  43
TORSDOF 9
ENDMDL
MODEL 3
REMARK VINA RESULT: -7.511412478      2.020      2.536
REMARK  9 active torsions:
REMARK  status: ('A' for Active; 'I' for Inactive)
REMARK    1  A    between atoms: N1_1  and  C1_4 
REMARK    2  A    between atoms: C4_7  and  C5_8 
REMARK    3  A    between atoms: C7_12  and  N3_13 
REMARK       I    between atoms: N3_13  and  C8_15 
REMARK    4  A    between atoms: C8_15  and  C9_17 
REMARK    5  A    between atoms: C14_22  and  N4_23 
REMARK    6  A    between atoms: C15_28  and  N6_29 
REMARK    7  A    between atoms: N6_29  and  C16_30 
REMARK    8  A    between atoms: C17_33  and  N8_34 
REMARK    9  A    between atoms: C19_41  and  N11_42 
ROOT
HETATM    1  C5  UNL     1      30.687 -30.117 -39.076  1.00  0.00     0.119 A 
HETATM    2  N2  UNL     1      31.205 -29.036 -38.513  1.00  0.00    -0.336 N 
ATOM      3  H2  UNL     1      31.487 -28.977 -37.535  1.00  0.00     0.168 HD
HETATM    4  C6  UNL     1      31.313 -28.024 -39.392  1.00  0.00     0.123 A 
HETATM    5  C7  UNL     1      31.779 -26.712 -39.309  1.00  0.00     0.142 A 
HETATM    6  N5  UNL     1      31.730 -25.988 -40.414  1.00  0.00    -0.300 N 
ATOM      7  H5  UNL     1      32.069 -25.028 -40.358  1.00  0.00     0.171 HD
HETATM    8  C15 UNL     1      31.261 -26.417 -41.626  1.00  0.00     0.264 A 
HETATM    9  N12 UNL     1      30.818 -27.714 -41.641  1.00  0.00    -0.300 N 
ATOM     10  H12 UNL     1      30.455 -28.093 -42.516  1.00  0.00     0.171 HD
HETATM   11  C20 UNL     1      30.837 -28.502 -40.573  1.00  0.00     0.141 A 
HETATM   12  N13 UNL     1      30.455 -29.801 -40.350  1.00  0.00    -0.326 N 
ATOM     13  H13 UNL     1      30.056 -30.426 -41.050  1.00  0.00     0.169 HD
ENDROOT
BRANCH   8  14
HETATM   14  N6  UNL     1      31.239 -25.606 -42.660  1.00  0.00    -0.349 NA
BRANCH  14  15
HETATM   15  C16 UNL     1      31.160 -24.770 -43.488  1.00  0.00     0.234 A 
HETATM   16  N7  UNL     1      30.944 -25.120 -44.813  1.00  0.00    -0.162 N 
HETATM   17  C17 UNL     1      30.853 -24.192 -45.774  1.00  0.00     0.679 A 
ATOM     18  H7  UNL     1      30.852 -26.105 -45.060  1.00  0.00     0.187 HD
HETATM   19  N9  UNL     1      30.963 -22.885 -45.522  1.00  0.00    -0.176 N 
HETATM   20  C18 UNL     1      31.172 -22.457 -44.272  1.00  0.00     0.169 A 
ATOM     21  H9  UNL     1      30.889 -22.211 -46.284  1.00  0.00     0.185 HD
HETATM   22  N10 UNL     1      31.287 -21.077 -43.994  1.00  0.00    -0.079 NA
HETATM   23  C19 UNL     1      31.269 -23.415 -43.260  1.00  0.00     0.203 A 
BRANCH  17  24
HETATM   24  N8  UNL     1      30.657 -24.546 -47.018  1.00  0.00    -0.234 N 
ATOM     25  H82 UNL     1      31.321 -25.205 -47.425  1.00  0.00     0.174 HD
ATOM     26  H81 UNL     1      29.864 -24.174 -47.542  1.00  0.00     0.174 HD
ENDBRANCH  17  24
BRANCH  23  27
HETATM   27  N11 UNL     1      31.502 -22.939 -41.952  1.00  0.00    -0.107 N 
HETATM   28  O4  UNL     1      32.645 -22.580 -41.575  1.00  0.00    -0.531 OA
HETATM   29  O5  UNL     1      30.496 -22.857 -41.000  1.00  0.00    -0.531 OA
ENDBRANCH  23  27
ENDBRANCH  14  15
ENDBRANCH   8  14
BRANCH   5  30
HETATM   30  N3  UNL     1      32.201 -26.326 -38.162  1.00  0.00    -0.307 N 
HETATM   31  C8  UNL     1      33.063 -25.308 -37.802  1.00  0.00     0.259 C 
HETATM   32  O1  UNL     1      33.305 -24.301 -38.544  1.00  0.00    -0.267 OA
ATOM     33  H3  UNL     1      31.837 -26.866 -37.376  1.00  0.00     0.170 HD
BRANCH  31  34
HETATM   34  C9  UNL     1      33.789 -25.325 -36.511  1.00  0.00     0.065 A 
HETATM   35  C10 UNL     1      34.952 -26.099 -36.482  1.00  0.00     0.020 A 
HETATM   36  C11 UNL     1      35.594 -26.345 -35.300  1.00  0.00     0.001 A 
HETATM   37  C12 UNL     1      35.100 -25.836 -34.125  1.00  0.00     0.002 A 
HETATM   38  C13 UNL     1      33.964 -25.076 -34.156  1.00  0.00     0.037 A 
HETATM   39  C14 UNL     1      33.280 -24.801 -35.370  1.00  0.00     0.118 A 
BRANCH  39  40
HETATM   40  N4  UNL     1      32.166 -23.943 -35.285  1.00  0.00    -0.115 N 
HETATM   41  O2  UNL     1      32.150 -22.876 -34.675  1.00  0.00    -0.532 OA
HETATM   42  O3  UNL     1      30.977 -24.414 -35.843  1.00  0.00    -0.532 OA
ENDBRANCH  39  40
ENDBRANCH  31  34
ENDBRANCH   5  30
BRANCH   1  43
HETATM   43  C4  UNL     1      30.384 -31.430 -38.479  1.00  0.00     0.024 A 
HETATM   44  C3  UNL     1      31.387 -32.279 -38.060  1.00  0.00     0.020 A 
HETATM   45  C2  UNL     1      31.033 -33.482 -37.491  1.00  0.00     0.049 A 
HETATM   46  C1  UNL     1      29.694 -33.849 -37.335  1.00  0.00     0.098 A 
HETATM   47  N14 UNL     1      28.756 -33.007 -37.749  1.00  0.00    -0.352 N 
HETATM   48  C21 UNL     1      29.087 -31.850 -38.297  1.00  0.00     0.104 A 
ATOM     49  H14 UNL     1      27.772 -33.254 -37.645  1.00  0.00     0.166 HD
BRANCH  46  50
HETATM   50  N1  UNL     1      29.337 -34.965 -36.810  1.00  0.00    -0.385 N 
ATOM     51  H12 UNL     1      28.864 -34.955 -35.907  1.00  0.00     0.157 HD
ATOM     52  H11 UNL     1      29.506 -35.864 -37.260  1.00  0.00     0.157 HD
ENDBRANCH  46  50
ENDBRANCH   1  43
TORSDOF 9
ENDMDL
MODEL 4
REMARK VINA RESULT: -7.451723746      1.196      2.057
REMARK  9 active torsions:
REMARK  status: ('A' for Active; 'I' for Inactive)
REMARK    1  A    between atoms: N1_1  and  C1_4 
REMARK    2  A    between atoms: C4_7  and  C5_8 
REMARK    3  A    between atoms: C7_12  and  N3_13 
REMARK       I    between atoms: N3_13  and  C8_15 
REMARK    4  A    between atoms: C8_15  and  C9_17 
REMARK    5  A    between atoms: C14_22  and  N4_23 
REMARK    6  A    between atoms: C15_28  and  N6_29 
REMARK    7  A    between atoms: N6_29  and  C16_30 
REMARK    8  A    between atoms: C17_33  and  N8_34 
REMARK    9  A    between atoms: C19_41  and  N11_42 
ROOT
HETATM    1  C5  UNL     1      30.423 -29.516 -39.612  1.00  0.00     0.119 A 
HETATM    2  N2  UNL     1      30.835 -28.358 -39.119  1.00  0.00    -0.336 N 
ATOM      3  H2  UNL     1      31.029 -28.191 -38.132  1.00  0.00     0.168 HD
HETATM    4  C6  UNL     1      30.967 -27.428 -40.082  1.00  0.00     0.123 A 
HETATM    5  C7  UNL     1      31.356 -26.089 -40.092  1.00  0.00     0.142 A 
HETATM    6  N5  UNL     1      31.365 -25.476 -41.262  1.00  0.00    -0.300 N 
ATOM      7  H5  UNL     1      31.650 -24.497 -41.275  1.00  0.00     0.171 HD
HETATM    8  C15 UNL     1      31.024 -26.044 -42.460  1.00  0.00     0.264 A 
HETATM    9  N12 UNL     1      30.649 -27.361 -42.382  1.00  0.00    -0.300 N 
ATOM     10  H12 UNL     1      30.382 -27.841 -43.242  1.00  0.00     0.171 HD
HETATM   11  C20 UNL     1      30.617 -28.042 -41.244  1.00  0.00     0.141 A 
HETATM   12  N13 UNL     1      30.284 -29.334 -40.926  1.00  0.00    -0.326 N 
ATOM     13  H13 UNL     1      29.979 -30.045 -41.590  1.00  0.00     0.169 HD
ENDROOT
BRANCH   8  14
HETATM   14  N6  UNL     1      31.048 -25.337 -43.568  1.00  0.00    -0.349 NA
BRANCH  14  15
HETATM   15  C16 UNL     1      31.119 -24.581 -44.470  1.00  0.00     0.234 A 
HETATM   16  N7  UNL     1      30.748 -24.982 -45.745  1.00  0.00    -0.162 N 
HETATM   17  C17 UNL     1      30.821 -24.146 -46.789  1.00  0.00     0.679 A 
ATOM     18  H7  UNL     1      30.413 -25.934 -45.891  1.00  0.00     0.187 HD
HETATM   19  N9  UNL     1      31.251 -22.887 -46.670  1.00  0.00    -0.176 N 
HETATM   20  C18 UNL     1      31.628 -22.415 -45.478  1.00  0.00     0.169 A 
ATOM     21  H9  UNL     1      31.291 -22.283 -47.492  1.00  0.00     0.185 HD
HETATM   22  N10 UNL     1      32.080 -21.083 -45.341  1.00  0.00    -0.079 NA
HETATM   23  C19 UNL     1      31.557 -23.277 -44.381  1.00  0.00     0.203 A 
BRANCH  17  24
HETATM   24  N8  UNL     1      30.474 -24.550 -47.984  1.00  0.00    -0.234 N 
ATOM     25  H82 UNL     1      29.777 -25.291 -48.041  1.00  0.00     0.174 HD
ATOM     26  H81 UNL     1      30.890 -24.123 -48.813  1.00  0.00     0.174 HD
ENDBRANCH  17  24
BRANCH  23  27
HETATM   27  N11 UNL     1      31.973 -22.759 -43.135  1.00  0.00    -0.107 N 
HETATM   28  O4  UNL     1      33.187 -22.680 -42.826  1.00  0.00    -0.531 OA
HETATM   29  O5  UNL     1      31.073 -22.326 -42.171  1.00  0.00    -0.531 OA
ENDBRANCH  23  27
ENDBRANCH  14  15
ENDBRANCH   8  14
BRANCH   5  30
HETATM   30  N3  UNL     1      31.660 -25.574 -38.957  1.00  0.00    -0.307 N 
HETATM   31  C8  UNL     1      31.141 -24.485 -38.283  1.00  0.00     0.259 C 
HETATM   32  O1  UNL     1      29.979 -24.011 -38.507  1.00  0.00    -0.267 OA
ATOM     33  H3  UNL     1      32.416 -26.051 -38.467  1.00  0.00     0.170 HD
BRANCH  31  34
HETATM   34  C9  UNL     1      31.920 -23.772 -37.244  1.00  0.00     0.065 A 
HETATM   35  C10 UNL     1      31.666 -24.160 -35.926  1.00  0.00     0.020 A 
HETATM   36  C11 UNL     1      32.177 -23.442 -34.880  1.00  0.00     0.001 A 
HETATM   37  C12 UNL     1      32.945 -22.330 -35.113  1.00  0.00     0.002 A 
HETATM   38  C13 UNL     1      33.196 -21.954 -36.404  1.00  0.00     0.037 A 
HETATM   39  C14 UNL     1      32.681 -22.683 -37.509  1.00  0.00     0.118 A 
BRANCH  39  40
HETATM   40  N4  UNL     1      33.072 -22.245 -38.790  1.00  0.00    -0.115 N 
HETATM   41  O2  UNL     1      32.674 -21.214 -39.327  1.00  0.00    -0.532 OA
HETATM   42  O3  UNL     1      33.876 -23.117 -39.524  1.00  0.00    -0.532 OA
ENDBRANCH  39  40
ENDBRANCH  31  34
ENDBRANCH   5  30
BRANCH   1  43
HETATM   43  C4  UNL     1      30.137 -30.782 -38.915  1.00  0.00     0.024 A 
HETATM   44  C3  UNL     1      31.144 -31.538 -38.353  1.00  0.00     0.020 A 
HETATM   45  C2  UNL     1      30.805 -32.700 -37.696  1.00  0.00     0.049 A 
HETATM   46  C1  UNL     1      29.475 -33.118 -37.595  1.00  0.00     0.098 A 
HETATM   47  N14 UNL     1      28.533 -32.366 -38.148  1.00  0.00    -0.352 N 
HETATM   48  C21 UNL     1      28.850 -31.249 -38.780  1.00  0.00     0.104 A 
ATOM     49  H14 UNL     1      27.556 -32.652 -38.087  1.00  0.00     0.166 HD
BRANCH  46  50
HETATM   50  N1  UNL     1      29.132 -34.198 -36.992  1.00  0.00    -0.385 N 
ATOM     51  H12 UNL     1      29.665 -35.050 -37.166  1.00  0.00     0.157 HD
ATOM     52  H11 UNL     1      28.347 -34.241 -36.342  1.00  0.00     0.157 HD
ENDBRANCH  46  50
ENDBRANCH   1  43
TORSDOF 9
ENDMDL
MODEL 5
REMARK VINA RESULT: -7.383166563      3.809      6.828
REMARK  9 active torsions:
REMARK  status: ('A' for Active; 'I' for Inactive)
REMARK    1  A    between atoms: N1_1  and  C1_4 
REMARK    2  A    between atoms: C4_7  and  C5_8 
REMARK    3  A    between atoms: C7_12  and  N3_13 
REMARK       I    between atoms: N3_13  and  C8_15 
REMARK    4  A    between atoms: C8_15  and  C9_17 
REMARK    5  A    between atoms: C14_22  and  N4_23 
REMARK    6  A    between atoms: C15_28  and  N6_29 
REMARK    7  A    between atoms: N6_29  and  C16_30 
REMARK    8  A    between atoms: C17_33  and  N8_34 
REMARK    9  A    between atoms: C19_41  and  N11_42 
ROOT
HETATM    1  C5  UNL     1      32.676 -30.473 -43.321  1.00  0.00     0.119 A 
HETATM    2  N2  UNL     1      32.198 -30.633 -42.096  1.00  0.00    -0.336 N 
ATOM      3  H2  UNL     1      32.003 -31.539 -41.671  1.00  0.00     0.168 HD
HETATM    4  C6  UNL     1      32.002 -29.453 -41.482  1.00  0.00     0.123 A 
HETATM    5  C7  UNL     1      31.529 -29.079 -40.225  1.00  0.00     0.142 A 
HETATM    6  N5  UNL     1      31.474 -27.785 -39.965  1.00  0.00    -0.300 N 
ATOM      7  H5  UNL     1      31.128 -27.507 -39.047  1.00  0.00     0.171 HD
HETATM    8  C15 UNL     1      31.841 -26.785 -40.826  1.00  0.00     0.264 A 
HETATM    9  N12 UNL     1      32.297 -27.218 -42.044  1.00  0.00    -0.300 N 
ATOM     10  H12 UNL     1      32.585 -26.520 -42.730  1.00  0.00     0.171 HD
HETATM   11  C20 UNL     1      32.381 -28.500 -42.376  1.00  0.00     0.141 A 
HETATM   12  N13 UNL     1      32.794 -29.158 -43.506  1.00  0.00    -0.326 N 
ATOM     13  H13 UNL     1      33.137 -28.711 -44.356  1.00  0.00     0.169 HD
ENDROOT
BRANCH   8  14
HETATM   14  N6  UNL     1      31.728 -25.524 -40.473  1.00  0.00    -0.349 NA
BRANCH  14  15
HETATM   15  C16 UNL     1      31.636 -24.359 -40.312  1.00  0.00     0.234 A 
HETATM   16  N7  UNL     1      31.685 -23.827 -39.032  1.00  0.00    -0.162 N 
HETATM   17  C17 UNL     1      31.580 -22.509 -38.819  1.00  0.00     0.679 A 
ATOM     18  H7  UNL     1      31.802 -24.454 -38.236  1.00  0.00     0.187 HD
HETATM   19  N9  UNL     1      31.423 -21.632 -39.815  1.00  0.00    -0.176 N 
HETATM   20  C18 UNL     1      31.367 -22.057 -41.081  1.00  0.00     0.169 A 
ATOM     21  H9  UNL     1      31.347 -20.636 -39.609  1.00  0.00     0.185 HD
HETATM   22  N10 UNL     1      31.205 -21.138 -42.142  1.00  0.00    -0.079 NA
HETATM   23  C19 UNL     1      31.475 -23.429 -41.317  1.00  0.00     0.203 A 
BRANCH  17  24
HETATM   24  N8  UNL     1      31.619 -22.031 -37.602  1.00  0.00    -0.234 N 
ATOM     25  H82 UNL     1      32.431 -21.469 -37.349  1.00  0.00     0.174 HD
ATOM     26  H81 UNL     1      30.856 -22.217 -36.950  1.00  0.00     0.174 HD
ENDBRANCH  17  24
BRANCH  23  27
HETATM   27  N11 UNL     1      31.399 -23.853 -42.661  1.00  0.00    -0.107 N 
HETATM   28  O4  UNL     1      32.430 -24.085 -43.339  1.00  0.00    -0.531 OA
HETATM   29  O5  UNL     1      30.190 -24.020 -43.322  1.00  0.00    -0.531 OA
ENDBRANCH  23  27
ENDBRANCH  14  15
ENDBRANCH   8  14
BRANCH   5  30
HETATM   30  N3  UNL     1      31.178 -30.031 -39.440  1.00  0.00    -0.307 N 
HETATM   31  C8  UNL     1      31.631 -30.392 -38.186  1.00  0.00     0.259 C 
HETATM   32  O1  UNL     1      32.240 -29.591 -37.403  1.00  0.00    -0.267 OA
ATOM     33  H3  UNL     1      30.434 -30.626 -39.806  1.00  0.00     0.170 HD
BRANCH  31  34
HETATM   34  C9  UNL     1      31.452 -31.766 -37.662  1.00  0.00     0.065 A 
HETATM   35  C10 UNL     1      32.629 -32.460 -37.369  1.00  0.00     0.020 A 
HETATM   36  C11 UNL     1      32.593 -33.794 -37.068  1.00  0.00     0.001 A 
HETATM   37  C12 UNL     1      31.397 -34.467 -37.050  1.00  0.00     0.002 A 
HETATM   38  C13 UNL     1      30.246 -33.785 -37.332  1.00  0.00     0.037 A 
HETATM   39  C14 UNL     1      30.254 -32.400 -37.645  1.00  0.00     0.118 A 
BRANCH  39  40
HETATM   40  N4  UNL     1      28.999 -31.791 -37.840  1.00  0.00    -0.115 N 
HETATM   41  O2  UNL     1      28.394 -31.765 -38.909  1.00  0.00    -0.532 OA
HETATM   42  O3  UNL     1      28.482 -31.075 -36.760  1.00  0.00    -0.532 OA
ENDBRANCH  39  40
ENDBRANCH  31  34
ENDBRANCH   5  30
BRANCH   1  43
HETATM   43  C4  UNL     1      33.015 -31.488 -44.334  1.00  0.00     0.024 A 
HETATM   44  C3  UNL     1      33.364 -31.134 -45.620  1.00  0.00     0.020 A 
HETATM   45  C2  UNL     1      33.690 -32.131 -46.511  1.00  0.00     0.049 A 
HETATM   46  C1  UNL     1      33.671 -33.478 -46.136  1.00  0.00     0.098 A 
HETATM   47  N14 UNL     1      33.330 -33.782 -44.891  1.00  0.00    -0.352 N 
HETATM   48  C21 UNL     1      33.015 -32.829 -44.029  1.00  0.00     0.104 A 
ATOM     49  H14 UNL     1      33.309 -34.758 -44.595  1.00  0.00     0.166 HD
BRANCH  46  50
HETATM   50  N1  UNL     1      33.967 -34.428 -46.947  1.00  0.00    -0.385 N 
ATOM     51  H12 UNL     1      33.471 -34.489 -47.835  1.00  0.00     0.157 HD
ATOM     52  H11 UNL     1      34.681 -35.126 -46.740  1.00  0.00     0.157 HD
ENDBRANCH  46  50
ENDBRANCH   1  43
TORSDOF 9
ENDMDL
