MODEL 1
REMARK VINA RESULT: -5.353796163      0.000      0.000
REMARK  7 active torsions:
REMARK  status: ('A' for Active; 'I' for Inactive)
REMARK    1  A    between atoms: N1_2  and  N2_3 
REMARK    2  A    between atoms: N1_2  and  C2_6 
REMARK    3  A    between atoms: C2_6  and  C3_7 
REMARK    4  A    between atoms: C3_7  and  C4_8 
REMARK    5  A    between atoms: C4_8  and  O1_9 
REMARK    6  A    between atoms: O1_9  and  C5_10 
REMARK    7  A    between atoms: C6_16  and  N5_17 
ROOT
HETATM    1  C5  UNL     1      26.192  -5.927  14.235  1.00  0.00     0.172 A 
HETATM    2  S1  UNL     1      25.661  -4.373  14.684  1.00  0.00     0.031 SA
HETATM    3  N3  UNL     1      24.600  -4.813  15.914  1.00  0.00    -0.266 N 
ATOM      4  H3  UNL     1      24.027  -4.203  16.499  1.00  0.00     0.195 HD
HETATM    5  N4  UNL     1      24.679  -6.110  15.946  1.00  0.00    -0.277 N 
ATOM      6  H4  UNL     1      24.127  -6.646  16.615  1.00  0.00     0.189 HD
HETATM    7  C6  UNL     1      25.485  -6.726  15.100  1.00  0.00     0.156 A 
ENDROOT
BRANCH   1   8
HETATM    8  O1  UNL     1      27.112  -6.334  13.242  1.00  0.00    -0.340 OA
BRANCH   8   9
HETATM    9  C4  UNL     1      27.009  -5.849  11.918  1.00  0.00     0.178 C 
BRANCH   9  10
HETATM   10  C3  UNL     1      25.683  -6.272  11.327  1.00  0.00     0.048 C 
BRANCH  10  11
HETATM   11  C2  UNL     1      25.144  -5.239  10.369  1.00  0.00     0.143 C 
BRANCH  11  12
HETATM   12  N1  UNL     1      24.254  -4.310  10.955  1.00  0.00    -0.339 N 
HETATM   13  C1  UNL     1      24.705  -2.983  11.145  1.00  0.00     0.170 C 
BRANCH  12  14
HETATM   14  N2  UNL     1      23.364  -4.794  11.863  1.00  0.00    -0.348 N 
ATOM     15  H22 UNL     1      22.443  -4.356  11.889  1.00  0.00     0.176 HD
ATOM     16  H21 UNL     1      23.431  -5.785  12.093  1.00  0.00     0.176 HD
ENDBRANCH  12  14
ENDBRANCH  11  12
ENDBRANCH  10  11
ENDBRANCH   9  10
ENDBRANCH   8   9
ENDBRANCH   1   8
BRANCH   7  17
HETATM   17  N5  UNL     1      25.647  -8.046  15.050  1.00  0.00    -0.382 N 
ATOM     18  H52 UNL     1      26.151  -8.533  14.309  1.00  0.00     0.157 HD
ATOM     19  H51 UNL     1      25.246  -8.627  15.786  1.00  0.00     0.157 HD
ENDBRANCH   7  17
TORSDOF 7
ENDMDL
MODEL 2
REMARK VINA RESULT: -5.211468102      1.471      1.936
REMARK  7 active torsions:
REMARK  status: ('A' for Active; 'I' for Inactive)
REMARK    1  A    between atoms: N1_2  and  N2_3 
REMARK    2  A    between atoms: N1_2  and  C2_6 
REMARK    3  A    between atoms: C2_6  and  C3_7 
REMARK    4  A    between atoms: C3_7  and  C4_8 
REMARK    5  A    between atoms: C4_8  and  O1_9 
REMARK    6  A    between atoms: O1_9  and  C5_10 
REMARK    7  A    between atoms: C6_16  and  N5_17 
ROOT
HETATM    1  C5  UNL     1      25.820  -6.074  13.940  1.00  0.00     0.172 A 
HETATM    2  S1  UNL     1      25.518  -7.406  14.957  1.00  0.00     0.031 SA
HETATM    3  N3  UNL     1      24.740  -6.597  16.211  1.00  0.00    -0.266 N 
ATOM      4  H3  UNL     1      24.361  -6.990  17.074  1.00  0.00     0.195 HD
HETATM    5  N4  UNL     1      24.735  -5.356  15.825  1.00  0.00    -0.277 N 
ATOM      6  H4  UNL     1      24.315  -4.634  16.411  1.00  0.00     0.189 HD
HETATM    7  C6  UNL     1      25.279  -5.040  14.664  1.00  0.00     0.156 A 
ENDROOT
BRANCH   1   8
HETATM    8  O1  UNL     1      26.455  -6.004  12.679  1.00  0.00    -0.340 OA
BRANCH   8   9
HETATM    9  C4  UNL     1      25.928  -6.696  11.564  1.00  0.00     0.178 C 
BRANCH   9  10
HETATM   10  C3  UNL     1      25.640  -5.713  10.452  1.00  0.00     0.048 C 
BRANCH  10  11
HETATM   11  C2  UNL     1      24.460  -4.831  10.778  1.00  0.00     0.143 C 
BRANCH  11  12
HETATM   12  N1  UNL     1      24.716  -3.447  10.650  1.00  0.00    -0.339 N 
HETATM   13  C1  UNL     1      26.057  -3.007  10.730  1.00  0.00     0.170 C 
BRANCH  12  14
HETATM   14  N2  UNL     1      23.760  -2.596  11.110  1.00  0.00    -0.348 N 
ATOM     15  H22 UNL     1      22.942  -2.452  10.518  1.00  0.00     0.176 HD
ATOM     16  H21 UNL     1      23.635  -2.545  12.121  1.00  0.00     0.176 HD
ENDBRANCH  12  14
ENDBRANCH  11  12
ENDBRANCH  10  11
ENDBRANCH   9  10
ENDBRANCH   8   9
ENDBRANCH   1   8
BRANCH   7  17
HETATM   17  N5  UNL     1      25.322  -3.805  14.170  1.00  0.00    -0.382 N 
ATOM     18  H52 UNL     1      26.122  -3.178  14.265  1.00  0.00     0.157 HD
ATOM     19  H51 UNL     1      24.514  -3.439  13.667  1.00  0.00     0.157 HD
ENDBRANCH   7  17
TORSDOF 7
ENDMDL
MODEL 3
REMARK VINA RESULT: -5.147880679      1.125      1.673
REMARK  7 active torsions:
REMARK  status: ('A' for Active; 'I' for Inactive)
REMARK    1  A    between atoms: N1_2  and  N2_3 
REMARK    2  A    between atoms: N1_2  and  C2_6 
REMARK    3  A    between atoms: C2_6  and  C3_7 
REMARK    4  A    between atoms: C3_7  and  C4_8 
REMARK    5  A    between atoms: C4_8  and  O1_9 
REMARK    6  A    between atoms: O1_9  and  C5_10 
REMARK    7  A    between atoms: C6_16  and  N5_17 
ROOT
HETATM    1  C5  UNL     1      26.340  -5.799  14.270  1.00  0.00     0.172 A 
HETATM    2  S1  UNL     1      26.073  -7.203  15.194  1.00  0.00     0.031 SA
HETATM    3  N3  UNL     1      24.876  -6.610  16.219  1.00  0.00    -0.266 N 
ATOM      4  H3  UNL     1      24.389  -7.103  16.968  1.00  0.00     0.195 HD
HETATM    5  N4  UNL     1      24.719  -5.379  15.833  1.00  0.00    -0.277 N 
ATOM      6  H4  UNL     1      24.038  -4.776  16.295  1.00  0.00     0.189 HD
HETATM    7  C6  UNL     1      25.450  -4.918  14.835  1.00  0.00     0.156 A 
ENDROOT
BRANCH   1   8
HETATM    8  O1  UNL     1      27.229  -5.557  13.198  1.00  0.00    -0.340 OA
BRANCH   8   9
HETATM    9  C4  UNL     1      27.059  -6.210  11.955  1.00  0.00     0.178 C 
BRANCH   9  10
HETATM   10  C3  UNL     1      25.584  -6.308  11.635  1.00  0.00     0.048 C 
BRANCH  10  11
HETATM   11  C2  UNL     1      25.186  -5.349  10.541  1.00  0.00     0.143 C 
BRANCH  11  12
HETATM   12  N1  UNL     1      24.226  -4.387  10.930  1.00  0.00    -0.339 N 
HETATM   13  C1  UNL     1      24.615  -3.028  10.951  1.00  0.00     0.170 C 
BRANCH  12  14
HETATM   14  N2  UNL     1      23.296  -4.776  11.844  1.00  0.00    -0.348 N 
ATOM     15  H22 UNL     1      22.401  -4.287  11.832  1.00  0.00     0.176 HD
ATOM     16  H21 UNL     1      23.303  -5.757  12.122  1.00  0.00     0.176 HD
ENDBRANCH  12  14
ENDBRANCH  11  12
ENDBRANCH  10  11
ENDBRANCH   9  10
ENDBRANCH   8   9
ENDBRANCH   1   8
BRANCH   7  17
HETATM   17  N5  UNL     1      25.365  -3.679  14.357  1.00  0.00    -0.382 N 
ATOM     18  H52 UNL     1      24.772  -3.408  13.571  1.00  0.00     0.157 HD
ATOM     19  H51 UNL     1      25.923  -2.939  14.783  1.00  0.00     0.157 HD
ENDBRANCH   7  17
TORSDOF 7
ENDMDL
MODEL 4
REMARK VINA RESULT: -5.039665544      2.127      5.236
REMARK  7 active torsions:
REMARK  status: ('A' for Active; 'I' for Inactive)
REMARK    1  A    between atoms: N1_2  and  N2_3 
REMARK    2  A    between atoms: N1_2  and  C2_6 
REMARK    3  A    between atoms: C2_6  and  C3_7 
REMARK    4  A    between atoms: C3_7  and  C4_8 
REMARK    5  A    between atoms: C4_8  and  O1_9 
REMARK    6  A    between atoms: O1_9  and  C5_10 
REMARK    7  A    between atoms: C6_16  and  N5_17 
ROOT
HETATM    1  C5  UNL     1      25.380  -3.940  12.820  1.00  0.00     0.172 A 
HETATM    2  S1  UNL     1      24.689  -5.319  12.100  1.00  0.00     0.031 SA
HETATM    3  N3  UNL     1      23.782  -4.556  10.906  1.00  0.00    -0.266 N 
ATOM      4  H3  UNL     1      23.180  -4.985  10.203  1.00  0.00     0.195 HD
HETATM    5  N4  UNL     1      24.027  -3.293  11.089  1.00  0.00    -0.277 N 
ATOM      6  H4  UNL     1      23.595  -2.590  10.488  1.00  0.00     0.189 HD
HETATM    7  C6  UNL     1      24.843  -2.929  12.061  1.00  0.00     0.156 A 
ENDROOT
BRANCH   1   8
HETATM    8  O1  UNL     1      26.272  -3.819  13.910  1.00  0.00    -0.340 OA
BRANCH   8   9
HETATM    9  C4  UNL     1      26.565  -4.932  14.732  1.00  0.00     0.178 C 
BRANCH   9  10
HETATM   10  C3  UNL     1      25.377  -5.228  15.620  1.00  0.00     0.048 C 
BRANCH  10  11
HETATM   11  C2  UNL     1      25.122  -6.710  15.734  1.00  0.00     0.143 C 
BRANCH  11  12
HETATM   12  N1  UNL     1      26.236  -7.461  16.174  1.00  0.00    -0.339 N 
HETATM   13  C1  UNL     1      26.554  -8.650  15.479  1.00  0.00     0.170 C 
BRANCH  12  14
HETATM   14  N2  UNL     1      26.515  -7.432  17.505  1.00  0.00    -0.348 N 
ATOM     15  H22 UNL     1      27.074  -8.199  17.879  1.00  0.00     0.176 HD
ATOM     16  H21 UNL     1      26.611  -6.513  17.937  1.00  0.00     0.176 HD
ENDBRANCH  12  14
ENDBRANCH  11  12
ENDBRANCH  10  11
ENDBRANCH   9  10
ENDBRANCH   8   9
ENDBRANCH   1   8
BRANCH   7  17
HETATM   17  N5  UNL     1      25.167  -1.667  12.331  1.00  0.00    -0.382 N 
ATOM     18  H52 UNL     1      25.968  -1.391  12.900  1.00  0.00     0.157 HD
ATOM     19  H51 UNL     1      24.590  -0.912  11.961  1.00  0.00     0.157 HD
ENDBRANCH   7  17
TORSDOF 7
ENDMDL
MODEL 5
REMARK VINA RESULT: -5.029525605      2.030      2.641
REMARK  7 active torsions:
REMARK  status: ('A' for Active; 'I' for Inactive)
REMARK    1  A    between atoms: N1_2  and  N2_3 
REMARK    2  A    between atoms: N1_2  and  C2_6 
REMARK    3  A    between atoms: C2_6  and  C3_7 
REMARK    4  A    between atoms: C3_7  and  C4_8 
REMARK    5  A    between atoms: C4_8  and  O1_9 
REMARK    6  A    between atoms: O1_9  and  C5_10 
REMARK    7  A    between atoms: C6_16  and  N5_17 
ROOT
HETATM    1  C5  UNL     1      25.207  -5.439  13.823  1.00  0.00     0.172 A 
HETATM    2  S1  UNL     1      26.444  -6.485  13.298  1.00  0.00     0.031 SA
HETATM    3  N3  UNL     1      27.077  -6.904  14.800  1.00  0.00    -0.266 N 
ATOM      4  H3  UNL     1      27.858  -7.529  15.002  1.00  0.00     0.195 HD
HETATM    5  N4  UNL     1      26.340  -6.245  15.644  1.00  0.00    -0.277 N 
ATOM      6  H4  UNL     1      26.510  -6.319  16.647  1.00  0.00     0.189 HD
HETATM    7  C6  UNL     1      25.367  -5.479  15.186  1.00  0.00     0.156 A 
ENDROOT
BRANCH   1   8
HETATM    8  O1  UNL     1      24.249  -4.704  13.088  1.00  0.00    -0.340 OA
BRANCH   8   9
HETATM    9  C4  UNL     1      23.713  -5.217  11.883  1.00  0.00     0.178 C 
BRANCH   9  10
HETATM   10  C3  UNL     1      24.526  -4.710  10.714  1.00  0.00     0.048 C 
BRANCH  10  11
HETATM   11  C2  UNL     1      24.501  -3.204  10.628  1.00  0.00     0.143 C 
BRANCH  11  12
HETATM   12  N1  UNL     1      25.587  -2.566  11.270  1.00  0.00    -0.339 N 
HETATM   13  C1  UNL     1      26.849  -3.203  11.234  1.00  0.00     0.170 C 
BRANCH  12  14
HETATM   14  N2  UNL     1      25.304  -1.821  12.372  1.00  0.00    -0.348 N 
ATOM     15  H22 UNL     1      25.545  -0.831  12.337  1.00  0.00     0.176 HD
ATOM     16  H21 UNL     1      24.490  -2.098  12.920  1.00  0.00     0.176 HD
ENDBRANCH  12  14
ENDBRANCH  11  12
ENDBRANCH  10  11
ENDBRANCH   9  10
ENDBRANCH   8   9
ENDBRANCH   1   8
BRANCH   7  17
HETATM   17  N5  UNL     1      24.549  -4.768  15.960  1.00  0.00    -0.382 N 
ATOM     18  H52 UNL     1      23.896  -4.066  15.610  1.00  0.00     0.157 HD
ATOM     19  H51 UNL     1      24.564  -4.913  16.970  1.00  0.00     0.157 HD
ENDBRANCH   7  17
TORSDOF 7
ENDMDL
