MODEL 1
REMARK VINA RESULT: -5.444816211      0.000      0.000
REMARK  7 active torsions:
REMARK  status: ('A' for Active; 'I' for Inactive)
REMARK    1  A    between atoms: C3_8  and  N3_9 
REMARK    2  A    between atoms: N4_13  and  C4_14 
REMARK    3  A    between atoms: C4_14  and  C5_15 
REMARK    4  A    between atoms: C5_15  and  C6_16 
REMARK    5  A    between atoms: C6_16  and  C7_17 
REMARK    6  A    between atoms: C7_17  and  O1_18 
REMARK    7  A    between atoms: O1_18  and  N5_19 
ROOT
HETATM    1  N1  UNL     1      24.732  -4.644  15.702  1.00  0.00    -0.371 N 
ATOM      2  H11 UNL     1      24.341  -3.989  15.024  1.00  0.00     0.159 HD
ATOM      3  H12 UNL     1      24.687  -4.183  16.610  1.00  0.00     0.159 HD
HETATM    4  C1  UNL     1      25.200  -5.822  15.510  1.00  0.00     0.172 C 
HETATM    5  N2  UNL     1      25.749  -6.741  16.461  1.00  0.00    -0.359 N 
ATOM      6  H2  UNL     1      25.513  -6.791  17.452  1.00  0.00     0.162 HD
HETATM    7  C2  UNL     1      26.700  -7.588  15.765  1.00  0.00     0.177 C 
HETATM    8  C3  UNL     1      26.197  -7.590  14.347  1.00  0.00     0.304 C 
HETATM    9  N4  UNL     1      25.262  -6.464  14.246  1.00  0.00    -0.324 N 
ENDROOT
BRANCH   9  10
HETATM   10  C4  UNL     1      24.584  -6.170  13.010  1.00  0.00     0.128 C 
BRANCH  10  11
HETATM   11  C5  UNL     1      25.493  -5.829  11.883  1.00  0.00     0.022 C 
BRANCH  11  12
HETATM   12  C6  UNL     1      25.291  -4.342  11.565  1.00  0.00     0.030 C 
BRANCH  12  13
HETATM   13  C7  UNL     1      26.203  -3.587  12.527  1.00  0.00     0.200 C 
BRANCH  13  14
HETATM   14  O1  UNL     1      25.465  -2.697  13.314  1.00  0.00    -0.287 OA
BRANCH  14  15
HETATM   15  N5  UNL     1      25.178  -1.599  12.577  1.00  0.00    -0.311 N 
ATOM     16  H52 UNL     1      25.854  -0.883  12.311  1.00  0.00     0.184 HD
ATOM     17  H51 UNL     1      24.186  -1.613  12.339  1.00  0.00     0.184 HD
ENDBRANCH  14  15
ENDBRANCH  13  14
ENDBRANCH  12  13
ENDBRANCH  11  12
ENDBRANCH  10  11
ENDBRANCH   9  10
BRANCH   8  18
HETATM   18  N3  UNL     1      25.563  -8.847  14.073  1.00  0.00    -0.057 N 
ATOM     19  H33 UNL     1      26.092  -9.636  14.445  1.00  0.00     0.276 HD
ATOM     20  H32 UNL     1      24.710  -8.977  14.616  1.00  0.00     0.276 HD
ATOM     21  H31 UNL     1      25.400  -8.930  13.069  1.00  0.00     0.276 HD
ENDBRANCH   8  18
TORSDOF 7
ENDMDL
MODEL 2
REMARK VINA RESULT: -5.367754018      1.112      1.171
REMARK  7 active torsions:
REMARK  status: ('A' for Active; 'I' for Inactive)
REMARK    1  A    between atoms: C3_8  and  N3_9 
REMARK    2  A    between atoms: N4_13  and  C4_14 
REMARK    3  A    between atoms: C4_14  and  C5_15 
REMARK    4  A    between atoms: C5_15  and  C6_16 
REMARK    5  A    between atoms: C6_16  and  C7_17 
REMARK    6  A    between atoms: C7_17  and  O1_18 
REMARK    7  A    between atoms: O1_18  and  N5_19 
ROOT
HETATM    1  N1  UNL     1      24.607  -4.637  15.849  1.00  0.00    -0.371 N 
ATOM      2  H11 UNL     1      24.365  -3.795  15.326  1.00  0.00     0.159 HD
ATOM      3  H12 UNL     1      24.183  -4.538  16.771  1.00  0.00     0.159 HD
HETATM    4  C1  UNL     1      25.300  -5.649  15.475  1.00  0.00     0.172 C 
HETATM    5  N2  UNL     1      25.640  -6.830  16.209  1.00  0.00    -0.359 N 
ATOM      6  H2  UNL     1      25.095  -7.244  16.966  1.00  0.00     0.162 HD
HETATM    7  C2  UNL     1      26.895  -7.335  15.686  1.00  0.00     0.177 C 
HETATM    8  C3  UNL     1      26.908  -6.841  14.264  1.00  0.00     0.304 C 
HETATM    9  N4  UNL     1      25.889  -5.787  14.192  1.00  0.00    -0.324 N 
ENDROOT
BRANCH   9  10
HETATM   10  C4  UNL     1      25.629  -5.090  12.959  1.00  0.00     0.128 C 
BRANCH  10  11
HETATM   11  C5  UNL     1      24.310  -5.405  12.348  1.00  0.00     0.022 C 
BRANCH  11  12
HETATM   12  C6  UNL     1      24.178  -4.553  11.079  1.00  0.00     0.030 C 
BRANCH  12  13
HETATM   13  C7  UNL     1      25.168  -3.405  11.249  1.00  0.00     0.200 C 
BRANCH  13  14
HETATM   14  O1  UNL     1      24.494  -2.189  11.405  1.00  0.00    -0.287 OA
BRANCH  14  15
HETATM   15  N5  UNL     1      25.027  -1.527  12.458  1.00  0.00    -0.311 N 
ATOM     16  H52 UNL     1      25.549  -1.965  13.217  1.00  0.00     0.184 HD
ATOM     17  H51 UNL     1      24.821  -0.533  12.360  1.00  0.00     0.184 HD
ENDBRANCH  14  15
ENDBRANCH  13  14
ENDBRANCH  12  13
ENDBRANCH  11  12
ENDBRANCH  10  11
ENDBRANCH   9  10
BRANCH   8  18
HETATM   18  N3  UNL     1      26.621  -7.935  13.383  1.00  0.00    -0.057 N 
ATOM     19  H33 UNL     1      27.202  -8.751  13.575  1.00  0.00     0.276 HD
ATOM     20  H32 UNL     1      25.712  -8.357  13.573  1.00  0.00     0.276 HD
ATOM     21  H31 UNL     1      26.706  -7.619  12.416  1.00  0.00     0.276 HD
ENDBRANCH   8  18
TORSDOF 7
ENDMDL
MODEL 3
REMARK VINA RESULT: -5.336980753      1.239      1.255
REMARK  7 active torsions:
REMARK  status: ('A' for Active; 'I' for Inactive)
REMARK    1  A    between atoms: C3_8  and  N3_9 
REMARK    2  A    between atoms: N4_13  and  C4_14 
REMARK    3  A    between atoms: C4_14  and  C5_15 
REMARK    4  A    between atoms: C5_15  and  C6_16 
REMARK    5  A    between atoms: C6_16  and  C7_17 
REMARK    6  A    between atoms: C7_17  and  O1_18 
REMARK    7  A    between atoms: O1_18  and  N5_19 
ROOT
HETATM    1  N1  UNL     1      24.766  -4.610  15.681  1.00  0.00    -0.371 N 
ATOM      2  H11 UNL     1      24.392  -3.934  15.016  1.00  0.00     0.159 HD
ATOM      3  H12 UNL     1      24.717  -4.171  16.600  1.00  0.00     0.159 HD
HETATM    4  C1  UNL     1      25.221  -5.789  15.466  1.00  0.00     0.172 C 
HETATM    5  N2  UNL     1      25.747  -6.738  16.400  1.00  0.00    -0.359 N 
ATOM      6  H2  UNL     1      25.499  -6.810  17.387  1.00  0.00     0.162 HD
HETATM    7  C2  UNL     1      26.695  -7.580  15.695  1.00  0.00     0.177 C 
HETATM    8  C3  UNL     1      26.209  -7.541  14.271  1.00  0.00     0.304 C 
HETATM    9  N4  UNL     1      25.289  -6.400  14.187  1.00  0.00    -0.324 N 
ENDROOT
BRANCH   9  10
HETATM   10  C4  UNL     1      24.630  -6.068  12.951  1.00  0.00     0.128 C 
BRANCH  10  11
HETATM   11  C5  UNL     1      25.555  -5.854  11.806  1.00  0.00     0.022 C 
BRANCH  11  12
HETATM   12  C6  UNL     1      24.806  -5.017  10.761  1.00  0.00     0.030 C 
BRANCH  12  13
HETATM   13  C7  UNL     1      25.022  -3.563  11.168  1.00  0.00     0.200 C 
BRANCH  13  14
HETATM   14  O1  UNL     1      24.315  -2.702  10.322  1.00  0.00    -0.287 OA
BRANCH  14  15
HETATM   15  N5  UNL     1      23.423  -2.000  11.059  1.00  0.00    -0.311 N 
ATOM     16  H52 UNL     1      22.856  -1.229  10.707  1.00  0.00     0.184 HD
ATOM     17  H51 UNL     1      23.420  -2.369  12.010  1.00  0.00     0.184 HD
ENDBRANCH  14  15
ENDBRANCH  13  14
ENDBRANCH  12  13
ENDBRANCH  11  12
ENDBRANCH  10  11
ENDBRANCH   9  10
BRANCH   8  18
HETATM   18  N3  UNL     1      25.562  -8.783  13.959  1.00  0.00    -0.057 N 
ATOM     19  H33 UNL     1      25.755  -9.092  13.007  1.00  0.00     0.276 HD
ATOM     20  H32 UNL     1      25.979  -9.571  14.454  1.00  0.00     0.276 HD
ATOM     21  H31 UNL     1      24.562  -8.696  14.142  1.00  0.00     0.276 HD
ENDBRANCH   8  18
TORSDOF 7
ENDMDL
MODEL 4
REMARK VINA RESULT: -5.190497948      2.366      4.737
REMARK  7 active torsions:
REMARK  status: ('A' for Active; 'I' for Inactive)
REMARK    1  A    between atoms: C3_8  and  N3_9 
REMARK    2  A    between atoms: N4_13  and  C4_14 
REMARK    3  A    between atoms: C4_14  and  C5_15 
REMARK    4  A    between atoms: C5_15  and  C6_16 
REMARK    5  A    between atoms: C6_16  and  C7_17 
REMARK    6  A    between atoms: C7_17  and  O1_18 
REMARK    7  A    between atoms: O1_18  and  N5_19 
ROOT
HETATM    1  N1  UNL     1      23.228  -4.809  12.035  1.00  0.00    -0.371 N 
ATOM      2  H11 UNL     1      23.165  -5.598  12.678  1.00  0.00     0.159 HD
ATOM      3  H12 UNL     1      22.273  -4.495  11.865  1.00  0.00     0.159 HD
HETATM    4  C1  UNL     1      24.270  -4.273  11.512  1.00  0.00     0.172 C 
HETATM    5  N2  UNL     1      24.358  -3.165  10.610  1.00  0.00    -0.359 N 
ATOM      6  H2  UNL     1      23.695  -2.393  10.540  1.00  0.00     0.162 HD
HETATM    7  C2  UNL     1      25.559  -3.334   9.812  1.00  0.00     0.177 C 
HETATM    8  C3  UNL     1      26.461  -4.146  10.702  1.00  0.00     0.304 C 
HETATM    9  N4  UNL     1      25.599  -4.710  11.748  1.00  0.00    -0.324 N 
ENDROOT
BRANCH   9  10
HETATM   10  C4  UNL     1      26.142  -5.549  12.784  1.00  0.00     0.128 C 
BRANCH  10  11
HETATM   11  C5  UNL     1      25.798  -6.990  12.643  1.00  0.00     0.022 C 
BRANCH  11  12
HETATM   12  C6  UNL     1      25.062  -7.413  13.921  1.00  0.00     0.030 C 
BRANCH  12  13
HETATM   13  C7  UNL     1      25.613  -6.520  15.029  1.00  0.00     0.200 C 
BRANCH  13  14
HETATM   14  O1  UNL     1      24.590  -6.114  15.892  1.00  0.00    -0.287 OA
BRANCH  14  15
HETATM   15  N5  UNL     1      24.561  -4.761  15.929  1.00  0.00    -0.311 N 
ATOM     16  H52 UNL     1      24.083  -4.171  15.247  1.00  0.00     0.184 HD
ATOM     17  H51 UNL     1      25.091  -4.443  16.740  1.00  0.00     0.184 HD
ENDBRANCH  14  15
ENDBRANCH  13  14
ENDBRANCH  12  13
ENDBRANCH  11  12
ENDBRANCH  10  11
ENDBRANCH   9  10
BRANCH   8  18
HETATM   18  N3  UNL     1      27.482  -3.296  11.241  1.00  0.00    -0.057 N 
ATOM     19  H33 UNL     1      27.965  -3.722  12.032  1.00  0.00     0.276 HD
ATOM     20  H32 UNL     1      28.282  -3.207  10.615  1.00  0.00     0.276 HD
ATOM     21  H31 UNL     1      27.075  -2.391  11.479  1.00  0.00     0.276 HD
ENDBRANCH   8  18
TORSDOF 7
ENDMDL
MODEL 5
REMARK VINA RESULT: -5.059487505      2.242      4.487
REMARK  7 active torsions:
REMARK  status: ('A' for Active; 'I' for Inactive)
REMARK    1  A    between atoms: C3_8  and  N3_9 
REMARK    2  A    between atoms: N4_13  and  C4_14 
REMARK    3  A    between atoms: C4_14  and  C5_15 
REMARK    4  A    between atoms: C5_15  and  C6_16 
REMARK    5  A    between atoms: C6_16  and  C7_17 
REMARK    6  A    between atoms: C7_17  and  O1_18 
REMARK    7  A    between atoms: O1_18  and  N5_19 
ROOT
HETATM    1  N1  UNL     1      25.510  -2.753  13.073  1.00  0.00    -0.371 N 
ATOM      2  H11 UNL     1      24.975  -3.078  13.878  1.00  0.00     0.159 HD
ATOM      3  H12 UNL     1      25.924  -1.861  13.341  1.00  0.00     0.159 HD
HETATM    4  C1  UNL     1      25.670  -3.312  11.930  1.00  0.00     0.172 C 
HETATM    5  N2  UNL     1      26.422  -2.856  10.800  1.00  0.00    -0.359 N 
ATOM      6  H2  UNL     1      27.243  -2.250  10.830  1.00  0.00     0.162 HD
HETATM    7  C2  UNL     1      25.811  -3.407   9.605  1.00  0.00     0.177 C 
HETATM    8  C3  UNL     1      25.156  -4.670  10.096  1.00  0.00     0.304 C 
HETATM    9  N4  UNL     1      25.095  -4.555  11.558  1.00  0.00    -0.324 N 
ENDROOT
BRANCH   9  10
HETATM   10  C4  UNL     1      24.523  -5.603  12.362  1.00  0.00     0.128 C 
BRANCH  10  11
HETATM   11  C5  UNL     1      25.525  -6.518  12.971  1.00  0.00     0.022 C 
BRANCH  11  12
HETATM   12  C6  UNL     1      25.289  -6.512  14.487  1.00  0.00     0.030 C 
BRANCH  12  13
HETATM   13  C7  UNL     1      26.362  -5.596  15.067  1.00  0.00     0.200 C 
BRANCH  13  14
HETATM   14  O1  UNL     1      25.856  -4.859  16.142  1.00  0.00    -0.287 OA
BRANCH  14  15
HETATM   15  N5  UNL     1      24.532  -4.656  15.947  1.00  0.00    -0.311 N 
ATOM     16  H52 UNL     1      23.992  -5.045  15.174  1.00  0.00     0.184 HD
ATOM     17  H51 UNL     1      24.177  -4.060  16.695  1.00  0.00     0.184 HD
ENDBRANCH  14  15
ENDBRANCH  13  14
ENDBRANCH  12  13
ENDBRANCH  11  12
ENDBRANCH  10  11
ENDBRANCH   9  10
BRANCH   8  18
HETATM   18  N3  UNL     1      25.934  -5.799   9.673  1.00  0.00    -0.057 N 
ATOM     19  H33 UNL     1      25.981  -5.878   8.658  1.00  0.00     0.276 HD
ATOM     20  H32 UNL     1      26.929  -5.673   9.855  1.00  0.00     0.276 HD
ATOM     21  H31 UNL     1      25.564  -6.644  10.110  1.00  0.00     0.276 HD
ENDBRANCH   8  18
TORSDOF 7
ENDMDL
