MODEL 1
REMARK VINA RESULT: 2.782433856      0.000      0.000
REMARK  2 active torsions:
REMARK  status: ('A' for Active; 'I' for Inactive)
REMARK    1  A    between atoms: C7_8  and  C8_9 
REMARK    2  A    between atoms: C9_10  and  C10_11 
ROOT
HETATM    1  N1  UNL     1      24.010   8.793   5.183  1.00  0.00    -0.191 NA
HETATM    2  C1  UNL     1      24.554   7.781   4.964  1.00  0.00     0.102 C 
HETATM    3  C2  UNL     1      25.245   6.546   4.691  1.00  0.00     0.072 A 
HETATM    4  C3  UNL     1      26.618   6.673   4.703  1.00  0.00     0.026 A 
HETATM    5  C4  UNL     1      27.560   5.681   4.479  1.00  0.00     0.014 A 
HETATM    6  C5  UNL     1      27.396   4.331   4.274  1.00  0.00    -0.024 A 
HETATM    7  C6  UNL     1      28.376   3.372   4.140  1.00  0.00     0.032 A 
HETATM    8  C7  UNL     1      27.806   2.121   3.947  1.00  0.00     0.019 A 
HETATM    9  C15 UNL     1      26.440   2.306   3.964  1.00  0.00     0.034 A 
HETATM   10  C16 UNL     1      26.134   3.635   4.161  1.00  0.00    -0.012 A 
HETATM   11  C17 UNL     1      24.856   4.150   4.227  1.00  0.00     0.004 A 
HETATM   12  C18 UNL     1      23.697   3.423   4.061  1.00  0.00     0.031 A 
HETATM   13  C19 UNL     1      22.597   4.255   4.192  1.00  0.00     0.089 A 
HETATM   14  N3  UNL     1      23.086   5.479   4.436  1.00  0.00    -0.364 N 
ATOM     15  H3  UNL     1      22.519   6.315   4.581  1.00  0.00     0.165 HD
HETATM   16  C20 UNL     1      24.432   5.451   4.463  1.00  0.00     0.064 A 
ENDROOT
BRANCH   8  17
HETATM   17  C8  UNL     1      28.516   0.872   3.765  1.00  0.00    -0.061 C 
HETATM   18  C9  UNL     1      29.099  -0.182   3.629  1.00  0.00    -0.060 C 
BRANCH  18  19
HETATM   19  C10 UNL     1      29.776  -1.437   3.488  1.00  0.00     0.033 A 
HETATM   20  C11 UNL     1      31.122  -1.539   3.148  1.00  0.00     0.023 A 
HETATM   21  C12 UNL     1      31.747  -2.761   3.019  1.00  0.00     0.019 A 
HETATM   22  C13 UNL     1      30.983  -3.888   3.242  1.00  0.00     0.087 A 
HETATM   23  N2  UNL     1      29.680  -3.782   3.570  1.00  0.00    -0.374 N 
HETATM   24  C14 UNL     1      29.061  -2.595   3.698  1.00  0.00     0.108 A 
ATOM     25  H2  UNL     1      29.143  -4.636   3.727  1.00  0.00     0.164 HD
ENDBRANCH  18  19
ENDBRANCH   8  17
TORSDOF 2
ENDMDL
MODEL 2
REMARK VINA RESULT: 4.565663958      0.615      1.021
REMARK  2 active torsions:
REMARK  status: ('A' for Active; 'I' for Inactive)
REMARK    1  A    between atoms: C7_8  and  C8_9 
REMARK    2  A    between atoms: C9_10  and  C10_11 
ROOT
HETATM    1  N1  UNL     1      24.089   8.825   5.165  1.00  0.00    -0.191 NA
HETATM    2  C1  UNL     1      24.595   7.788   4.972  1.00  0.00     0.102 C 
HETATM    3  C2  UNL     1      25.240   6.521   4.734  1.00  0.00     0.072 A 
HETATM    4  C3  UNL     1      26.605   6.558   4.927  1.00  0.00     0.026 A 
HETATM    5  C4  UNL     1      27.507   5.514   4.780  1.00  0.00     0.014 A 
HETATM    6  C5  UNL     1      27.288   4.187   4.496  1.00  0.00    -0.024 A 
HETATM    7  C6  UNL     1      28.218   3.171   4.444  1.00  0.00     0.032 A 
HETATM    8  C7  UNL     1      27.603   1.968   4.124  1.00  0.00     0.019 A 
HETATM    9  C15 UNL     1      26.261   2.241   3.975  1.00  0.00     0.034 A 
HETATM   10  C16 UNL     1      26.012   3.580   4.191  1.00  0.00    -0.012 A 
HETATM   11  C17 UNL     1      24.770   4.175   4.118  1.00  0.00     0.004 A 
HETATM   12  C18 UNL     1      23.601   3.532   3.773  1.00  0.00     0.031 A 
HETATM   13  C19 UNL     1      22.546   4.429   3.800  1.00  0.00     0.089 A 
HETATM   14  N3  UNL     1      23.071   5.609   4.159  1.00  0.00    -0.364 N 
ATOM     15  H3  UNL     1      22.542   6.474   4.268  1.00  0.00     0.165 HD
HETATM   16  C20 UNL     1      24.398   5.491   4.356  1.00  0.00     0.064 A 
ENDROOT
BRANCH   8  17
HETATM   17  C8  UNL     1      28.254   0.682   3.979  1.00  0.00    -0.061 C 
HETATM   18  C9  UNL     1      28.814  -0.384   3.846  1.00  0.00    -0.060 C 
BRANCH  18  19
HETATM   19  C10 UNL     1      29.493  -1.635   3.674  1.00  0.00     0.033 A 
HETATM   20  C11 UNL     1      28.824  -2.846   3.522  1.00  0.00     0.023 A 
HETATM   21  C12 UNL     1      29.505  -4.034   3.358  1.00  0.00     0.019 A 
HETATM   22  C13 UNL     1      30.883  -3.977   3.350  1.00  0.00     0.087 A 
HETATM   23  N2  UNL     1      31.524  -2.800   3.499  1.00  0.00    -0.374 N 
HETATM   24  C14 UNL     1      30.870  -1.636   3.659  1.00  0.00     0.108 A 
ATOM     25  H2  UNL     1      32.544  -2.793   3.489  1.00  0.00     0.164 HD
ENDBRANCH  18  19
ENDBRANCH   8  17
TORSDOF 2
ENDMDL
MODEL 3
REMARK VINA RESULT: 5.072225616      0.930      2.470
REMARK  2 active torsions:
REMARK  status: ('A' for Active; 'I' for Inactive)
REMARK    1  A    between atoms: C7_8  and  C8_9 
REMARK    2  A    between atoms: C9_10  and  C10_11 
ROOT
HETATM    1  N1  UNL     1      23.561   8.455   4.787  1.00  0.00    -0.191 NA
HETATM    2  C1  UNL     1      24.161   7.454   4.713  1.00  0.00     0.102 C 
HETATM    3  C2  UNL     1      24.880   6.208   4.621  1.00  0.00     0.072 A 
HETATM    4  C3  UNL     1      24.066   5.126   4.360  1.00  0.00     0.026 A 
HETATM    5  C4  UNL     1      24.446   3.800   4.215  1.00  0.00     0.014 A 
HETATM    6  C5  UNL     1      25.697   3.231   4.206  1.00  0.00    -0.024 A 
HETATM    7  C6  UNL     1      26.025   1.913   3.973  1.00  0.00     0.032 A 
HETATM    8  C7  UNL     1      27.399   1.734   4.052  1.00  0.00     0.019 A 
HETATM    9  C15 UNL     1      27.939   2.969   4.338  1.00  0.00     0.034 A 
HETATM   10  C16 UNL     1      26.947   3.919   4.443  1.00  0.00    -0.012 A 
HETATM   11  C17 UNL     1      27.156   5.253   4.723  1.00  0.00     0.004 A 
HETATM   12  C18 UNL     1      28.382   5.827   4.984  1.00  0.00     0.031 A 
HETATM   13  C19 UNL     1      28.226   7.182   5.223  1.00  0.00     0.089 A 
HETATM   14  N3  UNL     1      26.913   7.430   5.106  1.00  0.00    -0.364 N 
ATOM     15  H3  UNL     1      26.481   8.346   5.226  1.00  0.00     0.165 HD
HETATM   16  C20 UNL     1      26.247   6.299   4.809  1.00  0.00     0.064 A 
ENDROOT
BRANCH   8  17
HETATM   17  C8  UNL     1      28.115   0.488   3.866  1.00  0.00    -0.061 C 
HETATM   18  C9  UNL     1      28.730  -0.545   3.720  1.00  0.00    -0.060 C 
BRANCH  18  19
HETATM   19  C10 UNL     1      29.480  -1.756   3.557  1.00  0.00     0.033 A 
HETATM   20  C11 UNL     1      30.849  -1.773   3.311  1.00  0.00     0.023 A 
HETATM   21  C12 UNL     1      31.544  -2.955   3.159  1.00  0.00     0.019 A 
HETATM   22  C13 UNL     1      30.825  -4.128   3.258  1.00  0.00     0.087 A 
HETATM   23  N2  UNL     1      29.498  -4.104   3.494  1.00  0.00    -0.374 N 
HETATM   24  C14 UNL     1      28.811  -2.957   3.645  1.00  0.00     0.108 A 
ATOM     25  H2  UNL     1      28.996  -4.989   3.561  1.00  0.00     0.164 HD
ENDBRANCH  18  19
ENDBRANCH   8  17
TORSDOF 2
ENDMDL
MODEL 4
REMARK VINA RESULT: 6.710702803      1.529      8.863
REMARK  2 active torsions:
REMARK  status: ('A' for Active; 'I' for Inactive)
REMARK    1  A    between atoms: C7_8  and  C8_9 
REMARK    2  A    between atoms: C9_10  and  C10_11 
ROOT
HETATM    1  N1  UNL     1      31.039  -4.566   3.405  1.00  0.00    -0.191 NA
HETATM    2  C1  UNL     1      30.480  -3.542   3.492  1.00  0.00     0.102 C 
HETATM    3  C2  UNL     1      29.812  -2.269   3.599  1.00  0.00     0.072 A 
HETATM    4  C3  UNL     1      30.651  -1.193   3.398  1.00  0.00     0.026 A 
HETATM    5  C4  UNL     1      30.320   0.153   3.434  1.00  0.00     0.014 A 
HETATM    6  C5  UNL     1      29.098   0.762   3.589  1.00  0.00    -0.024 A 
HETATM    7  C6  UNL     1      28.813   2.110   3.533  1.00  0.00     0.032 A 
HETATM    8  C7  UNL     1      27.457   2.327   3.740  1.00  0.00     0.019 A 
HETATM    9  C15 UNL     1      26.886   1.086   3.927  1.00  0.00     0.034 A 
HETATM   10  C16 UNL     1      27.841   0.096   3.845  1.00  0.00    -0.012 A 
HETATM   11  C17 UNL     1      27.594  -1.253   3.988  1.00  0.00     0.004 A 
HETATM   12  C18 UNL     1      26.367  -1.810   4.279  1.00  0.00     0.031 A 
HETATM   13  C19 UNL     1      26.481  -3.189   4.350  1.00  0.00     0.089 A 
HETATM   14  N3  UNL     1      27.769  -3.467   4.103  1.00  0.00    -0.364 N 
ATOM     15  H3  UNL     1      28.168  -4.405   4.084  1.00  0.00     0.165 HD
HETATM   16  C20 UNL     1      28.461  -2.333   3.883  1.00  0.00     0.064 A 
ENDROOT
BRANCH   8  17
HETATM   17  C8  UNL     1      26.785   3.609   3.753  1.00  0.00    -0.061 C 
HETATM   18  C9  UNL     1      26.234   4.688   3.780  1.00  0.00    -0.060 C 
BRANCH  18  19
HETATM   19  C10 UNL     1      25.597   5.971   3.832  1.00  0.00     0.033 A 
HETATM   20  C11 UNL     1      25.386   6.760   2.705  1.00  0.00     0.023 A 
HETATM   21  C12 UNL     1      24.769   7.991   2.788  1.00  0.00     0.019 A 
HETATM   22  C13 UNL     1      24.366   8.414   4.036  1.00  0.00     0.087 A 
HETATM   23  N2  UNL     1      24.575   7.645   5.124  1.00  0.00    -0.374 N 
HETATM   24  C14 UNL     1      25.175   6.443   5.056  1.00  0.00     0.108 A 
ATOM     25  H2  UNL     1      24.265   7.989   6.034  1.00  0.00     0.164 HD
ENDBRANCH  18  19
ENDBRANCH   8  17
TORSDOF 2
ENDMDL
