MODEL 1
REMARK VINA RESULT: -2.504518345      0.000      0.000
REMARK  0 active torsions:
REMARK  status: ('A' for Active; 'I' for Inactive)
ROOT
HETATM    1  C1  UNL     1      28.469   4.856   4.265  1.00  0.00     0.044 C 
HETATM    2  C2  UNL     1      28.744   3.702   4.871  1.00  0.00     0.037 A 
HETATM    3  N1  UNL     1      30.123   3.691   5.315  1.00  0.00    -0.352 N 
ATOM      4  H1  UNL     1      30.593   4.569   5.539  1.00  0.00     0.166 HD
HETATM    5  C3  UNL     1      30.757   2.577   5.428  1.00  0.00     0.181 A 
HETATM    6  N2  UNL     1      30.114   1.346   5.117  1.00  0.00    -0.351 N 
ATOM      7  H2  UNL     1      30.644   0.479   5.206  1.00  0.00     0.166 HD
HETATM    8  C4  UNL     1      28.765   1.279   4.689  1.00  0.00     0.057 A 
HETATM    9  C5  UNL     1      28.037   2.493   4.576  1.00  0.00     0.031 A 
HETATM   10  C6  UNL     1      26.764   2.462   4.127  1.00  0.00     0.019 A 
HETATM   11  C7  UNL     1      25.760   3.412   4.173  1.00  0.00     0.004 A 
HETATM   12  C8  UNL     1      25.576   4.652   4.679  1.00  0.00     0.014 A 
HETATM   13  C9  UNL     1      24.361   5.291   4.742  1.00  0.00     0.001 A 
HETATM   14  C10 UNL     1      23.228   4.678   4.284  1.00  0.00     0.002 A 
HETATM   15  C11 UNL     1      23.374   3.406   3.772  1.00  0.00     0.030 A 
HETATM   16  C12 UNL     1      24.619   2.800   3.728  1.00  0.00     0.045 A 
HETATM   17  N3  UNL     1      24.884   1.478   3.435  1.00  0.00    -0.349 N 
HETATM   18  C13 UNL     1      23.893   0.562   2.925  1.00  0.00     0.156 C 
HETATM   19  C14 UNL     1      26.170   1.252   3.681  1.00  0.00     0.058 A 
HETATM   20  C15 UNL     1      26.935   0.078   3.774  1.00  0.00     0.004 A 
HETATM   21  C16 UNL     1      26.373  -1.096   3.347  1.00  0.00     0.014 A 
HETATM   22  C17 UNL     1      27.146  -2.269   3.460  1.00  0.00     0.001 A 
HETATM   23  C18 UNL     1      28.418  -2.279   3.971  1.00  0.00     0.001 A 
HETATM   24  C19 UNL     1      28.965  -1.060   4.398  1.00  0.00     0.014 A 
HETATM   25  C20 UNL     1      28.219   0.088   4.291  1.00  0.00     0.004 A 
ENDROOT
TORSDOF 0
ENDMDL
MODEL 2
REMARK VINA RESULT: -2.458757093      1.208      4.175
REMARK  0 active torsions:
REMARK  status: ('A' for Active; 'I' for Inactive)
ROOT
HETATM    1  C1  UNL     1      23.958   3.303   3.888  1.00  0.00     0.044 C 
HETATM    2  C2  UNL     1      24.657   2.439   3.153  1.00  0.00     0.037 A 
HETATM    3  N1  UNL     1      23.759   1.568   2.421  1.00  0.00    -0.352 N 
ATOM      4  H1  UNL     1      22.827   1.898   2.167  1.00  0.00     0.166 HD
HETATM    5  C3  UNL     1      24.133   0.382   2.092  1.00  0.00     0.181 A 
HETATM    6  N2  UNL     1      25.429  -0.089   2.444  1.00  0.00    -0.351 N 
ATOM      7  H2  UNL     1      25.695  -1.038   2.179  1.00  0.00     0.166 HD
HETATM    8  C4  UNL     1      26.364   0.710   3.148  1.00  0.00     0.057 A 
HETATM    9  C5  UNL     1      25.984   2.029   3.505  1.00  0.00     0.031 A 
HETATM   10  C6  UNL     1      26.838   2.797   4.215  1.00  0.00     0.019 A 
HETATM   11  C7  UNL     1      26.853   4.158   4.458  1.00  0.00     0.004 A 
HETATM   12  C8  UNL     1      26.139   5.248   4.096  1.00  0.00     0.014 A 
HETATM   13  C9  UNL     1      26.524   6.543   4.345  1.00  0.00     0.001 A 
HETATM   14  C10 UNL     1      27.700   6.808   4.991  1.00  0.00     0.002 A 
HETATM   15  C11 UNL     1      28.461   5.721   5.364  1.00  0.00     0.030 A 
HETATM   16  C12 UNL     1      28.034   4.432   5.093  1.00  0.00     0.045 A 
HETATM   17  N3  UNL     1      28.771   3.272   5.224  1.00  0.00    -0.349 N 
HETATM   18  C13 UNL     1      30.062   3.219   5.867  1.00  0.00     0.156 C 
HETATM   19  C14 UNL     1      28.073   2.277   4.688  1.00  0.00     0.058 A 
HETATM   20  C15 UNL     1      28.397   0.955   4.346  1.00  0.00     0.004 A 
HETATM   21  C16 UNL     1      29.585   0.443   4.797  1.00  0.00     0.014 A 
HETATM   22  C17 UNL     1      29.906  -0.880   4.433  1.00  0.00     0.001 A 
HETATM   23  C18 UNL     1      29.087  -1.661   3.659  1.00  0.00     0.001 A 
HETATM   24  C19 UNL     1      27.877  -1.108   3.215  1.00  0.00     0.014 A 
HETATM   25  C20 UNL     1      27.556   0.180   3.565  1.00  0.00     0.004 A 
ENDROOT
TORSDOF 0
ENDMDL
MODEL 3
REMARK VINA RESULT: -2.085509197      1.183      4.889
REMARK  0 active torsions:
REMARK  status: ('A' for Active; 'I' for Inactive)
ROOT
HETATM    1  C1  UNL     1      29.460   1.083   6.604  1.00  0.00     0.044 C 
HETATM    2  C2  UNL     1      29.114   2.235   6.032  1.00  0.00     0.037 A 
HETATM    3  N1  UNL     1      29.777   3.339   6.696  1.00  0.00    -0.352 N 
ATOM      4  H1  UNL     1      30.673   3.189   7.159  1.00  0.00     0.166 HD
HETATM    5  C3  UNL     1      29.237   4.507   6.703  1.00  0.00     0.181 A 
HETATM    6  N2  UNL     1      27.986   4.728   6.063  1.00  0.00    -0.351 N 
ATOM      7  H2  UNL     1      27.577   5.663   6.094  1.00  0.00     0.166 HD
HETATM    8  C4  UNL     1      27.286   3.700   5.384  1.00  0.00     0.057 A 
HETATM    9  C5  UNL     1      27.870   2.407   5.344  1.00  0.00     0.031 A 
HETATM   10  C6  UNL     1      27.204   1.398   4.742  1.00  0.00     0.019 A 
HETATM   11  C7  UNL     1      27.627   0.149   4.323  1.00  0.00     0.004 A 
HETATM   12  C8  UNL     1      28.783  -0.550   4.268  1.00  0.00     0.014 A 
HETATM   13  C9  UNL     1      28.939  -1.736   3.592  1.00  0.00     0.001 A 
HETATM   14  C10 UNL     1      27.894  -2.289   2.906  1.00  0.00     0.002 A 
HETATM   15  C11 UNL     1      26.701  -1.596   2.928  1.00  0.00     0.030 A 
HETATM   16  C12 UNL     1      26.589  -0.404   3.624  1.00  0.00     0.045 A 
HETATM   17  N3  UNL     1      25.536   0.487   3.571  1.00  0.00    -0.349 N 
HETATM   18  C13 UNL     1      24.282   0.199   2.919  1.00  0.00     0.156 C 
HETATM   19  C14 UNL     1      25.893   1.585   4.229  1.00  0.00     0.058 A 
HETATM   20  C15 UNL     1      25.335   2.870   4.322  1.00  0.00     0.004 A 
HETATM   21  C16 UNL     1      24.070   3.063   3.830  1.00  0.00     0.014 A 
HETATM   22  C17 UNL     1      23.528   4.361   3.914  1.00  0.00     0.001 A 
HETATM   23  C18 UNL     1      24.206   5.419   4.462  1.00  0.00     0.001 A 
HETATM   24  C19 UNL     1      25.497   5.188   4.957  1.00  0.00     0.014 A 
HETATM   25  C20 UNL     1      26.034   3.926   4.880  1.00  0.00     0.004 A 
ENDROOT
TORSDOF 0
ENDMDL
MODEL 4
REMARK VINA RESULT: -1.656633353      1.528      4.221
REMARK  0 active torsions:
REMARK  status: ('A' for Active; 'I' for Inactive)
ROOT
HETATM    1  C1  UNL     1      23.750   3.365   3.631  1.00  0.00     0.044 C 
HETATM    2  C2  UNL     1      24.588   2.390   3.282  1.00  0.00     0.037 A 
HETATM    3  N1  UNL     1      23.861   1.324   2.623  1.00  0.00    -0.352 N 
ATOM      4  H1  UNL     1      22.999   1.532   2.117  1.00  0.00     0.166 HD
HETATM    5  C3  UNL     1      24.299   0.115   2.674  1.00  0.00     0.181 A 
HETATM    6  N2  UNL     1      25.498  -0.189   3.377  1.00  0.00    -0.351 N 
ATOM      7  H2  UNL     1      25.816  -1.158   3.410  1.00  0.00     0.166 HD
HETATM    8  C4  UNL     1      26.266   0.803   4.035  1.00  0.00     0.057 A 
HETATM    9  C5  UNL     1      25.816   2.148   3.977  1.00  0.00     0.031 A 
HETATM   10  C6  UNL     1      26.505   3.107   4.633  1.00  0.00     0.019 A 
HETATM   11  C7  UNL     1      26.464   4.485   4.534  1.00  0.00     0.004 A 
HETATM   12  C8  UNL     1      25.835   5.418   3.784  1.00  0.00     0.014 A 
HETATM   13  C9  UNL     1      26.156   6.754   3.780  1.00  0.00     0.001 A 
HETATM   14  C10 UNL     1      27.174   7.228   4.560  1.00  0.00     0.002 A 
HETATM   15  C11 UNL     1      27.848   6.303   5.329  1.00  0.00     0.030 A 
HETATM   16  C12 UNL     1      27.490   4.965   5.302  1.00  0.00     0.045 A 
HETATM   17  N3  UNL     1      28.190   3.912   5.855  1.00  0.00    -0.349 N 
HETATM   18  C13 UNL     1      29.322   4.082   6.733  1.00  0.00     0.156 C 
HETATM   19  C14 UNL     1      27.618   2.782   5.452  1.00  0.00     0.058 A 
HETATM   20  C15 UNL     1      28.011   1.435   5.514  1.00  0.00     0.004 A 
HETATM   21  C16 UNL     1      29.084   1.110   6.301  1.00  0.00     0.014 A 
HETATM   22  C17 UNL     1      29.478  -0.243   6.341  1.00  0.00     0.001 A 
HETATM   23  C18 UNL     1      28.837  -1.228   5.636  1.00  0.00     0.001 A 
HETATM   24  C19 UNL     1      27.741  -0.863   4.841  1.00  0.00     0.014 A 
HETATM   25  C20 UNL     1      27.350   0.453   4.796  1.00  0.00     0.004 A 
ENDROOT
TORSDOF 0
ENDMDL
MODEL 5
REMARK VINA RESULT: -1.079230678      1.270      6.115
REMARK  0 active torsions:
REMARK  status: ('A' for Active; 'I' for Inactive)
ROOT
HETATM    1  C1  UNL     1      24.429   0.917   2.383  1.00  0.00     0.044 C 
HETATM    2  C2  UNL     1      24.351   1.883   3.297  1.00  0.00     0.037 A 
HETATM    3  N1  UNL     1      23.078   2.567   3.189  1.00  0.00    -0.352 N 
ATOM      4  H1  UNL     1      22.264   2.071   2.824  1.00  0.00     0.166 HD
HETATM    5  C3  UNL     1      22.971   3.797   3.552  1.00  0.00     0.181 A 
HETATM    6  N2  UNL     1      24.099   4.499   4.060  1.00  0.00    -0.351 N 
ATOM      7  H2  UNL     1      23.988   5.477   4.330  1.00  0.00     0.166 HD
HETATM    8  C4  UNL     1      25.372   3.893   4.205  1.00  0.00     0.057 A 
HETATM    9  C5  UNL     1      25.511   2.531   3.831  1.00  0.00     0.031 A 
HETATM   10  C6  UNL     1      26.723   1.940   3.916  1.00  0.00     0.019 A 
HETATM   11  C7  UNL     1      27.090   0.608   3.886  1.00  0.00     0.004 A 
HETATM   12  C8  UNL     1      26.481  -0.598   3.824  1.00  0.00     0.014 A 
HETATM   13  C9  UNL     1      27.121  -1.799   4.018  1.00  0.00     0.001 A 
HETATM   14  C10 UNL     1      28.457  -1.838   4.304  1.00  0.00     0.002 A 
HETATM   15  C11 UNL     1      29.109  -0.626   4.388  1.00  0.00     0.030 A 
HETATM   16  C12 UNL     1      28.425   0.561   4.185  1.00  0.00     0.045 A 
HETATM   17  N3  UNL     1      28.892   1.836   4.431  1.00  0.00    -0.349 N 
HETATM   18  C13 UNL     1      30.266   2.131   4.758  1.00  0.00     0.156 C 
HETATM   19  C14 UNL     1      27.877   2.681   4.287  1.00  0.00     0.058 A 
HETATM   20  C15 UNL     1      27.704   4.035   4.613  1.00  0.00     0.004 A 
HETATM   21  C16 UNL     1      28.811   4.760   4.972  1.00  0.00     0.014 A 
HETATM   22  C17 UNL     1      28.621   6.114   5.313  1.00  0.00     0.001 A 
HETATM   23  C18 UNL     1      27.394   6.724   5.297  1.00  0.00     0.001 A 
HETATM   24  C19 UNL     1      26.282   5.955   4.924  1.00  0.00     0.014 A 
HETATM   25  C20 UNL     1      26.456   4.635   4.590  1.00  0.00     0.004 A 
ENDROOT
TORSDOF 0
ENDMDL
