MODEL 1
REMARK VINA RESULT: -7.620531674      0.000      0.000
REMARK  10 active torsions:
REMARK  status: ('A' for Active; 'I' for Inactive)
REMARK    1  A    between atoms: C2_2  and  N1_3 
REMARK    2  A    between atoms: C2_2  and  C3_7 
REMARK    3  A    between atoms: C4_12  and  N4_13 
REMARK       I    between atoms: N4_13  and  C5_15 
REMARK    4  A    between atoms: C5_15  and  C6_17 
REMARK    5  A    between atoms: C6_17  and  C7_18 
REMARK       I    between atoms: C7_18  and  N5_20 
REMARK    6  A    between atoms: N5_20  and  C8_22 
REMARK    7  A    between atoms: C11_25  and  N6_26 
REMARK       I    between atoms: N6_26  and  C12_28 
REMARK    8  A    between atoms: C12_28  and  C13_30 
REMARK    9  A    between atoms: N9_34  and  N10_35 
REMARK   10  A    between atoms: N12_42  and  N13_43 
ROOT
HETATM    1  C7  UNL     1      -6.830   6.009  54.676  1.00  0.00     0.231 C 
HETATM    2  O2  UNL     1      -7.821   6.248  53.966  1.00  0.00    -0.273 OA
HETATM    3  N5  UNL     1      -6.848   5.137  55.776  1.00  0.00    -0.327 N 
ATOM      4  H5  UNL     1      -5.982   5.020  56.303  1.00  0.00     0.169 HD
ENDROOT
BRANCH   1   5
HETATM    5  C6  UNL     1      -5.550   6.695  54.325  1.00  0.00     0.206 C 
BRANCH   5   6
HETATM    6  C5  UNL     1      -4.643   5.733  53.687  1.00  0.00     0.244 C 
HETATM    7  N4  UNL     1      -3.736   6.039  52.643  1.00  0.00    -0.156 N 
ATOM      8  H4  UNL     1      -2.749   6.168  52.862  1.00  0.00     0.187 HD
HETATM    9  O1  UNL     1      -4.683   4.528  54.119  1.00  0.00    -0.272 OA
BRANCH   7  10
HETATM   10  C4  UNL     1      -4.134   6.160  51.425  1.00  0.00     0.722 A 
HETATM   11  N3  UNL     1      -4.792   7.163  50.817  1.00  0.00    -0.129 N 
HETATM   12  N2  UNL     1      -4.990   6.850  49.528  1.00  0.00    -0.271 N 
ATOM     13  H3  UNL     1      -5.095   8.027  51.267  1.00  0.00     0.205 HD
HETATM   14  C3  UNL     1      -4.461   5.637  49.290  1.00  0.00     0.166 A 
ATOM     15  H2  UNL     1      -5.464   7.436  48.841  1.00  0.00     0.189 HD
HETATM   16  N12 UNL     1      -3.945   5.236  50.456  1.00  0.00    -0.075 N 
BRANCH  14  17
HETATM   17  C2  UNL     1      -4.496   4.973  47.959  1.00  0.00     0.250 C 
HETATM   18  C1  UNL     1      -5.005   5.871  46.860  1.00  0.00     0.048 C 
BRANCH  17  19
HETATM   19  N1  UNL     1      -5.334   3.796  47.972  1.00  0.00    -0.068 N 
ATOM     20  H13 UNL     1      -5.977   3.773  48.763  1.00  0.00     0.275 HD
ATOM     21  H12 UNL     1      -6.036   3.798  47.232  1.00  0.00     0.275 HD
ATOM     22  H11 UNL     1      -4.716   2.985  47.935  1.00  0.00     0.275 HD
ENDBRANCH  17  19
ENDBRANCH  14  17
BRANCH  16  23
HETATM   23  N13 UNL     1      -3.290   4.022  50.646  1.00  0.00    -0.323 N 
ATOM     24 2H13 UNL     1      -3.477   3.383  51.419  1.00  0.00     0.178 HD
ATOM     25 1H13 UNL     1      -2.559   3.663  50.032  1.00  0.00     0.178 HD
ENDBRANCH  16  23
ENDBRANCH   7  10
ENDBRANCH   5   6
ENDBRANCH   1   5
BRANCH   3  26
HETATM   26  C8  UNL     1      -7.996   4.399  56.212  1.00  0.00     0.034 A 
HETATM   27  C9  UNL     1      -8.697   3.526  55.439  1.00  0.00     0.032 A 
HETATM   28  C10 UNL     1      -9.801   2.895  55.947  1.00  0.00     0.032 A 
HETATM   29  C11 UNL     1     -10.216   3.137  57.253  1.00  0.00     0.035 A 
HETATM   30  C15 UNL     1      -9.532   4.004  58.048  1.00  0.00     0.032 A 
HETATM   31  C16 UNL     1      -8.407   4.635  57.503  1.00  0.00     0.032 A 
BRANCH  29  32
HETATM   32  N6  UNL     1     -11.344   2.416  57.684  1.00  0.00    -0.322 N 
HETATM   33  C12 UNL     1     -11.256   1.291  58.507  1.00  0.00     0.277 C 
HETATM   34  O3  UNL     1     -10.179   0.850  58.927  1.00  0.00    -0.266 OA
ATOM     35  H6  UNL     1     -12.268   2.728  57.381  1.00  0.00     0.169 HD
BRANCH  33  36
HETATM   36  C13 UNL     1     -12.511   0.606  58.889  1.00  0.00     0.159 A 
HETATM   37  N7  UNL     1     -12.864   0.185  60.115  1.00  0.00    -0.274 N 
HETATM   38  N8  UNL     1     -14.063  -0.371  60.038  1.00  0.00     0.002 NA
ATOM     39  H7  UNL     1     -12.303   0.279  60.961  1.00  0.00     0.184 HD
HETATM   40  N9  UNL     1     -14.519  -0.333  58.785  1.00  0.00    -0.170 N 
HETATM   41  C14 UNL     1     -13.561   0.274  58.059  1.00  0.00     0.187 A 
HETATM   42  N11 UNL     1     -13.620   0.523  56.661  1.00  0.00    -0.077 NA
BRANCH  40  43
HETATM   43  N10 UNL     1     -15.749  -0.833  58.356  1.00  0.00    -0.324 N 
ATOM     44 2H10 UNL     1     -16.283  -1.616  58.732  1.00  0.00     0.178 HD
ATOM     45 1H10 UNL     1     -16.298  -0.466  57.578  1.00  0.00     0.178 HD
ENDBRANCH  40  43
ENDBRANCH  33  36
ENDBRANCH  29  32
ENDBRANCH   3  26
TORSDOF 10
ENDMDL
MODEL 2
REMARK VINA RESULT: -7.607074209      1.641      2.071
REMARK  10 active torsions:
REMARK  status: ('A' for Active; 'I' for Inactive)
REMARK    1  A    between atoms: C2_2  and  N1_3 
REMARK    2  A    between atoms: C2_2  and  C3_7 
REMARK    3  A    between atoms: C4_12  and  N4_13 
REMARK       I    between atoms: N4_13  and  C5_15 
REMARK    4  A    between atoms: C5_15  and  C6_17 
REMARK    5  A    between atoms: C6_17  and  C7_18 
REMARK       I    between atoms: C7_18  and  N5_20 
REMARK    6  A    between atoms: N5_20  and  C8_22 
REMARK    7  A    between atoms: C11_25  and  N6_26 
REMARK       I    between atoms: N6_26  and  C12_28 
REMARK    8  A    between atoms: C12_28  and  C13_30 
REMARK    9  A    between atoms: N9_34  and  N10_35 
REMARK   10  A    between atoms: N12_42  and  N13_43 
ROOT
HETATM    1  C7  UNL     1      -6.679   4.212  54.739  1.00  0.00     0.231 C 
HETATM    2  O2  UNL     1      -7.589   3.991  53.921  1.00  0.00    -0.273 OA
HETATM    3  N5  UNL     1      -6.767   3.911  56.107  1.00  0.00    -0.327 N 
ATOM      4  H5  UNL     1      -5.968   4.144  56.696  1.00  0.00     0.169 HD
ENDROOT
BRANCH   1   5
HETATM    5  C6  UNL     1      -5.423   4.830  54.219  1.00  0.00     0.206 C 
BRANCH   5   6
HETATM    6  C5  UNL     1      -4.567   3.784  53.648  1.00  0.00     0.244 C 
HETATM    7  N4  UNL     1      -3.728   3.945  52.518  1.00  0.00    -0.156 N 
ATOM      8  H4  UNL     1      -2.728   4.085  52.655  1.00  0.00     0.187 HD
HETATM    9  O1  UNL     1      -4.586   2.642  54.229  1.00  0.00    -0.272 OA
BRANCH   7  10
HETATM   10  C4  UNL     1      -4.205   3.919  51.323  1.00  0.00     0.722 A 
HETATM   11  N3  UNL     1      -4.619   2.883  50.572  1.00  0.00    -0.129 N 
HETATM   12  N2  UNL     1      -5.046   3.337  49.383  1.00  0.00    -0.271 N 
ATOM     13  H3  UNL     1      -4.610   1.905  50.860  1.00  0.00     0.205 HD
HETATM   14  C3  UNL     1      -4.910   4.674  49.355  1.00  0.00     0.166 A 
ATOM     15  H2  UNL     1      -5.414   2.762  48.626  1.00  0.00     0.189 HD
HETATM   16  N12 UNL     1      -4.397   5.007  50.544  1.00  0.00    -0.075 N 
BRANCH  14  17
HETATM   17  C2  UNL     1      -5.288   5.514  48.187  1.00  0.00     0.250 C 
HETATM   18  C1  UNL     1      -5.003   4.852  46.862  1.00  0.00     0.048 C 
BRANCH  17  19
HETATM   19  N1  UNL     1      -4.591   6.779  48.190  1.00  0.00    -0.068 N 
ATOM     20  H13 UNL     1      -4.442   7.151  49.128  1.00  0.00     0.275 HD
ATOM     21  H12 UNL     1      -3.609   6.695  47.926  1.00  0.00     0.275 HD
ATOM     22  H11 UNL     1      -5.114   7.414  47.587  1.00  0.00     0.275 HD
ENDBRANCH  17  19
ENDBRANCH  14  17
BRANCH  16  23
HETATM   23  N13 UNL     1      -4.105   6.312  50.933  1.00  0.00    -0.323 N 
ATOM     24 2H13 UNL     1      -4.513   7.143  50.506  1.00  0.00     0.178 HD
ATOM     25 1H13 UNL     1      -3.452   6.556  51.677  1.00  0.00     0.178 HD
ENDBRANCH  16  23
ENDBRANCH   7  10
ENDBRANCH   5   6
ENDBRANCH   1   5
BRANCH   3  26
HETATM   26  C8  UNL     1      -7.900   3.299  56.736  1.00  0.00     0.034 A 
HETATM   27  C9  UNL     1      -9.171   3.779  56.681  1.00  0.00     0.032 A 
HETATM   28  C10 UNL     1     -10.178   3.131  57.346  1.00  0.00     0.032 A 
HETATM   29  C11 UNL     1      -9.914   1.980  58.082  1.00  0.00     0.035 A 
HETATM   30  C15 UNL     1      -8.650   1.479  58.152  1.00  0.00     0.032 A 
HETATM   31  C16 UNL     1      -7.641   2.160  57.463  1.00  0.00     0.032 A 
BRANCH  29  32
HETATM   32  N6  UNL     1     -11.022   1.378  58.703  1.00  0.00    -0.322 N 
HETATM   33  C12 UNL     1     -11.418   1.682  60.008  1.00  0.00     0.277 C 
HETATM   34  O3  UNL     1     -10.828   2.510  60.712  1.00  0.00    -0.266 OA
ATOM     35  H6  UNL     1     -11.562   0.690  58.177  1.00  0.00     0.169 HD
BRANCH  33  36
HETATM   36  C13 UNL     1     -12.596   0.978  60.561  1.00  0.00     0.159 A 
HETATM   37  N7  UNL     1     -12.896   0.797  61.858  1.00  0.00    -0.274 N 
HETATM   38  N8  UNL     1     -14.035   0.125  61.935  1.00  0.00     0.002 NA
ATOM     39  H7  UNL     1     -12.340   1.121  62.649  1.00  0.00     0.184 HD
HETATM   40  N9  UNL     1     -14.502  -0.148  60.716  1.00  0.00    -0.170 N 
HETATM   41  C14 UNL     1     -13.614   0.379  59.851  1.00  0.00     0.187 A 
HETATM   42  N11 UNL     1     -13.709   0.318  58.434  1.00  0.00    -0.077 NA
BRANCH  40  43
HETATM   43  N10 UNL     1     -15.680  -0.843  60.437  1.00  0.00    -0.324 N 
ATOM     44 2H10 UNL     1     -16.643  -0.559  60.618  1.00  0.00     0.178 HD
ATOM     45 1H10 UNL     1     -15.735  -1.762  59.997  1.00  0.00     0.178 HD
ENDBRANCH  40  43
ENDBRANCH  33  36
ENDBRANCH  29  32
ENDBRANCH   3  26
TORSDOF 10
ENDMDL
MODEL 3
REMARK VINA RESULT: -7.534433857      1.629      2.297
REMARK  10 active torsions:
REMARK  status: ('A' for Active; 'I' for Inactive)
REMARK    1  A    between atoms: C2_2  and  N1_3 
REMARK    2  A    between atoms: C2_2  and  C3_7 
REMARK    3  A    between atoms: C4_12  and  N4_13 
REMARK       I    between atoms: N4_13  and  C5_15 
REMARK    4  A    between atoms: C5_15  and  C6_17 
REMARK    5  A    between atoms: C6_17  and  C7_18 
REMARK       I    between atoms: C7_18  and  N5_20 
REMARK    6  A    between atoms: N5_20  and  C8_22 
REMARK    7  A    between atoms: C11_25  and  N6_26 
REMARK       I    between atoms: N6_26  and  C12_28 
REMARK    8  A    between atoms: C12_28  and  C13_30 
REMARK    9  A    between atoms: N9_34  and  N10_35 
REMARK   10  A    between atoms: N12_42  and  N13_43 
ROOT
HETATM    1  C7  UNL     1      -6.859   4.020  54.807  1.00  0.00     0.231 C 
HETATM    2  O2  UNL     1      -7.714   3.643  53.988  1.00  0.00    -0.273 OA
HETATM    3  N5  UNL     1      -6.975   3.847  56.195  1.00  0.00    -0.327 N 
ATOM      4  H5  UNL     1      -6.221   4.205  56.782  1.00  0.00     0.169 HD
ENDROOT
BRANCH   1   5
HETATM    5  C6  UNL     1      -5.639   4.691  54.267  1.00  0.00     0.206 C 
BRANCH   5   6
HETATM    6  C5  UNL     1      -4.738   3.679  53.702  1.00  0.00     0.244 C 
HETATM    7  N4  UNL     1      -3.858   3.890  52.612  1.00  0.00    -0.156 N 
ATOM      8  H4  UNL     1      -2.867   4.045  52.794  1.00  0.00     0.187 HD
HETATM    9  O1  UNL     1      -4.757   2.520  54.247  1.00  0.00    -0.272 OA
BRANCH   7  10
HETATM   10  C4  UNL     1      -4.285   3.891  51.398  1.00  0.00     0.722 A 
HETATM   11  N3  UNL     1      -4.632   2.869  50.595  1.00  0.00    -0.129 N 
HETATM   12  N2  UNL     1      -5.026   3.350  49.406  1.00  0.00    -0.271 N 
ATOM     13  H3  UNL     1      -4.600   1.882  50.850  1.00  0.00     0.205 HD
HETATM   14  C3  UNL     1      -4.936   4.692  49.430  1.00  0.00     0.166 A 
ATOM     15  H2  UNL     1      -5.343   2.790  48.615  1.00  0.00     0.189 HD
HETATM   16  N12 UNL     1      -4.484   4.999  50.649  1.00  0.00    -0.075 N 
BRANCH  14  17
HETATM   17  C2  UNL     1      -5.296   5.558  48.276  1.00  0.00     0.250 C 
HETATM   18  C1  UNL     1      -5.011   4.920  46.940  1.00  0.00     0.048 C 
BRANCH  17  19
HETATM   19  N1  UNL     1      -4.583   6.815  48.309  1.00  0.00    -0.068 N 
ATOM     20  H13 UNL     1      -4.286   7.130  47.386  1.00  0.00     0.275 HD
ATOM     21  H12 UNL     1      -5.184   7.609  48.531  1.00  0.00     0.275 HD
ATOM     22  H11 UNL     1      -3.808   6.704  48.963  1.00  0.00     0.275 HD
ENDBRANCH  17  19
ENDBRANCH  14  17
BRANCH  16  23
HETATM   23  N13 UNL     1      -4.254   6.298  51.094  1.00  0.00    -0.323 N 
ATOM     24 2H13 UNL     1      -4.420   7.134  50.535  1.00  0.00     0.178 HD
ATOM     25 1H13 UNL     1      -3.893   6.532  52.019  1.00  0.00     0.178 HD
ENDBRANCH  16  23
ENDBRANCH   7  10
ENDBRANCH   5   6
ENDBRANCH   1   5
BRANCH   3  26
HETATM   26  C8  UNL     1      -8.077   3.204  56.847  1.00  0.00     0.034 A 
HETATM   27  C9  UNL     1      -8.029   1.970  57.417  1.00  0.00     0.032 A 
HETATM   28  C10 UNL     1      -9.151   1.434  57.988  1.00  0.00     0.032 A 
HETATM   29  C11 UNL     1     -10.350   2.143  57.993  1.00  0.00     0.035 A 
HETATM   30  C15 UNL     1     -10.425   3.379  57.430  1.00  0.00     0.032 A 
HETATM   31  C16 UNL     1      -9.261   3.903  56.854  1.00  0.00     0.032 A 
BRANCH  29  32
HETATM   32  N6  UNL     1     -11.434   1.513  58.629  1.00  0.00    -0.322 N 
HETATM   33  C12 UNL     1     -12.539   1.017  57.932  1.00  0.00     0.277 C 
HETATM   34  O3  UNL     1     -12.641   1.086  56.702  1.00  0.00    -0.266 OA
ATOM     35  H6  UNL     1     -11.414   1.415  59.645  1.00  0.00     0.169 HD
BRANCH  33  36
HETATM   36  C13 UNL     1     -13.626   0.382  58.710  1.00  0.00     0.159 A 
HETATM   37  N7  UNL     1     -14.689  -0.280  58.224  1.00  0.00    -0.274 N 
HETATM   38  N8  UNL     1     -15.424  -0.700  59.243  1.00  0.00     0.002 NA
ATOM     39  H7  UNL     1     -14.896  -0.433  57.237  1.00  0.00     0.184 HD
HETATM   40  N9  UNL     1     -14.873  -0.331  60.401  1.00  0.00    -0.170 N 
HETATM   41  C14 UNL     1     -13.752   0.344  60.082  1.00  0.00     0.187 A 
HETATM   42  N11 UNL     1     -12.851   0.930  61.012  1.00  0.00    -0.077 NA
BRANCH  40  43
HETATM   43  N10 UNL     1     -15.389  -0.610  61.667  1.00  0.00    -0.324 N 
ATOM     44 2H10 UNL     1     -16.345  -0.858  61.923  1.00  0.00     0.178 HD
ATOM     45 1H10 UNL     1     -14.857  -0.602  62.538  1.00  0.00     0.178 HD
ENDBRANCH  40  43
ENDBRANCH  33  36
ENDBRANCH  29  32
ENDBRANCH   3  26
TORSDOF 10
ENDMDL
MODEL 4
REMARK VINA RESULT: -7.340627208      1.575      2.260
REMARK  10 active torsions:
REMARK  status: ('A' for Active; 'I' for Inactive)
REMARK    1  A    between atoms: C2_2  and  N1_3 
REMARK    2  A    between atoms: C2_2  and  C3_7 
REMARK    3  A    between atoms: C4_12  and  N4_13 
REMARK       I    between atoms: N4_13  and  C5_15 
REMARK    4  A    between atoms: C5_15  and  C6_17 
REMARK    5  A    between atoms: C6_17  and  C7_18 
REMARK       I    between atoms: C7_18  and  N5_20 
REMARK    6  A    between atoms: N5_20  and  C8_22 
REMARK    7  A    between atoms: C11_25  and  N6_26 
REMARK       I    between atoms: N6_26  and  C12_28 
REMARK    8  A    between atoms: C12_28  and  C13_30 
REMARK    9  A    between atoms: N9_34  and  N10_35 
REMARK   10  A    between atoms: N12_42  and  N13_43 
ROOT
HETATM    1  C7  UNL     1      -7.055   4.372  55.155  1.00  0.00     0.231 C 
HETATM    2  O2  UNL     1      -7.880   4.094  54.268  1.00  0.00    -0.273 OA
HETATM    3  N5  UNL     1      -7.250   4.097  56.518  1.00  0.00    -0.327 N 
ATOM      4  H5  UNL     1      -6.516   4.378  57.168  1.00  0.00     0.169 HD
ENDROOT
BRANCH   1   5
HETATM    5  C6  UNL     1      -5.786   5.035  54.731  1.00  0.00     0.206 C 
BRANCH   5   6
HETATM    6  C5  UNL     1      -4.796   4.010  54.382  1.00  0.00     0.244 C 
HETATM    7  N4  UNL     1      -3.766   4.167  53.423  1.00  0.00    -0.156 N 
ATOM      8  H4  UNL     1      -2.815   4.360  53.738  1.00  0.00     0.187 HD
HETATM    9  O1  UNL     1      -4.879   2.892  55.002  1.00  0.00    -0.272 OA
BRANCH   7  10
HETATM   10  C4  UNL     1      -4.005   4.071  52.162  1.00  0.00     0.722 A 
HETATM   11  N3  UNL     1      -4.485   3.042  51.441  1.00  0.00    -0.129 N 
HETATM   12  N2  UNL     1      -4.575   3.404  50.152  1.00  0.00    -0.271 N 
ATOM     13  H3  UNL     1      -4.740   2.128  51.816  1.00  0.00     0.205 HD
HETATM   14  C3  UNL     1      -4.152   4.674  50.028  1.00  0.00     0.166 A 
ATOM     15  H2  UNL     1      -4.910   2.813  49.392  1.00  0.00     0.189 HD
HETATM   16  N12 UNL     1      -3.810   5.060  51.261  1.00  0.00    -0.075 N 
BRANCH  14  17
HETATM   17  C2  UNL     1      -4.116   5.404  48.732  1.00  0.00     0.250 C 
HETATM   18  C1  UNL     1      -4.573   6.837  48.844  1.00  0.00     0.048 C 
BRANCH  17  19
HETATM   19  N1  UNL     1      -4.948   4.767  47.738  1.00  0.00    -0.068 N 
ATOM     20  H13 UNL     1      -5.910   5.104  47.747  1.00  0.00     0.275 HD
ATOM     21  H12 UNL     1      -4.719   5.049  46.785  1.00  0.00     0.275 HD
ATOM     22  H11 UNL     1      -4.876   3.760  47.885  1.00  0.00     0.275 HD
ENDBRANCH  17  19
ENDBRANCH  14  17
BRANCH  16  23
HETATM   23  N13 UNL     1      -3.323   6.325  51.578  1.00  0.00    -0.323 N 
ATOM     24 2H13 UNL     1      -2.438   6.701  51.239  1.00  0.00     0.178 HD
ATOM     25 1H13 UNL     1      -3.804   6.990  52.184  1.00  0.00     0.178 HD
ENDBRANCH  16  23
ENDBRANCH   7  10
ENDBRANCH   5   6
ENDBRANCH   1   5
BRANCH   3  26
HETATM   26  C8  UNL     1      -8.406   3.449  57.061  1.00  0.00     0.034 A 
HETATM   27  C9  UNL     1      -9.638   4.017  57.166  1.00  0.00     0.032 A 
HETATM   28  C10 UNL     1     -10.670   3.318  57.732  1.00  0.00     0.032 A 
HETATM   29  C11 UNL     1     -10.473   2.023  58.203  1.00  0.00     0.035 A 
HETATM   30  C15 UNL     1      -9.251   1.431  58.109  1.00  0.00     0.032 A 
HETATM   31  C16 UNL     1      -8.214   2.169  57.526  1.00  0.00     0.032 A 
BRANCH  29  32
HETATM   32  N6  UNL     1     -11.605   1.384  58.740  1.00  0.00    -0.322 N 
HETATM   33  C12 UNL     1     -12.656   0.915  57.949  1.00  0.00     0.277 C 
HETATM   34  O3  UNL     1     -12.665   1.017  56.716  1.00  0.00    -0.266 OA
ATOM     35  H6  UNL     1     -11.661   1.258  59.751  1.00  0.00     0.169 HD
BRANCH  33  36
HETATM   36  C13 UNL     1     -13.802   0.267  58.625  1.00  0.00     0.159 A 
HETATM   37  N7  UNL     1     -14.802  -0.418  58.047  1.00  0.00    -0.274 N 
HETATM   38  N8  UNL     1     -15.624  -0.843  58.995  1.00  0.00     0.002 NA
ATOM     39  H7  UNL     1     -14.911  -0.583  57.046  1.00  0.00     0.184 HD
HETATM   40  N9  UNL     1     -15.193  -0.454  60.196  1.00  0.00    -0.170 N 
HETATM   41  C14 UNL     1     -14.059   0.238  59.979  1.00  0.00     0.187 A 
HETATM   42  N11 UNL     1     -13.260   0.848  60.985  1.00  0.00    -0.077 NA
BRANCH  40  43
HETATM   43  N10 UNL     1     -15.823  -0.731  61.411  1.00  0.00    -0.324 N 
ATOM     44 2H10 UNL     1     -16.820  -0.831  61.601  1.00  0.00     0.178 HD
ATOM     45 1H10 UNL     1     -15.350  -0.877  62.303  1.00  0.00     0.178 HD
ENDBRANCH  40  43
ENDBRANCH  33  36
ENDBRANCH  29  32
ENDBRANCH   3  26
TORSDOF 10
ENDMDL
MODEL 5
REMARK VINA RESULT: -7.332427632      0.633      1.173
REMARK  10 active torsions:
REMARK  status: ('A' for Active; 'I' for Inactive)
REMARK    1  A    between atoms: C2_2  and  N1_3 
REMARK    2  A    between atoms: C2_2  and  C3_7 
REMARK    3  A    between atoms: C4_12  and  N4_13 
REMARK       I    between atoms: N4_13  and  C5_15 
REMARK    4  A    between atoms: C5_15  and  C6_17 
REMARK    5  A    between atoms: C6_17  and  C7_18 
REMARK       I    between atoms: C7_18  and  N5_20 
REMARK    6  A    between atoms: N5_20  and  C8_22 
REMARK    7  A    between atoms: C11_25  and  N6_26 
REMARK       I    between atoms: N6_26  and  C12_28 
REMARK    8  A    between atoms: C12_28  and  C13_30 
REMARK    9  A    between atoms: N9_34  and  N10_35 
REMARK   10  A    between atoms: N12_42  and  N13_43 
ROOT
HETATM    1  C7  UNL     1      -6.717   5.858  55.065  1.00  0.00     0.231 C 
HETATM    2  O2  UNL     1      -7.654   6.203  54.325  1.00  0.00    -0.273 OA
HETATM    3  N5  UNL     1      -6.843   4.917  56.099  1.00  0.00    -0.327 N 
ATOM      4  H5  UNL     1      -6.015   4.714  56.658  1.00  0.00     0.169 HD
ENDROOT
BRANCH   1   5
HETATM    5  C6  UNL     1      -5.385   6.488  54.826  1.00  0.00     0.206 C 
BRANCH   5   6
HETATM    6  C5  UNL     1      -4.517   5.536  54.123  1.00  0.00     0.244 C 
HETATM    7  N4  UNL     1      -3.641   5.866  53.060  1.00  0.00    -0.156 N 
ATOM      8  H4  UNL     1      -2.645   5.971  53.248  1.00  0.00     0.187 HD
HETATM    9  O1  UNL     1      -4.562   4.317  54.513  1.00  0.00    -0.272 OA
BRANCH   7  10
HETATM   10  C4  UNL     1      -4.078   6.037  51.861  1.00  0.00     0.722 A 
HETATM   11  N3  UNL     1      -4.822   7.027  51.337  1.00  0.00    -0.129 N 
HETATM   12  N2  UNL     1      -5.030   6.785  50.034  1.00  0.00    -0.271 N 
ATOM     13  H3  UNL     1      -5.172   7.836  51.850  1.00  0.00     0.205 HD
HETATM   14  C3  UNL     1      -4.423   5.632  49.704  1.00  0.00     0.166 A 
ATOM     15  H2  UNL     1      -5.563   7.380  49.398  1.00  0.00     0.189 HD
HETATM   16  N12 UNL     1      -3.851   5.194  50.829  1.00  0.00    -0.075 N 
BRANCH  14  17
HETATM   17  C2  UNL     1      -4.447   5.056  48.332  1.00  0.00     0.250 C 
HETATM   18  C1  UNL     1      -4.977   6.012  47.294  1.00  0.00     0.048 C 
BRANCH  17  19
HETATM   19  N1  UNL     1      -5.260   3.864  48.269  1.00  0.00    -0.068 N 
ATOM     20  H13 UNL     1      -6.196   3.997  48.652  1.00  0.00     0.275 HD
ATOM     21  H12 UNL     1      -5.542   3.622  47.319  1.00  0.00     0.275 HD
ATOM     22  H11 UNL     1      -4.741   3.118  48.733  1.00  0.00     0.275 HD
ENDBRANCH  17  19
ENDBRANCH  14  17
BRANCH  16  23
HETATM   23  N13 UNL     1      -3.106   4.021  50.923  1.00  0.00    -0.323 N 
ATOM     24 2H13 UNL     1      -2.951   3.376  50.149  1.00  0.00     0.178 HD
ATOM     25 1H13 UNL     1      -2.652   3.697  51.777  1.00  0.00     0.178 HD
ENDBRANCH  16  23
ENDBRANCH   7  10
ENDBRANCH   5   6
ENDBRANCH   1   5
BRANCH   3  26
HETATM   26  C8  UNL     1      -8.052   4.221  56.425  1.00  0.00     0.034 A 
HETATM   27  C9  UNL     1      -8.713   3.378  55.587  1.00  0.00     0.032 A 
HETATM   28  C10 UNL     1      -9.880   2.787  55.989  1.00  0.00     0.032 A 
HETATM   29  C11 UNL     1     -10.403   3.040  57.254  1.00  0.00     0.035 A 
HETATM   30  C15 UNL     1      -9.761   3.879  58.112  1.00  0.00     0.032 A 
HETATM   31  C16 UNL     1      -8.569   4.469  57.675  1.00  0.00     0.032 A 
BRANCH  29  32
HETATM   32  N6  UNL     1     -11.591   2.361  57.576  1.00  0.00    -0.322 N 
HETATM   33  C12 UNL     1     -11.619   1.229  58.396  1.00  0.00     0.277 C 
HETATM   34  O3  UNL     1     -10.601   0.747  58.907  1.00  0.00    -0.266 OA
ATOM     35  H6  UNL     1     -12.471   2.709  57.195  1.00  0.00     0.169 HD
BRANCH  33  36
HETATM   36  C13 UNL     1     -12.928   0.591  58.658  1.00  0.00     0.159 A 
HETATM   37  N7  UNL     1     -13.770   0.070  57.751  1.00  0.00    -0.274 N 
HETATM   38  N8  UNL     1     -14.828  -0.410  58.388  1.00  0.00     0.002 NA
ATOM     39  H7  UNL     1     -13.621   0.047  56.743  1.00  0.00     0.184 HD
HETATM   40  N9  UNL     1     -14.710  -0.219  59.703  1.00  0.00    -0.170 N 
HETATM   41  C14 UNL     1     -13.530   0.404  59.884  1.00  0.00     0.187 A 
HETATM   42  N11 UNL     1     -12.997   0.811  61.137  1.00  0.00    -0.077 NA
BRANCH  40  43
HETATM   43  N10 UNL     1     -15.646  -0.603  60.664  1.00  0.00    -0.324 N 
ATOM     44 2H10 UNL     1     -15.526  -1.245  61.448  1.00  0.00     0.178 HD
ATOM     45 1H10 UNL     1     -16.613  -0.279  60.711  1.00  0.00     0.178 HD
ENDBRANCH  40  43
ENDBRANCH  33  36
ENDBRANCH  29  32
ENDBRANCH   3  26
TORSDOF 10
ENDMDL
