MODEL 1
REMARK VINA RESULT: -8.457105966      0.000      0.000
REMARK  10 active torsions:
REMARK  status: ('A' for Active; 'I' for Inactive)
REMARK    1  A    between atoms: C4_9  and  C5_10 
REMARK    2  A    between atoms: C5_10  and  O1_11 
REMARK    3  A    between atoms: C5_10  and  O2_13 
REMARK    4  A    between atoms: C6_15  and  S1_16 
REMARK    5  A    between atoms: S1_16  and  N3_19 
REMARK    6  A    between atoms: N3_19  and  C7_21 
REMARK    7  A    between atoms: C7_21  and  C8_22 
REMARK    8  A    between atoms: C8_22  and  C9_23 
REMARK    9  A    between atoms: C11_30  and  O5_31 
REMARK   10  A    between atoms: C14_35  and  O6_36 
ROOT
HETATM    1  C7  UNL     1      -4.207   2.518  53.627  1.00  0.00     0.137 C 
ENDROOT
BRANCH   1   2
HETATM    2  N3  UNL     1      -5.502   3.064  53.313  1.00  0.00    -0.315 N 
ATOM      3  H3  UNL     1      -6.050   2.769  52.504  1.00  0.00     0.172 HD
BRANCH   2   4
HETATM    4  S1  UNL     1      -6.040   4.259  54.427  1.00  0.00     0.263 S 
HETATM    5  O3  UNL     1      -4.832   4.612  55.305  1.00  0.00    -0.200 OA
HETATM    6  O4  UNL     1      -6.358   5.549  53.705  1.00  0.00    -0.200 OA
BRANCH   4   7
HETATM    7  C6  UNL     1      -7.394   3.711  55.354  1.00  0.00     0.134 A 
HETATM    8  C1  UNL     1      -7.236   2.860  56.449  1.00  0.00     0.123 A 
HETATM    9  N1  UNL     1      -6.113   2.480  56.890  1.00  0.00    -0.384 N 
HETATM   10  N2  UNL     1      -8.370   2.430  57.094  1.00  0.00    -0.351 N 
ATOM     11  H12 UNL     1      -5.998   1.858  57.690  1.00  0.00     0.157 HD
ATOM     12  H11 UNL     1      -5.271   2.799  56.411  1.00  0.00     0.157 HD
HETATM   13  C2  UNL     1      -9.597   2.788  56.726  1.00  0.00     0.090 A 
ATOM     14  H2  UNL     1      -8.266   1.806  57.895  1.00  0.00     0.166 HD
HETATM   15  C3  UNL     1      -9.772   3.627  55.654  1.00  0.00     0.031 A 
HETATM   16  C4  UNL     1      -8.656   4.092  54.965  1.00  0.00     0.024 A 
BRANCH  16  17
HETATM   17  C5  UNL     1      -8.903   5.049  53.894  1.00  0.00     0.290 C 
BRANCH  17  18
HETATM   18  O1  UNL     1     -10.200   5.604  54.147  1.00  0.00    -0.367 OA
ATOM     19  H1  UNL     1     -10.055   6.508  54.399  1.00  0.00     0.213 HD
ENDBRANCH  17  18
BRANCH  17  20
HETATM   20  O2  UNL     1      -8.989   4.392  52.683  1.00  0.00    -0.367 OA
ATOM     21  H2  UNL     1      -8.586   4.914  52.000  1.00  0.00     0.213 HD
ENDBRANCH  17  20
ENDBRANCH  16  17
ENDBRANCH   4   7
ENDBRANCH   2   4
ENDBRANCH   1   2
BRANCH   1  22
HETATM   22  C8  UNL     1      -3.240   2.731  52.487  1.00  0.00     0.066 C 
BRANCH  22  23
HETATM   23  C9  UNL     1      -3.508   3.972  51.743  1.00  0.00     0.025 C 
HETATM   24  C10 UNL     1      -4.262   3.884  50.593  1.00  0.00     0.155 A 
HETATM   25  N4  UNL     1      -4.998   3.030  49.860  1.00  0.00    -0.268 N 
HETATM   26  N6  UNL     1      -4.532   4.926  49.632  1.00  0.00    -0.201 N 
HETATM   27  N5  UNL     1      -5.230   4.011  48.990  1.00  0.00    -0.231 N 
ATOM     28  H4  UNL     1      -5.265   2.048  49.937  1.00  0.00     0.190 HD
ATOM     29  H5  UNL     1      -5.765   4.044  48.123  1.00  0.00     0.209 HD
HETATM   30  C11 UNL     1      -4.133   6.220  49.606  1.00  0.00     0.173 C 
HETATM   31  C12 UNL     1      -3.307   6.832  50.518  1.00  0.00     0.021 C 
HETATM   32  C13 UNL     1      -2.706   6.344  51.656  1.00  0.00    -0.007 C 
HETATM   33  C17 UNL     1      -3.082   8.265  50.125  1.00  0.00     0.162 C 
HETATM   34  C14 UNL     1      -2.970   5.118  52.269  1.00  0.00     0.083 C 
HETATM   35  C15 UNL     1      -1.676   7.152  52.330  1.00  0.00     0.086 C 
HETATM   36  C16 UNL     1      -2.057   8.580  52.267  1.00  0.00     0.060 C 
HETATM   37  N7  UNL     1      -2.680   9.035  51.270  1.00  0.00    -0.398 N 
ATOM     38  H7  UNL     1      -2.919  10.026  51.278  1.00  0.00     0.158 HD
BRANCH  30  39
HETATM   39  O5  UNL     1      -4.635   6.950  48.538  1.00  0.00    -0.344 OA
ATOM     40  H5  UNL     1      -4.833   7.856  48.743  1.00  0.00     0.219 HD
ENDBRANCH  30  39
BRANCH  34  41
HETATM   41  O6  UNL     1      -2.617   5.123  53.598  1.00  0.00    -0.359 OA
ATOM     42  H6  UNL     1      -2.834   5.886  54.119  1.00  0.00     0.217 HD
ENDBRANCH  34  41
ENDBRANCH  22  23
ENDBRANCH   1  22
TORSDOF 10
ENDMDL
MODEL 2
REMARK VINA RESULT: -8.227606185      1.922      3.500
REMARK  10 active torsions:
REMARK  status: ('A' for Active; 'I' for Inactive)
REMARK    1  A    between atoms: C4_9  and  C5_10 
REMARK    2  A    between atoms: C5_10  and  O1_11 
REMARK    3  A    between atoms: C5_10  and  O2_13 
REMARK    4  A    between atoms: C6_15  and  S1_16 
REMARK    5  A    between atoms: S1_16  and  N3_19 
REMARK    6  A    between atoms: N3_19  and  C7_21 
REMARK    7  A    between atoms: C7_21  and  C8_22 
REMARK    8  A    between atoms: C8_22  and  C9_23 
REMARK    9  A    between atoms: C11_30  and  O5_31 
REMARK   10  A    between atoms: C14_35  and  O6_36 
ROOT
HETATM    1  C7  UNL     1      -4.105   8.003  53.041  1.00  0.00     0.137 C 
ENDROOT
BRANCH   1   2
HETATM    2  N3  UNL     1      -4.768   6.828  53.547  1.00  0.00    -0.315 N 
ATOM      3  H3  UNL     1      -4.303   5.925  53.647  1.00  0.00     0.172 HD
BRANCH   2   4
HETATM    4  S1  UNL     1      -6.415   7.088  53.969  1.00  0.00     0.263 S 
HETATM    5  O3  UNL     1      -6.441   8.317  54.888  1.00  0.00    -0.200 OA
HETATM    6  O4  UNL     1      -7.208   7.520  52.757  1.00  0.00    -0.200 OA
BRANCH   4   7
HETATM    7  C6  UNL     1      -7.117   5.692  54.712  1.00  0.00     0.134 A 
HETATM    8  C1  UNL     1      -6.496   5.039  55.778  1.00  0.00     0.123 A 
HETATM    9  N1  UNL     1      -5.429   5.442  56.326  1.00  0.00    -0.384 N 
HETATM   10  N2  UNL     1      -7.096   3.906  56.271  1.00  0.00    -0.351 N 
ATOM     11  H12 UNL     1      -4.976   4.964  57.106  1.00  0.00     0.157 HD
ATOM     12  H11 UNL     1      -4.983   6.282  55.960  1.00  0.00     0.157 HD
HETATM   13  C2  UNL     1      -8.230   3.412  55.783  1.00  0.00     0.090 A 
ATOM     14  H2  UNL     1      -6.650   3.420  57.050  1.00  0.00     0.166 HD
HETATM   15  C3  UNL     1      -8.856   4.042  54.737  1.00  0.00     0.031 A 
HETATM   16  C4  UNL     1      -8.292   5.194  54.200  1.00  0.00     0.024 A 
BRANCH  16  17
HETATM   17  C5  UNL     1      -9.049   5.865  53.152  1.00  0.00     0.290 C 
BRANCH  17  18
HETATM   18  O1  UNL     1     -10.398   5.948  53.627  1.00  0.00    -0.367 OA
ATOM     19  H1  UNL     1     -10.704   6.819  53.402  1.00  0.00     0.213 HD
ENDBRANCH  17  18
BRANCH  17  20
HETATM   20  O2  UNL     1      -9.083   5.081  52.016  1.00  0.00    -0.367 OA
ATOM     21  H2  UNL     1      -9.850   5.292  51.497  1.00  0.00     0.213 HD
ENDBRANCH  17  20
ENDBRANCH  16  17
ENDBRANCH   4   7
ENDBRANCH   2   4
ENDBRANCH   1   2
BRANCH   1  22
HETATM   22  C8  UNL     1      -3.202   7.657  51.881  1.00  0.00     0.066 C 
BRANCH  22  23
HETATM   23  C9  UNL     1      -3.480   6.321  51.328  1.00  0.00     0.025 C 
HETATM   24  C10 UNL     1      -4.282   6.239  50.212  1.00  0.00     0.155 A 
HETATM   25  N4  UNL     1      -4.902   6.989  49.283  1.00  0.00    -0.268 N 
HETATM   26  N6  UNL     1      -4.804   5.049  49.584  1.00  0.00    -0.201 N 
HETATM   27  N5  UNL     1      -5.369   5.874  48.726  1.00  0.00    -0.231 N 
ATOM     28  H4  UNL     1      -4.981   7.988  49.088  1.00  0.00     0.190 HD
ATOM     29  H5  UNL     1      -5.962   5.712  47.912  1.00  0.00     0.209 HD
HETATM   30  C11 UNL     1      -4.648   3.744  49.912  1.00  0.00     0.173 C 
HETATM   31  C12 UNL     1      -3.957   3.258  50.995  1.00  0.00     0.021 C 
HETATM   32  C13 UNL     1      -3.253   3.913  51.981  1.00  0.00    -0.007 C 
HETATM   33  C17 UNL     1      -4.039   1.757  51.024  1.00  0.00     0.162 C 
HETATM   34  C14 UNL     1      -2.908   5.265  51.989  1.00  0.00     0.083 C 
HETATM   35  C15 UNL     1      -2.800   3.161  53.163  1.00  0.00     0.086 C 
HETATM   36  C16 UNL     1      -2.375   1.806  52.747  1.00  0.00     0.060 C 
HETATM   37  N7  UNL     1      -2.951   1.218  51.793  1.00  0.00    -0.398 N 
ATOM     38  H7  UNL     1      -2.618   0.286  51.547  1.00  0.00     0.158 HD
BRANCH  30  39
HETATM   39  O5  UNL     1      -5.263   2.859  49.038  1.00  0.00    -0.344 OA
ATOM     40  H5  UNL     1      -4.668   2.251  48.615  1.00  0.00     0.219 HD
ENDBRANCH  30  39
BRANCH  34  41
HETATM   41  O6  UNL     1      -1.824   5.512  52.800  1.00  0.00    -0.359 OA
ATOM     42  H6  UNL     1      -1.064   4.950  52.720  1.00  0.00     0.217 HD
ENDBRANCH  34  41
ENDBRANCH  22  23
ENDBRANCH   1  22
TORSDOF 10
ENDMDL
MODEL 3
REMARK VINA RESULT: -7.942885415      0.947      1.053
REMARK  10 active torsions:
REMARK  status: ('A' for Active; 'I' for Inactive)
REMARK    1  A    between atoms: C4_9  and  C5_10 
REMARK    2  A    between atoms: C5_10  and  O1_11 
REMARK    3  A    between atoms: C5_10  and  O2_13 
REMARK    4  A    between atoms: C6_15  and  S1_16 
REMARK    5  A    between atoms: S1_16  and  N3_19 
REMARK    6  A    between atoms: N3_19  and  C7_21 
REMARK    7  A    between atoms: C7_21  and  C8_22 
REMARK    8  A    between atoms: C8_22  and  C9_23 
REMARK    9  A    between atoms: C11_30  and  O5_31 
REMARK   10  A    between atoms: C14_35  and  O6_36 
ROOT
HETATM    1  C7  UNL     1      -4.661   2.194  53.200  1.00  0.00     0.137 C 
ENDROOT
BRANCH   1   2
HETATM    2  N3  UNL     1      -4.687   2.700  54.549  1.00  0.00    -0.315 N 
ATOM      3  H3  UNL     1      -4.005   2.429  55.259  1.00  0.00     0.172 HD
BRANCH   2   4
HETATM    4  S1  UNL     1      -5.973   3.802  54.853  1.00  0.00     0.263 S 
HETATM    5  O3  UNL     1      -5.322   5.160  55.150  1.00  0.00    -0.200 OA
HETATM    6  O4  UNL     1      -6.769   4.044  53.592  1.00  0.00    -0.200 OA
BRANCH   4   7
HETATM    7  C6  UNL     1      -6.992   3.261  56.142  1.00  0.00     0.134 A 
HETATM    8  C1  UNL     1      -6.486   3.007  57.419  1.00  0.00     0.123 A 
HETATM    9  N1  UNL     1      -5.283   3.211  57.754  1.00  0.00    -0.384 N 
HETATM   10  N2  UNL     1      -7.356   2.528  58.368  1.00  0.00    -0.351 N 
ATOM     11  H12 UNL     1      -4.914   3.026  58.687  1.00  0.00     0.157 HD
ATOM     12  H11 UNL     1      -4.637   3.567  57.050  1.00  0.00     0.157 HD
HETATM   13  C2  UNL     1      -8.644   2.301  58.126  1.00  0.00     0.090 A 
ATOM     14  H2  UNL     1      -6.997   2.338  59.303  1.00  0.00     0.166 HD
HETATM   15  C3  UNL     1      -9.159   2.548  56.878  1.00  0.00     0.031 A 
HETATM   16  C4  UNL     1      -8.322   3.035  55.880  1.00  0.00     0.024 A 
BRANCH  16  17
HETATM   17  C5  UNL     1      -8.947   3.360  54.605  1.00  0.00     0.290 C 
BRANCH  17  18
HETATM   18  O1  UNL     1      -9.734   4.534  54.836  1.00  0.00    -0.367 OA
ATOM     19  H1  UNL     1     -10.045   4.815  53.984  1.00  0.00     0.213 HD
ENDBRANCH  17  18
BRANCH  17  20
HETATM   20  O2  UNL     1      -9.830   2.363  54.242  1.00  0.00    -0.367 OA
ATOM     21  H2  UNL     1     -10.637   2.744  53.917  1.00  0.00     0.213 HD
ENDBRANCH  17  20
ENDBRANCH  16  17
ENDBRANCH   4   7
ENDBRANCH   2   4
ENDBRANCH   1   2
BRANCH   1  22
HETATM   22  C8  UNL     1      -3.426   2.665  52.471  1.00  0.00     0.066 C 
BRANCH  22  23
HETATM   23  C9  UNL     1      -3.644   3.926  51.744  1.00  0.00     0.025 C 
HETATM   24  C10 UNL     1      -4.343   3.874  50.558  1.00  0.00     0.155 A 
HETATM   25  N4  UNL     1      -5.054   3.047  49.771  1.00  0.00    -0.268 N 
HETATM   26  N6  UNL     1      -4.555   4.941  49.611  1.00  0.00    -0.201 N 
HETATM   27  N5  UNL     1      -5.232   4.050  48.915  1.00  0.00    -0.231 N 
ATOM     28  H4  UNL     1      -5.335   2.067  49.812  1.00  0.00     0.190 HD
ATOM     29  H5  UNL     1      -5.725   4.110  48.024  1.00  0.00     0.209 HD
HETATM   30  C11 UNL     1      -4.141   6.231  49.634  1.00  0.00     0.173 C 
HETATM   31  C12 UNL     1      -3.353   6.811  50.598  1.00  0.00     0.021 C 
HETATM   32  C13 UNL     1      -2.812   6.289  51.752  1.00  0.00    -0.007 C 
HETATM   33  C17 UNL     1      -3.093   8.250  50.251  1.00  0.00     0.162 C 
HETATM   34  C14 UNL     1      -3.119   5.052  52.322  1.00  0.00     0.083 C 
HETATM   35  C15 UNL     1      -1.806   7.069  52.493  1.00  0.00     0.086 C 
HETATM   36  C16 UNL     1      -2.167   8.502  52.446  1.00  0.00     0.060 C 
HETATM   37  N7  UNL     1      -2.737   8.987  51.432  1.00  0.00    -0.398 N 
ATOM     38  H7  UNL     1      -2.965   9.982  51.452  1.00  0.00     0.158 HD
BRANCH  30  39
HETATM   39  O5  UNL     1      -4.583   6.991  48.561  1.00  0.00    -0.344 OA
ATOM     40  H5  UNL     1      -5.225   7.654  48.791  1.00  0.00     0.219 HD
ENDBRANCH  30  39
BRANCH  34  41
HETATM   41  O6  UNL     1      -2.829   5.022  53.666  1.00  0.00    -0.359 OA
ATOM     42  H6  UNL     1      -3.447   5.416  54.270  1.00  0.00     0.217 HD
ENDBRANCH  34  41
ENDBRANCH  22  23
ENDBRANCH   1  22
TORSDOF 10
ENDMDL
MODEL 4
REMARK VINA RESULT: -7.934635694      4.978     10.863
REMARK  10 active torsions:
REMARK  status: ('A' for Active; 'I' for Inactive)
REMARK    1  A    between atoms: C4_9  and  C5_10 
REMARK    2  A    between atoms: C5_10  and  O1_11 
REMARK    3  A    between atoms: C5_10  and  O2_13 
REMARK    4  A    between atoms: C6_15  and  S1_16 
REMARK    5  A    between atoms: S1_16  and  N3_19 
REMARK    6  A    between atoms: N3_19  and  C7_21 
REMARK    7  A    between atoms: C7_21  and  C8_22 
REMARK    8  A    between atoms: C8_22  and  C9_23 
REMARK    9  A    between atoms: C11_30  and  O5_31 
REMARK   10  A    between atoms: C14_35  and  O6_36 
ROOT
HETATM    1  C7  UNL     1     -10.983   3.072  57.470  1.00  0.00     0.137 C 
ENDROOT
BRANCH   1   2
HETATM    2  N3  UNL     1      -9.759   3.811  57.296  1.00  0.00    -0.315 N 
ATOM      3  H3  UNL     1      -9.441   4.525  57.952  1.00  0.00     0.172 HD
BRANCH   2   4
HETATM    4  S1  UNL     1      -8.881   3.379  55.881  1.00  0.00     0.263 S 
HETATM    5  O3  UNL     1      -8.055   2.137  56.243  1.00  0.00    -0.200 OA
HETATM    6  O4  UNL     1      -9.823   2.892  54.804  1.00  0.00    -0.200 OA
BRANCH   4   7
HETATM    7  C6  UNL     1      -7.899   4.683  55.310  1.00  0.00     0.134 A 
HETATM    8  C1  UNL     1      -6.729   5.063  55.970  1.00  0.00     0.123 A 
HETATM    9  N1  UNL     1      -6.260   4.458  56.978  1.00  0.00    -0.384 N 
HETATM   10  N2  UNL     1      -6.039   6.145  55.479  1.00  0.00    -0.351 N 
ATOM     11  H12 UNL     1      -5.405   4.735  57.460  1.00  0.00     0.157 HD
ATOM     12  H11 UNL     1      -6.772   3.655  57.343  1.00  0.00     0.157 HD
HETATM   13  C2  UNL     1      -6.433   6.836  54.414  1.00  0.00     0.090 A 
ATOM     14  H2  UNL     1      -5.184   6.432  55.955  1.00  0.00     0.166 HD
HETATM   15  C3  UNL     1      -7.579   6.475  53.749  1.00  0.00     0.031 A 
HETATM   16  C4  UNL     1      -8.314   5.386  54.205  1.00  0.00     0.024 A 
BRANCH  16  17
HETATM   17  C5  UNL     1      -9.470   5.000  53.406  1.00  0.00     0.290 C 
BRANCH  17  18
HETATM   18  O1  UNL     1      -9.073   5.142  52.037  1.00  0.00    -0.367 OA
ATOM     19  H1  UNL     1      -9.056   6.075  51.862  1.00  0.00     0.213 HD
ENDBRANCH  17  18
BRANCH  17  20
HETATM   20  O2  UNL     1     -10.505   5.892  53.607  1.00  0.00    -0.367 OA
ATOM     21  H2  UNL     1     -11.285   5.593  53.155  1.00  0.00     0.213 HD
ENDBRANCH  17  20
ENDBRANCH  16  17
ENDBRANCH   4   7
ENDBRANCH   2   4
ENDBRANCH   1   2
BRANCH   1  22
HETATM   22  C8  UNL     1     -10.717   1.733  58.116  1.00  0.00     0.066 C 
BRANCH  22  23
HETATM   23  C9  UNL     1     -11.954   1.045  58.520  1.00  0.00     0.025 C 
HETATM   24  C10 UNL     1     -12.890   0.774  57.546  1.00  0.00     0.155 A 
HETATM   25  N4  UNL     1     -13.094   0.820  56.217  1.00  0.00    -0.268 N 
HETATM   26  N6  UNL     1     -14.221   0.246  57.722  1.00  0.00    -0.201 N 
HETATM   27  N5  UNL     1     -14.317   0.332  56.411  1.00  0.00    -0.231 N 
ATOM     28  H4  UNL     1     -12.545   1.106  55.406  1.00  0.00     0.190 HD
ATOM     29  H5  UNL     1     -15.072   0.102  55.764  1.00  0.00     0.209 HD
HETATM   30  C11 UNL     1     -14.881  -0.113  58.850  1.00  0.00     0.173 C 
HETATM   31  C12 UNL     1     -14.407  -0.002  60.134  1.00  0.00     0.021 C 
HETATM   32  C13 UNL     1     -13.200   0.454  60.612  1.00  0.00    -0.007 C 
HETATM   33  C17 UNL     1     -15.448  -0.483  61.107  1.00  0.00     0.162 C 
HETATM   34  C14 UNL     1     -12.064   0.737  59.851  1.00  0.00     0.083 C 
HETATM   35  C15 UNL     1     -13.038   0.685  62.057  1.00  0.00     0.086 C 
HETATM   36  C16 UNL     1     -13.762  -0.365  62.805  1.00  0.00     0.060 C 
HETATM   37  N7  UNL     1     -14.829  -0.858  62.349  1.00  0.00    -0.398 N 
ATOM     38  H7  UNL     1     -15.288  -1.580  62.904  1.00  0.00     0.158 HD
BRANCH  30  39
HETATM   39  O5  UNL     1     -16.146  -0.635  58.628  1.00  0.00    -0.344 OA
ATOM     40  H5  UNL     1     -16.736  -0.559  59.369  1.00  0.00     0.219 HD
ENDBRANCH  30  39
BRANCH  34  41
HETATM   41  O6  UNL     1     -10.915   0.682  60.606  1.00  0.00    -0.359 OA
ATOM     42  H6  UNL     1     -10.397   1.473  60.696  1.00  0.00     0.217 HD
ENDBRANCH  34  41
ENDBRANCH  22  23
ENDBRANCH   1  22
TORSDOF 10
ENDMDL
MODEL 5
REMARK VINA RESULT: -7.922414189      1.756      2.738
REMARK  10 active torsions:
REMARK  status: ('A' for Active; 'I' for Inactive)
REMARK    1  A    between atoms: C4_9  and  C5_10 
REMARK    2  A    between atoms: C5_10  and  O1_11 
REMARK    3  A    between atoms: C5_10  and  O2_13 
REMARK    4  A    between atoms: C6_15  and  S1_16 
REMARK    5  A    between atoms: S1_16  and  N3_19 
REMARK    6  A    between atoms: N3_19  and  C7_21 
REMARK    7  A    between atoms: C7_21  and  C8_22 
REMARK    8  A    between atoms: C8_22  and  C9_23 
REMARK    9  A    between atoms: C11_30  and  O5_31 
REMARK   10  A    between atoms: C14_35  and  O6_36 
ROOT
HETATM    1  C7  UNL     1      -4.691   2.428  53.906  1.00  0.00     0.137 C 
ENDROOT
BRANCH   1   2
HETATM    2  N3  UNL     1      -5.797   3.265  53.516  1.00  0.00    -0.315 N 
ATOM      3  H3  UNL     1      -6.337   3.115  52.663  1.00  0.00     0.172 HD
BRANCH   2   4
HETATM    4  S1  UNL     1      -6.125   4.541  54.623  1.00  0.00     0.263 S 
HETATM    5  O3  UNL     1      -4.826   4.783  55.406  1.00  0.00    -0.200 OA
HETATM    6  O4  UNL     1      -6.353   5.838  53.882  1.00  0.00    -0.200 OA
BRANCH   4   7
HETATM    7  C6  UNL     1      -7.460   4.168  55.658  1.00  0.00     0.134 A 
HETATM    8  C1  UNL     1      -7.277   3.557  56.900  1.00  0.00     0.123 A 
HETATM    9  N1  UNL     1      -6.142   3.293  57.395  1.00  0.00    -0.384 N 
HETATM   10  N2  UNL     1      -8.397   3.247  57.632  1.00  0.00    -0.351 N 
ATOM     11  H12 UNL     1      -6.009   2.847  58.303  1.00  0.00     0.157 HD
ATOM     12  H11 UNL     1      -5.311   3.523  56.851  1.00  0.00     0.157 HD
HETATM   13  C2  UNL     1      -9.633   3.503  57.214  1.00  0.00     0.090 A 
ATOM     14  H2  UNL     1      -8.274   2.799  58.540  1.00  0.00     0.166 HD
HETATM   15  C3  UNL     1      -9.833   4.106  55.997  1.00  0.00     0.031 A 
HETATM   16  C4  UNL     1      -8.732   4.441  55.216  1.00  0.00     0.024 A 
BRANCH  16  17
HETATM   17  C5  UNL     1      -9.006   5.158  53.977  1.00  0.00     0.290 C 
BRANCH  17  18
HETATM   18  O1  UNL     1     -10.369   5.592  54.061  1.00  0.00    -0.367 OA
ATOM     19  H1  UNL     1     -10.477   6.254  53.389  1.00  0.00     0.213 HD
ENDBRANCH  17  18
BRANCH  17  20
HETATM   20  O2  UNL     1      -8.937   4.293  52.903  1.00  0.00    -0.367 OA
ATOM     21  H2  UNL     1      -8.176   3.730  52.987  1.00  0.00     0.213 HD
ENDBRANCH  17  20
ENDBRANCH  16  17
ENDBRANCH   4   7
ENDBRANCH   2   4
ENDBRANCH   1   2
BRANCH   1  22
HETATM   22  C8  UNL     1      -3.651   2.364  52.813  1.00  0.00     0.066 C 
BRANCH  22  23
HETATM   23  C9  UNL     1      -3.485   3.650  52.116  1.00  0.00     0.025 C 
HETATM   24  C10 UNL     1      -2.793   4.650  52.763  1.00  0.00     0.155 A 
HETATM   25  N4  UNL     1      -2.058   4.904  53.862  1.00  0.00    -0.268 N 
HETATM   26  N6  UNL     1      -2.627   6.021  52.348  1.00  0.00    -0.201 N 
HETATM   27  N5  UNL     1      -1.923   6.163  53.452  1.00  0.00    -0.231 N 
ATOM     28  H4  UNL     1      -1.741   4.362  54.666  1.00  0.00     0.190 HD
ATOM     29  H5  UNL     1      -1.439   6.965  53.856  1.00  0.00     0.209 HD
HETATM   30  C11 UNL     1      -3.088   6.667  51.250  1.00  0.00     0.173 C 
HETATM   31  C12 UNL     1      -3.890   6.131  50.272  1.00  0.00     0.021 C 
HETATM   32  C13 UNL     1      -4.403   4.862  50.125  1.00  0.00    -0.007 C 
HETATM   33  C17 UNL     1      -4.204   7.175  49.237  1.00  0.00     0.162 C 
HETATM   34  C14 UNL     1      -4.046   3.735  50.868  1.00  0.00     0.083 C 
HETATM   35  C15 UNL     1      -5.430   4.615  49.099  1.00  0.00     0.086 C 
HETATM   36  C16 UNL     1      -5.123   5.416  47.895  1.00  0.00     0.060 C 
HETATM   37  N7  UNL     1      -4.578   6.547  47.999  1.00  0.00    -0.398 N 
ATOM     38  H7  UNL     1      -4.387   7.058  47.137  1.00  0.00     0.158 HD
BRANCH  30  39
HETATM   39  O5  UNL     1      -2.682   7.990  51.154  1.00  0.00    -0.344 OA
ATOM     40  H5  UNL     1      -2.734   8.352  50.277  1.00  0.00     0.219 HD
ENDBRANCH  30  39
BRANCH  34  41
HETATM   41  O6  UNL     1      -4.325   2.569  50.196  1.00  0.00    -0.359 OA
ATOM     42  H6  UNL     1      -3.599   2.020  49.926  1.00  0.00     0.217 HD
ENDBRANCH  34  41
ENDBRANCH  22  23
ENDBRANCH   1  22
TORSDOF 10
ENDMDL
