MODEL 1
REMARK VINA RESULT: -7.627434383      0.000      0.000
REMARK  8 active torsions:
REMARK  status: ('A' for Active; 'I' for Inactive)
REMARK    1  A    between atoms: C2_5  and  N3_6 
REMARK    2  A    between atoms: C3_8  and  C4_9 
REMARK    3  A    between atoms: C4_9  and  N5_12 
REMARK       I    between atoms: N5_12  and  C6_14 
REMARK    4  A    between atoms: C6_14  and  C7_16 
REMARK    5  A    between atoms: C9_18  and  C10_19 
REMARK    6  A    between atoms: C10_19  and  O2_20 
REMARK    7  A    between atoms: C13_26  and  N7_27 
REMARK    8  A    between atoms: C17_37  and  N10_38 
REMARK       I    between atoms: N10_38  and  C18_40 
REMARK       I    between atoms: C18_40  and  N11_41 
REMARK       I    between atoms: C18_40  and  N12_45 
ROOT
HETATM    1  C4  UNL     1      -9.070   4.013  53.874  1.00  0.00     0.230 C 
HETATM    2  C5  UNL     1      -9.879   5.236  53.815  1.00  0.00     0.090 C 
HETATM    3  N4  UNL     1     -10.519   6.201  53.789  1.00  0.00    -0.195 NA
ENDROOT
BRANCH   1   4
HETATM    4  C3  UNL     1      -9.273   3.382  55.203  1.00  0.00     0.102 C 
HETATM    5  N3  UNL     1      -9.905   3.995  56.148  1.00  0.00    -0.352 N 
ATOM      6  H3  UNL     1     -10.263   4.931  55.957  1.00  0.00     0.166 HD
BRANCH   5   7
HETATM    7  C2  UNL     1     -10.128   3.451  57.424  1.00  0.00     0.119 A 
HETATM    8  N2  UNL     1     -10.958   2.376  57.566  1.00  0.00    -0.282 N 
HETATM    9  N1  UNL     1     -11.200   1.827  58.744  1.00  0.00    -0.280 N 
ATOM     10  H2  UNL     1     -11.405   1.983  56.737  1.00  0.00     0.189 HD
HETATM   11  C1  UNL     1     -12.087   0.684  58.868  1.00  0.00     0.179 C 
HETATM   12  C17 UNL     1     -10.601   2.357  59.825  1.00  0.00     0.120 A 
HETATM   13  C16 UNL     1      -9.750   3.441  59.757  1.00  0.00     0.053 A 
HETATM   14  C15 UNL     1      -9.506   4.006  58.524  1.00  0.00     0.053 A 
BRANCH  12  15
HETATM   15  N10 UNL     1     -10.823   1.834  60.995  1.00  0.00    -0.326 N 
HETATM   16  C18 UNL     1      -9.798   1.250  61.802  1.00  0.00     0.481 C 
HETATM   17  N11 UNL     1      -9.373  -0.047  61.319  1.00  0.00    -0.033 N 
HETATM   18  N12 UNL     1     -10.321   1.084  63.145  1.00  0.00    -0.033 N 
ATOM     19 3H11 UNL     1     -10.168  -0.680  61.224  1.00  0.00     0.278 HD
ATOM     20 2H11 UNL     1      -9.084   0.004  60.342  1.00  0.00     0.278 HD
ATOM     21 1H11 UNL     1      -8.641  -0.464  61.894  1.00  0.00     0.278 HD
ATOM     22 3H12 UNL     1     -10.683   1.953  63.536  1.00  0.00     0.278 HD
ATOM     23 2H12 UNL     1     -11.191   0.551  63.166  1.00  0.00     0.278 HD
ATOM     24 1H12 UNL     1      -9.589   0.668  63.720  1.00  0.00     0.278 HD
ATOM     25  H10 UNL     1     -11.777   1.840  61.355  1.00  0.00     0.164 HD
ENDBRANCH  12  15
ENDBRANCH   5   7
ENDBRANCH   1   4
BRANCH   1  26
HETATM   26  N5  UNL     1      -7.667   4.298  53.630  1.00  0.00    -0.338 N 
HETATM   27  C6  UNL     1      -6.805   4.687  54.671  1.00  0.00     0.242 C 
HETATM   28  O1  UNL     1      -7.233   4.795  55.836  1.00  0.00    -0.271 OA
ATOM     29  H5  UNL     1      -7.299   4.215  52.683  1.00  0.00     0.164 HD
BRANCH  27  30
HETATM   30  C7  UNL     1      -5.382   4.973  54.405  1.00  0.00     0.190 C 
HETATM   31  C8  UNL     1      -5.339   6.307  53.671  1.00  0.00     0.062 C 
HETATM   32  C9  UNL     1      -3.880   6.661  53.451  1.00  0.00     0.109 C 
HETATM   33  N6  UNL     1      -3.369   5.684  52.510  1.00  0.00    -0.369 N 
HETATM   34  C11 UNL     1      -3.807   4.335  52.702  1.00  0.00     0.112 A 
ATOM     35  H6  UNL     1      -2.734   5.942  51.754  1.00  0.00     0.161 HD
HETATM   36  C12 UNL     1      -3.190   3.366  51.902  1.00  0.00     0.096 A 
HETATM   37  N9  UNL     1      -4.753   3.984  53.589  1.00  0.00    -0.271 N 
HETATM   38  C13 UNL     1      -3.547   2.038  52.017  1.00  0.00     0.106 A 
HETATM   39  N8  UNL     1      -4.498   1.744  52.921  1.00  0.00    -0.295 N 
HETATM   40  C14 UNL     1      -5.091   2.680  53.691  1.00  0.00     0.330 A 
ATOM     41  H8  UNL     1      -4.784   0.771  53.029  1.00  0.00     0.172 HD
HETATM   42  O3  UNL     1      -5.984   2.283  54.516  1.00  0.00    -0.246 OA
BRANCH  32  43
HETATM   43  C10 UNL     1      -3.743   8.053  52.900  1.00  0.00     0.189 C 
BRANCH  43  44
HETATM   44  O2  UNL     1      -4.579   8.195  51.801  1.00  0.00    -0.399 OA
ATOM     45  H2  UNL     1      -4.358   8.996  51.341  1.00  0.00     0.209 HD
ENDBRANCH  43  44
ENDBRANCH  32  43
BRANCH  38  46
HETATM   46  N7  UNL     1      -3.021   1.091  51.315  1.00  0.00    -0.385 N 
ATOM     47  H72 UNL     1      -2.234   0.563  51.691  1.00  0.00     0.157 HD
ATOM     48  H71 UNL     1      -3.346   0.829  50.384  1.00  0.00     0.157 HD
ENDBRANCH  38  46
ENDBRANCH  27  30
ENDBRANCH   1  26
TORSDOF 8
ENDMDL
MODEL 2
REMARK VINA RESULT: -7.589773912      4.004     10.519
REMARK  8 active torsions:
REMARK  status: ('A' for Active; 'I' for Inactive)
REMARK    1  A    between atoms: C2_5  and  N3_6 
REMARK    2  A    between atoms: C3_8  and  C4_9 
REMARK    3  A    between atoms: C4_9  and  N5_12 
REMARK       I    between atoms: N5_12  and  C6_14 
REMARK    4  A    between atoms: C6_14  and  C7_16 
REMARK    5  A    between atoms: C9_18  and  C10_19 
REMARK    6  A    between atoms: C10_19  and  O2_20 
REMARK    7  A    between atoms: C13_26  and  N7_27 
REMARK    8  A    between atoms: C17_37  and  N10_38 
REMARK       I    between atoms: N10_38  and  C18_40 
REMARK       I    between atoms: C18_40  and  N11_41 
REMARK       I    between atoms: C18_40  and  N12_45 
ROOT
HETATM    1  C4  UNL     1      -8.949   1.746  58.124  1.00  0.00     0.230 C 
HETATM    2  C5  UNL     1      -7.727   1.767  58.936  1.00  0.00     0.090 C 
HETATM    3  N4  UNL     1      -6.759   1.802  59.570  1.00  0.00    -0.195 NA
ENDROOT
BRANCH   1   4
HETATM    4  C3  UNL     1      -8.807   2.752  57.040  1.00  0.00     0.102 C 
HETATM    5  N3  UNL     1      -7.782   3.536  56.982  1.00  0.00    -0.352 N 
ATOM      6  H3  UNL     1      -7.068   3.447  57.705  1.00  0.00     0.166 HD
BRANCH   5   7
HETATM    7  C2  UNL     1      -7.592   4.506  55.983  1.00  0.00     0.119 A 
HETATM    8  N2  UNL     1      -8.459   4.573  54.931  1.00  0.00    -0.282 N 
HETATM    9  N1  UNL     1      -8.323   5.467  53.966  1.00  0.00    -0.280 N 
ATOM     10  H2  UNL     1      -9.236   3.913  54.887  1.00  0.00     0.189 HD
HETATM   11  C1  UNL     1      -9.260   5.517  52.857  1.00  0.00     0.179 C 
HETATM   12  C17 UNL     1      -7.294   6.329  54.041  1.00  0.00     0.120 A 
HETATM   13  C16 UNL     1      -6.380   6.320  55.075  1.00  0.00     0.053 A 
HETATM   14  C15 UNL     1      -6.531   5.384  56.074  1.00  0.00     0.053 A 
BRANCH  12  15
HETATM   15  N10 UNL     1      -7.140   7.218  53.104  1.00  0.00    -0.326 N 
HETATM   16  C18 UNL     1      -5.994   7.272  52.252  1.00  0.00     0.481 C 
HETATM   17  N11 UNL     1      -4.821   7.795  52.920  1.00  0.00    -0.033 N 
HETATM   18  N12 UNL     1      -6.304   8.142  51.134  1.00  0.00    -0.033 N 
ATOM     19 3H11 UNL     1      -5.012   8.708  53.333  1.00  0.00     0.278 HD
ATOM     20 2H11 UNL     1      -4.619   7.268  53.770  1.00  0.00     0.278 HD
ATOM     21 1H11 UNL     1      -4.003   7.833  52.312  1.00  0.00     0.278 HD
ATOM     22 3H12 UNL     1      -7.150   7.861  50.639  1.00  0.00     0.278 HD
ATOM     23 2H12 UNL     1      -6.619   9.067  51.429  1.00  0.00     0.278 HD
ATOM     24 1H12 UNL     1      -5.486   8.180  50.526  1.00  0.00     0.278 HD
ATOM     25  H10 UNL     1      -7.875   7.913  52.971  1.00  0.00     0.164 HD
ENDBRANCH  12  15
ENDBRANCH   5   7
ENDBRANCH   1   4
BRANCH   1  26
HETATM   26  N5  UNL     1     -10.126   2.003  58.935  1.00  0.00    -0.338 N 
HETATM   27  C6  UNL     1     -10.742   0.981  59.678  1.00  0.00     0.242 C 
HETATM   28  O1  UNL     1     -10.285  -0.179  59.655  1.00  0.00    -0.271 OA
ATOM     29  H5  UNL     1     -10.514   2.945  58.966  1.00  0.00     0.164 HD
BRANCH  27  30
HETATM   30  C7  UNL     1     -11.937   1.259  60.497  1.00  0.00     0.190 C 
HETATM   31  C8  UNL     1     -11.645   0.714  61.889  1.00  0.00     0.062 C 
HETATM   32  C9  UNL     1     -12.831   1.054  62.772  1.00  0.00     0.109 C 
HETATM   33  N6  UNL     1     -13.941   0.267  62.272  1.00  0.00    -0.369 N 
HETATM   34  C11 UNL     1     -14.052   0.168  60.848  1.00  0.00     0.112 A 
ATOM     35  H6  UNL     1     -14.605  -0.190  62.898  1.00  0.00     0.161 HD
HETATM   36  C12 UNL     1     -15.210  -0.449  60.361  1.00  0.00     0.096 A 
HETATM   37  N9  UNL     1     -13.118   0.631  60.000  1.00  0.00    -0.271 N 
HETATM   38  C13 UNL     1     -15.405  -0.589  59.002  1.00  0.00     0.106 A 
HETATM   39  N8  UNL     1     -14.440  -0.108  58.201  1.00  0.00    -0.295 N 
HETATM   40  C14 UNL     1     -13.324   0.486  58.673  1.00  0.00     0.330 A 
ATOM     41  H8  UNL     1     -14.555  -0.197  57.191  1.00  0.00     0.172 HD
HETATM   42  O3  UNL     1     -12.473   0.905  57.815  1.00  0.00    -0.246 OA
BRANCH  32  43
HETATM   43  C10 UNL     1     -12.544   0.717  64.209  1.00  0.00     0.189 C 
BRANCH  43  44
HETATM   44  O2  UNL     1     -13.573  -0.068  64.710  1.00  0.00    -0.399 OA
ATOM     45  H2  UNL     1     -13.682   0.113  65.636  1.00  0.00     0.209 HD
ENDBRANCH  43  44
ENDBRANCH  32  43
BRANCH  38  46
HETATM   46  N7  UNL     1     -16.447  -1.145  58.482  1.00  0.00    -0.385 N 
ATOM     47  H72 UNL     1     -16.839  -1.983  58.912  1.00  0.00     0.157 HD
ATOM     48  H71 UNL     1     -16.918  -0.796  57.647  1.00  0.00     0.157 HD
ENDBRANCH  38  46
ENDBRANCH  27  30
ENDBRANCH   1  26
TORSDOF 8
ENDMDL
MODEL 3
REMARK VINA RESULT: -7.558006442      6.232     10.603
REMARK  8 active torsions:
REMARK  status: ('A' for Active; 'I' for Inactive)
REMARK    1  A    between atoms: C2_5  and  N3_6 
REMARK    2  A    between atoms: C3_8  and  C4_9 
REMARK    3  A    between atoms: C4_9  and  N5_12 
REMARK       I    between atoms: N5_12  and  C6_14 
REMARK    4  A    between atoms: C6_14  and  C7_16 
REMARK    5  A    between atoms: C9_18  and  C10_19 
REMARK    6  A    between atoms: C10_19  and  O2_20 
REMARK    7  A    between atoms: C13_26  and  N7_27 
REMARK    8  A    between atoms: C17_37  and  N10_38 
REMARK       I    between atoms: N10_38  and  C18_40 
REMARK       I    between atoms: C18_40  and  N11_41 
REMARK       I    between atoms: C18_40  and  N12_45 
ROOT
HETATM    1  C4  UNL     1     -11.982   2.496  63.607  1.00  0.00     0.230 C 
HETATM    2  C5  UNL     1     -12.815   1.625  64.444  1.00  0.00     0.090 C 
HETATM    3  N4  UNL     1     -13.487   0.952  65.105  1.00  0.00    -0.195 NA
ENDROOT
BRANCH   1   4
HETATM    4  C3  UNL     1     -12.429   3.899  63.804  1.00  0.00     0.102 C 
HETATM    5  N3  UNL     1     -13.588   4.170  64.303  1.00  0.00    -0.352 N 
ATOM      6  H3  UNL     1     -14.194   3.391  64.561  1.00  0.00     0.166 HD
BRANCH   5   7
HETATM    7  C2  UNL     1     -14.066   5.475  64.513  1.00  0.00     0.119 A 
HETATM    8  N2  UNL     1     -14.392   5.882  65.775  1.00  0.00    -0.282 N 
HETATM    9  N1  UNL     1     -14.845   7.099  66.024  1.00  0.00    -0.280 N 
ATOM     10  H2  UNL     1     -14.282   5.228  66.550  1.00  0.00     0.189 HD
HETATM   11  C1  UNL     1     -15.184   7.508  67.376  1.00  0.00     0.179 C 
HETATM   12  C17 UNL     1     -14.983   7.948  64.990  1.00  0.00     0.120 A 
HETATM   13  C16 UNL     1     -14.673   7.606  63.690  1.00  0.00     0.053 A 
HETATM   14  C15 UNL     1     -14.202   6.335  63.442  1.00  0.00     0.053 A 
BRANCH  12  15
HETATM   15  N10 UNL     1     -15.426   9.151  65.211  1.00  0.00    -0.326 N 
HETATM   16  C18 UNL     1     -14.853  10.320  64.621  1.00  0.00     0.481 C 
HETATM   17  N11 UNL     1     -13.589  10.692  65.223  1.00  0.00    -0.033 N 
HETATM   18  N12 UNL     1     -15.781  11.419  64.804  1.00  0.00    -0.033 N 
ATOM     19 3H11 UNL     1     -13.684  10.801  66.233  1.00  0.00     0.278 HD
ATOM     20 2H11 UNL     1     -12.931   9.912  65.201  1.00  0.00     0.278 HD
ATOM     21 1H11 UNL     1     -13.180  11.526  64.802  1.00  0.00     0.278 HD
ATOM     22 3H12 UNL     1     -16.713  11.212  64.443  1.00  0.00     0.278 HD
ATOM     23 2H12 UNL     1     -16.041  11.558  65.781  1.00  0.00     0.278 HD
ATOM     24 1H12 UNL     1     -15.372  12.253  64.383  1.00  0.00     0.278 HD
ATOM     25  H10 UNL     1     -16.223   9.266  65.837  1.00  0.00     0.164 HD
ENDBRANCH  12  15
ENDBRANCH   5   7
ENDBRANCH   1   4
BRANCH   1  26
HETATM   26  N5  UNL     1     -12.051   2.107  62.210  1.00  0.00    -0.338 N 
HETATM   27  C6  UNL     1     -11.174   1.150  61.670  1.00  0.00     0.242 C 
HETATM   28  O1  UNL     1     -10.310   0.610  62.389  1.00  0.00    -0.271 OA
ATOM     29  H5  UNL     1     -12.751   2.539  61.607  1.00  0.00     0.164 HD
BRANCH  27  30
HETATM   30  C7  UNL     1     -11.258   0.768  60.248  1.00  0.00     0.190 C 
HETATM   31  C8  UNL     1     -10.943   2.022  59.443  1.00  0.00     0.062 C 
HETATM   32  C9  UNL     1     -10.950   1.638  57.975  1.00  0.00     0.109 C 
HETATM   33  N6  UNL     1     -12.324   1.306  57.655  1.00  0.00    -0.369 N 
HETATM   34  C11 UNL     1     -13.038   0.557  58.644  1.00  0.00     0.112 A 
ATOM     35  H6  UNL     1     -12.758   1.589  56.776  1.00  0.00     0.161 HD
HETATM   36  C12 UNL     1     -14.306   0.093  58.271  1.00  0.00     0.096 A 
HETATM   37  N9  UNL     1     -12.550   0.295  59.868  1.00  0.00    -0.271 N 
HETATM   38  C13 UNL     1     -15.068  -0.638  59.159  1.00  0.00     0.106 A 
HETATM   39  N8  UNL     1     -14.530  -0.871  60.368  1.00  0.00    -0.295 N 
HETATM   40  C14 UNL     1     -13.308  -0.423  60.725  1.00  0.00     0.330 A 
ATOM     41  H8  UNL     1     -15.070  -1.409  61.047  1.00  0.00     0.172 HD
HETATM   42  O3  UNL     1     -12.900  -0.705  61.903  1.00  0.00    -0.246 OA
BRANCH  32  43
HETATM   43  C10 UNL     1     -10.464   2.776  57.121  1.00  0.00     0.189 C 
BRANCH  43  44
HETATM   44  O2  UNL     1     -11.040   3.958  57.563  1.00  0.00    -0.399 OA
ATOM     45  H2  UNL     1     -10.367   4.624  57.644  1.00  0.00     0.209 HD
ENDBRANCH  43  44
ENDBRANCH  32  43
BRANCH  38  46
HETATM   46  N7  UNL     1     -16.242  -1.098  58.884  1.00  0.00    -0.385 N 
ATOM     47  H72 UNL     1     -16.419  -2.100  58.950  1.00  0.00     0.157 HD
ATOM     48  H71 UNL     1     -17.027  -0.512  58.598  1.00  0.00     0.157 HD
ENDBRANCH  38  46
ENDBRANCH  27  30
ENDBRANCH   1  26
TORSDOF 8
ENDMDL
MODEL 4
REMARK VINA RESULT: -7.400386012      3.567     10.102
REMARK  8 active torsions:
REMARK  status: ('A' for Active; 'I' for Inactive)
REMARK    1  A    between atoms: C2_5  and  N3_6 
REMARK    2  A    between atoms: C3_8  and  C4_9 
REMARK    3  A    between atoms: C4_9  and  N5_12 
REMARK       I    between atoms: N5_12  and  C6_14 
REMARK    4  A    between atoms: C6_14  and  C7_16 
REMARK    5  A    between atoms: C9_18  and  C10_19 
REMARK    6  A    between atoms: C10_19  and  O2_20 
REMARK    7  A    between atoms: C13_26  and  N7_27 
REMARK    8  A    between atoms: C17_37  and  N10_38 
REMARK       I    between atoms: N10_38  and  C18_40 
REMARK       I    between atoms: C18_40  and  N11_41 
REMARK       I    between atoms: C18_40  and  N12_45 
ROOT
HETATM    1  C4  UNL     1      -7.954   1.977  59.848  1.00  0.00     0.230 C 
HETATM    2  C5  UNL     1      -7.208   2.981  60.615  1.00  0.00     0.090 C 
HETATM    3  N4  UNL     1      -6.617   3.785  61.203  1.00  0.00    -0.195 NA
ENDROOT
BRANCH   1   4
HETATM    4  C3  UNL     1      -7.602   2.129  58.413  1.00  0.00     0.102 C 
HETATM    5  N3  UNL     1      -6.405   2.447  58.045  1.00  0.00    -0.352 N 
ATOM      6  H3  UNL     1      -5.703   2.592  58.770  1.00  0.00     0.166 HD
BRANCH   5   7
HETATM    7  C2  UNL     1      -6.013   2.605  56.705  1.00  0.00     0.119 A 
HETATM    8  N2  UNL     1      -4.988   3.452  56.396  1.00  0.00    -0.282 N 
HETATM    9  N1  UNL     1      -4.580   3.635  55.151  1.00  0.00    -0.280 N 
ATOM     10  H2  UNL     1      -4.521   3.960  57.148  1.00  0.00     0.189 HD
HETATM   11  C1  UNL     1      -3.487   4.542  54.849  1.00  0.00     0.179 C 
HETATM   12  C17 UNL     1      -5.207   2.957  54.173  1.00  0.00     0.120 A 
HETATM   13  C16 UNL     1      -6.248   2.084  54.412  1.00  0.00     0.053 A 
HETATM   14  C15 UNL     1      -6.665   1.902  55.712  1.00  0.00     0.053 A 
BRANCH  12  15
HETATM   15  N10 UNL     1      -4.823   3.120  52.941  1.00  0.00    -0.326 N 
HETATM   16  C18 UNL     1      -4.294   2.064  52.136  1.00  0.00     0.481 C 
HETATM   17  N11 UNL     1      -2.937   1.708  52.496  1.00  0.00    -0.033 N 
HETATM   18  N12 UNL     1      -4.296   2.505  50.755  1.00  0.00    -0.033 N 
ATOM     19 3H11 UNL     1      -2.327   2.526  52.472  1.00  0.00     0.278 HD
ATOM     20 2H11 UNL     1      -2.871   1.480  53.488  1.00  0.00     0.278 HD
ATOM     21 1H11 UNL     1      -2.560   0.954  51.922  1.00  0.00     0.278 HD
ATOM     22 3H12 UNL     1      -5.215   2.816  50.442  1.00  0.00     0.278 HD
ATOM     23 2H12 UNL     1      -3.800   3.387  50.622  1.00  0.00     0.278 HD
ATOM     24 1H12 UNL     1      -3.918   1.751  50.181  1.00  0.00     0.278 HD
ATOM     25  H10 UNL     1      -4.903   4.049  52.528  1.00  0.00     0.164 HD
ENDBRANCH  12  15
ENDBRANCH   5   7
ENDBRANCH   1   4
BRANCH   1  26
HETATM   26  N5  UNL     1      -9.384   2.107  60.061  1.00  0.00    -0.338 N 
HETATM   27  C6  UNL     1     -10.239   0.992  60.002  1.00  0.00     0.242 C 
HETATM   28  O1  UNL     1      -9.780  -0.142  59.763  1.00  0.00    -0.271 OA
ATOM     29  H5  UNL     1      -9.777   3.027  60.257  1.00  0.00     0.164 HD
BRANCH  27  30
HETATM   30  C7  UNL     1     -11.690   1.142  60.220  1.00  0.00     0.190 C 
HETATM   31  C8  UNL     1     -12.089   0.071  61.227  1.00  0.00     0.062 C 
HETATM   32  C9  UNL     1     -13.566   0.252  61.526  1.00  0.00     0.109 C 
HETATM   33  N6  UNL     1     -14.267  -0.086  60.302  1.00  0.00    -0.369 N 
HETATM   34  C11 UNL     1     -13.670   0.380  59.087  1.00  0.00     0.112 A 
ATOM     35  H6  UNL     1     -15.133  -0.623  60.306  1.00  0.00     0.161 HD
HETATM   36  C12 UNL     1     -14.425   0.200  57.921  1.00  0.00     0.096 A 
HETATM   37  N9  UNL     1     -12.460   0.960  59.032  1.00  0.00    -0.271 N 
HETATM   38  C13 UNL     1     -13.932   0.618  56.702  1.00  0.00     0.106 A 
HETATM   39  N8  UNL     1     -12.717   1.192  56.706  1.00  0.00    -0.295 N 
HETATM   40  C14 UNL     1     -11.992   1.364  57.831  1.00  0.00     0.330 A 
ATOM     41  H8  UNL     1     -12.325   1.511  55.820  1.00  0.00     0.172 HD
HETATM   42  O3  UNL     1     -10.847   1.922  57.713  1.00  0.00    -0.246 OA
BRANCH  32  43
HETATM   43  C10 UNL     1     -13.999  -0.645  62.652  1.00  0.00     0.189 C 
BRANCH  43  44
HETATM   44  O2  UNL     1     -15.311  -1.045  62.441  1.00  0.00    -0.399 OA
ATOM     45  H2  UNL     1     -15.595  -1.585  63.169  1.00  0.00     0.209 HD
ENDBRANCH  43  44
ENDBRANCH  32  43
BRANCH  38  46
HETATM   46  N7  UNL     1     -14.571   0.486  55.588  1.00  0.00    -0.385 N 
ATOM     47  H72 UNL     1     -14.910   1.316  55.101  1.00  0.00     0.157 HD
ATOM     48  H71 UNL     1     -14.767  -0.414  55.151  1.00  0.00     0.157 HD
ENDBRANCH  38  46
ENDBRANCH  27  30
ENDBRANCH   1  26
TORSDOF 8
ENDMDL
MODEL 5
REMARK VINA RESULT: -7.352121592      2.379      2.950
REMARK  8 active torsions:
REMARK  status: ('A' for Active; 'I' for Inactive)
REMARK    1  A    between atoms: C2_5  and  N3_6 
REMARK    2  A    between atoms: C3_8  and  C4_9 
REMARK    3  A    between atoms: C4_9  and  N5_12 
REMARK       I    between atoms: N5_12  and  C6_14 
REMARK    4  A    between atoms: C6_14  and  C7_16 
REMARK    5  A    between atoms: C9_18  and  C10_19 
REMARK    6  A    between atoms: C10_19  and  O2_20 
REMARK    7  A    between atoms: C13_26  and  N7_27 
REMARK    8  A    between atoms: C17_37  and  N10_38 
REMARK       I    between atoms: N10_38  and  C18_40 
REMARK       I    between atoms: C18_40  and  N11_41 
REMARK       I    between atoms: C18_40  and  N12_45 
ROOT
HETATM    1  C4  UNL     1      -8.633   4.325  53.957  1.00  0.00     0.230 C 
HETATM    2  C5  UNL     1      -9.684   5.316  53.700  1.00  0.00     0.090 C 
HETATM    3  N4  UNL     1     -10.522   6.094  53.515  1.00  0.00    -0.195 NA
ENDROOT
BRANCH   1   4
HETATM    4  C3  UNL     1      -9.147   3.345  54.948  1.00  0.00     0.102 C 
HETATM    5  N3  UNL     1      -9.151   3.607  56.212  1.00  0.00    -0.352 N 
ATOM      6  H3  UNL     1      -8.790   4.511  56.515  1.00  0.00     0.166 HD
BRANCH   5   7
HETATM    7  C2  UNL     1      -9.624   2.722  57.196  1.00  0.00     0.119 A 
HETATM    8  N2  UNL     1      -8.736   2.055  57.990  1.00  0.00    -0.282 N 
HETATM    9  N1  UNL     1      -9.130   1.212  58.929  1.00  0.00    -0.280 N 
ATOM     10  H2  UNL     1      -7.737   2.211  57.854  1.00  0.00     0.189 HD
HETATM   11  C1  UNL     1      -8.165   0.515  59.760  1.00  0.00     0.179 C 
HETATM   12  C17 UNL     1     -10.451   1.020  59.093  1.00  0.00     0.120 A 
HETATM   13  C16 UNL     1     -11.405   1.660  58.329  1.00  0.00     0.053 A 
HETATM   14  C15 UNL     1     -10.983   2.534  57.353  1.00  0.00     0.053 A 
BRANCH  12  15
HETATM   15  N10 UNL     1     -10.863   0.196  60.012  1.00  0.00    -0.326 N 
HETATM   16  C18 UNL     1     -11.963   0.475  60.881  1.00  0.00     0.481 C 
HETATM   17  N11 UNL     1     -11.636   1.437  61.912  1.00  0.00    -0.033 N 
HETATM   18  N12 UNL     1     -12.354  -0.764  61.526  1.00  0.00    -0.033 N 
ATOM     19 3H11 UNL     1     -10.818   1.139  62.443  1.00  0.00     0.278 HD
ATOM     20 2H11 UNL     1     -11.266   2.296  61.505  1.00  0.00     0.278 HD
ATOM     21 1H11 UNL     1     -12.421   1.636  62.532  1.00  0.00     0.278 HD
ATOM     22 3H12 UNL     1     -12.557  -1.509  60.859  1.00  0.00     0.278 HD
ATOM     23 2H12 UNL     1     -11.578  -1.220  62.007  1.00  0.00     0.278 HD
ATOM     24 1H12 UNL     1     -13.139  -0.565  62.146  1.00  0.00     0.278 HD
ATOM     25  H10 UNL     1     -10.376  -0.694  60.119  1.00  0.00     0.164 HD
ENDBRANCH  12  15
ENDBRANCH   5   7
ENDBRANCH   1   4
BRANCH   1  26
HETATM   26  N5  UNL     1      -7.412   4.959  54.422  1.00  0.00    -0.338 N 
HETATM   27  C6  UNL     1      -6.152   4.379  54.198  1.00  0.00     0.242 C 
HETATM   28  O1  UNL     1      -6.056   3.295  53.589  1.00  0.00    -0.271 OA
ATOM     29  H5  UNL     1      -7.471   5.846  54.923  1.00  0.00     0.164 HD
BRANCH  27  30
HETATM   30  C7  UNL     1      -4.922   5.037  54.678  1.00  0.00     0.190 C 
HETATM   31  C8  UNL     1      -3.965   5.083  53.493  1.00  0.00     0.062 C 
HETATM   32  C9  UNL     1      -2.718   5.823  53.941  1.00  0.00     0.109 C 
HETATM   33  N6  UNL     1      -2.078   4.971  54.924  1.00  0.00    -0.369 N 
HETATM   34  C11 UNL     1      -2.949   4.313  55.849  1.00  0.00     0.112 A 
ATOM     35  H6  UNL     1      -1.066   4.848  54.954  1.00  0.00     0.161 HD
HETATM   36  C12 UNL     1      -2.328   3.625  56.898  1.00  0.00     0.096 A 
HETATM   37  N9  UNL     1      -4.289   4.335  55.747  1.00  0.00    -0.271 N 
HETATM   38  C13 UNL     1      -3.087   2.959  57.840  1.00  0.00     0.106 A 
HETATM   39  N8  UNL     1      -4.421   3.015  57.689  1.00  0.00    -0.295 N 
HETATM   40  C14 UNL     1      -5.017   3.680  56.678  1.00  0.00     0.330 A 
ATOM     41  H8  UNL     1      -5.009   2.533  58.370  1.00  0.00     0.172 HD
HETATM   42  O3  UNL     1      -6.295   3.663  56.636  1.00  0.00    -0.246 OA
BRANCH  32  43
HETATM   43  C10 UNL     1      -1.800   6.078  52.778  1.00  0.00     0.189 C 
BRANCH  43  44
HETATM   44  O2  UNL     1      -2.558   6.309  51.638  1.00  0.00    -0.399 OA
ATOM     45  H2  UNL     1      -3.397   6.677  51.889  1.00  0.00     0.209 HD
ENDBRANCH  43  44
ENDBRANCH  32  43
BRANCH  38  46
HETATM   46  N7  UNL     1      -2.584   2.306  58.832  1.00  0.00    -0.385 N 
ATOM     47  H72 UNL     1      -1.666   1.870  58.736  1.00  0.00     0.157 HD
ATOM     48  H71 UNL     1      -3.054   2.190  59.730  1.00  0.00     0.157 HD
ENDBRANCH  38  46
ENDBRANCH  27  30
ENDBRANCH   1  26
TORSDOF 8
ENDMDL
